238

C          2.76500       -4.86860        9.17820
C          3.06310       -4.99930        7.87030
C          1.94390       -4.76080        7.01780
C          1.89400       -4.80560        5.61710
C          3.07890       -5.13260        4.81230
C          3.83140       -6.27990        5.05440
C          4.94750       -6.56080        4.29380
C          5.35950       -5.71110        3.27060
S          6.77040       -6.18460        2.30780
C          7.76980       -4.65120        2.27680
C          8.27930       -4.29740        3.65960
C          4.58460       -4.58320        3.02280
F          4.90470       -3.72850        2.02730
C          3.46690       -4.29010        3.77580
C          0.67730       -4.49360        5.02750
C         -0.46960       -4.12910        5.77330
C         -0.42020       -4.08070        7.17430
C         -1.59720       -3.64630        7.93680
C         -2.84470       -4.22600        7.72220
C         -3.97420       -3.75500        8.36380
C         -3.89520       -2.67450        9.23510
S         -5.26660       -1.94320       10.06420
C         -6.70400       -2.57600        9.11710
C         -7.92900       -1.76230        9.49000
C         -2.63180       -2.13180        9.47550
C         -1.49830       -2.59930        8.85050
F         -2.51950       -1.09610       10.33050
C          0.79320       -4.40330        7.76190
S          1.11680       -4.43400        9.47460
C         -1.55360       -3.77000        4.93090
C         -1.27720       -3.89490        3.60470
S          0.34960       -4.47380        3.31300
C         -2.12350       -3.49720        2.52000
C         -3.03110       -2.48190        2.55280
C         -3.63300       -2.21710        1.29670
C         -4.50210       -1.15810        0.97820
C         -5.02100       -0.29740        2.04760
C         -5.60050       -0.87470        3.17610
C         -6.04650       -0.10100        4.22840
C         -5.91640        1.28320        4.19900
S         -6.41800        2.36860        5.49300
C         -6.45290        1.29620        6.97440
C         -5.07630        0.79160        7.36120
C         -5.36870        1.85050        3.04700
F         -5.24430        3.19030        2.97300
C         -4.92750        1.09080        1.98590
C         -4.77460       -0.97280       -0.36780
C         -4.34780       -1.88400       -1.36780
C         -3.56580       -3.00390       -1.03230
C         -3.19730       -3.99740       -2.04530
C         -4.17500       -4.51400       -2.89700
C         -3.85450       -5.46300       -3.84380
C         -2.54770       -5.92310       -3.99040
S         -2.22310       -7.06500       -5.30430
C         -1.10650       -8.29860       -4.54170
C         -1.72980       -8.94580       -3.32160
C         -1.58080       -5.39430       -3.14050
C         -1.89210       -4.46090       -2.17180
F         -0.29250       -5.77730       -3.25030
C         -3.15870       -3.09390        0.29090
S         -2.00550       -4.23200        0.93980
C         -4.63920       -1.41290       -2.67080
C         -5.21320       -0.17400       -2.69160
S         -5.58290        0.40130       -1.07710
C         -5.21340        0.72630       -3.80190
C         -4.80330        0.45630       -5.07690
C         -4.41420        1.61050       -5.80140
C         -3.67110        1.64680       -6.99590
C         -3.51860        0.44770       -7.82740
C         -2.27580        0.00390       -8.26810
C         -2.15710       -1.10890       -9.07910
C         -3.28020       -1.82710       -9.47470
S         -3.28800       -3.25230      -10.50730
C         -1.52600       -3.68230      -10.71870
C         -0.92730       -4.32190       -9.48020
C         -4.52120       -1.37530       -9.01730
F         -5.63350       -2.04710       -9.37820
C         -4.65260       -0.26930       -8.20940
C         -3.03400        2.84380       -7.28390
C         -3.19590        4.02350       -6.51130
C         -4.04540        4.01590       -5.39260
C         -4.22940        5.18480       -4.52080
C         -5.51180        5.63730       -4.22010
C         -5.69740        6.69670       -3.35620
C         -4.61480        7.33320       -2.75920
S         -4.92140        8.68050       -1.64570
C         -4.03480        8.10470       -0.14890
C         -4.59980        6.79680        0.36830
C         -3.33930        6.88650       -3.08640
C         -3.13750        5.82270       -3.94170
F         -2.24590        7.48390       -2.56230
C         -4.59780        2.79420       -5.04540
S         -5.33450        2.45240       -3.50100
C         -2.27970        5.03590       -6.88340
C         -1.37230        4.63840       -7.82720
S         -1.80230        3.06470       -8.49800
C         -0.01670        5.10040       -7.94920
C          0.95000        4.42300       -8.70480
C          2.29270        4.30240       -8.27890
N          3.05000        3.46670       -9.03960
C          2.39240        2.98800      -10.02080
S          0.71280        3.45320      -10.12630
C          2.74590        4.90890       -7.08730
C          1.87940        5.88870       -6.58360
C          0.52390        5.98480       -6.98440
N         -0.20630        6.86990       -6.25130
C          0.48800        7.44900       -5.35340
S          2.15650        6.95800       -5.24320
C          3.73390        4.24040       -6.29400
C          4.28210        4.65020       -5.12860
C          4.57140        3.70790       -4.08510
C          3.76080        2.64090       -3.81670
C          3.98680        2.04300       -2.55470
C          3.21740        1.04610       -1.93250
C          2.00610        0.50660       -2.56320
C          1.02180        1.35240       -3.07670
C         -0.10540        0.83780       -3.67980
C         -0.30860       -0.53810       -3.78670
S         -1.82180       -1.05810       -4.54030
C         -1.40630       -2.60790       -5.43830
C         -2.65850       -3.11960       -6.12150
C          0.65790       -1.36820       -3.22810
F          0.51180       -2.70950       -3.24140
C          1.80030       -0.86610       -2.63730
C          3.61800        0.65460       -0.66290
C          4.76830        1.18510       -0.02790
C          5.54090        2.18160       -0.65340
C          6.74480        2.71370       -0.00610
C          6.97400        4.08350        0.11540
C          8.12130        4.55080        0.71540
C          9.09230        3.68460        1.22390
S         10.47960        4.47090        1.98170
C         11.85810        3.26140        1.98690
C         11.98380        2.52390        3.30580
C          8.84120        2.32140        1.10920
C          7.69920        1.83870        0.50220
F          9.70730        1.39840        1.59250
C          5.09320        2.62850       -1.88750
S          5.75150        3.95740       -2.81620
C          4.90180        0.69520        1.29570
C          3.89060       -0.13620        1.67530
S          2.73290       -0.40760        0.39940
C          3.67970       -0.66680        3.00060
C          4.71630       -0.99120        3.87090
C          4.49010       -1.38770        5.21210
N          5.62750       -1.69300        5.90070
C          6.67080       -1.55420        5.18290
S          6.42290       -1.01870        3.54100
C          3.20370       -1.40780        5.77990
C          2.16530       -1.11790        4.89800
C          2.38600       -0.79930        3.53100
N          1.25100       -0.58100        2.81160
C          0.20190       -0.70570        3.51990
S          0.45100       -1.09130        5.20440
C          3.08960       -1.67840        7.19950
C          2.04610       -1.40190        7.97300
H          3.41870       -4.99600       10.01890
H          4.04310       -5.24400        7.50350
H          3.52610       -6.96420        5.83130
H          5.52460       -7.45340        4.47930
H          7.17790       -3.84930        1.84210
H          8.59220       -4.88980        1.60310
H          8.87670       -5.11120        4.06490
H          8.89670       -3.40260        3.60490
H          7.44880       -4.10900        4.33930
H          2.90610       -3.40080        3.53760
H         -2.93090       -5.06960        7.05390
H         -4.92100       -4.23660        8.17960
H         -6.84600       -3.62730        9.36820
H         -6.47030       -2.47200        8.05750
H         -8.79300       -2.11600        8.93150
H         -8.13900       -1.85720       10.55260
H         -7.77160       -0.70980        9.26490
H         -0.55270       -2.12500        9.05470
H         -2.49920       -3.41860        5.30060
H         -3.21550       -1.89230        3.43300
H         -5.71870       -1.94730        3.22030
H         -6.50390       -0.58470        5.07660
H         -6.85330        1.95410        7.74570
H         -7.16390        0.48770        6.80550
H         -4.39470        1.62810        7.49480
H         -5.13110        0.24240        8.29910
H         -4.66700        0.13580        6.59460
H         -4.48620        1.58590        1.13590
H         -5.19740       -4.18260       -2.79570
H         -4.61420       -5.86380       -4.49680
H         -0.15740       -7.82060       -4.30960
H         -0.95410       -9.02550       -5.33950
H         -1.88230       -8.21420       -2.53000
H         -1.07120       -9.72600       -2.94510
H         -2.69090       -9.39000       -3.57290
H         -1.09280       -4.07160       -1.56200
H         -4.32330       -1.92300       -3.56030
H         -4.67390       -0.54010       -5.45600
H         -1.38120        0.51870       -7.95530
H         -1.17430       -1.41140       -9.40120
H         -0.98610       -2.78990      -11.03290
H         -1.53840       -4.38910      -11.54850
H         -1.49670       -5.20530       -9.20060
H         -0.93220       -3.63230       -8.63960
H          0.10040       -4.62030       -9.67900
H         -5.63710        0.04120       -7.89610
H         -6.36580        5.15220       -4.66770
H         -6.69090        7.04410       -3.12010
H         -4.18580        8.91180        0.56740
H         -2.97420        8.02940       -0.38050
H         -5.66470        6.89320        0.56760
H         -4.09890        6.51640        1.29260
H         -4.45680        5.99730       -0.35710
H         -2.12870        5.49190       -4.13430
H         -2.21980        5.99310       -6.40160
H          2.81540        2.33390      -10.75760
H          0.09590        8.19220       -4.68690
H          3.87910        3.20840       -6.58790
H          4.37280        5.69770       -4.87680
H          2.97090        2.33690       -4.47890
H          1.13620        2.42180       -2.98560
H         -0.86200        1.49580       -4.08100
H         -0.62750       -2.35990       -6.15960
H         -1.03610       -3.33850       -4.72560
H         -3.03150       -2.39360       -6.83910
H         -2.44140       -4.05170       -6.63830
H         -3.43650       -3.31820       -5.38800
H          2.52360       -1.56100       -2.24010
H          6.24100        4.78540       -0.24980
H          8.29370        5.61200        0.80670
H         12.73960        3.87690        1.80430
H         11.71920        2.58640        1.14650
H         11.10620        1.91200        3.49400
H         12.85700        1.87490        3.27810
H         12.09880        3.23080        4.12440
H          7.57310        0.76980        0.42120
H          5.67690        1.02340        1.96410
H          7.66440       -1.73730        5.54290
H         -0.79250       -0.57990        3.13860
H          3.99180       -2.09010        7.63010
H          2.07640       -1.60100        9.03030
H          1.14290       -0.95350        7.59520
