273

C          0.14860        3.71360        3.32640
C          0.03610        3.76560        4.66760
C          1.17720        3.24070        5.34870
C          1.42870        3.25480        6.73310
C          0.35980        3.71680        7.62470
C         -0.94150        3.24970        7.44020
C         -2.00500        3.79400        8.12920
C         -1.80750        4.82540        9.04050
S         -3.08260        5.63390        9.94170
C         -4.61130        5.19360        9.03930
C         -4.68120        5.83710        7.66810
C         -0.49120        5.22820        9.27660
F         -0.25830        6.20020       10.17770
C          0.57860        4.69650        8.59040
C          2.70930        2.89400        7.13730
C          3.68830        2.43300        6.21720
C          3.42730        2.38080        4.83020
C          4.44170        1.97460        3.85340
C          4.09630        1.18030        2.75960
C          5.04930        0.73050        1.87430
C          6.39490        1.05680        2.02800
S          7.52220        0.30800        0.89450
C          8.80440        1.57830        0.58680
C          8.21270        2.85650        0.02920
C          6.72330        1.89840        3.08730
C          5.77230        2.37060        3.96960
F          8.00210        2.28270        3.29580
C          2.16350        2.79690        4.43540
S          1.62130        2.99170        2.78510
C          4.89730        2.12390        6.87330
C          4.92210        2.43460        8.21000
S          3.34470        2.95600        8.76570
C          6.11820        2.36690        9.00840
C          6.20680        2.16800       10.39720
C          5.17530        2.24540       11.46030
O          4.02260        2.58670       11.37600
N          5.83800        1.94600       12.65970
C          7.19520        1.71320       12.47700
O          7.98040        1.43190       13.34180
C          7.42300        1.86920       11.02170
C          8.60670        1.70080       10.33220
C          8.55970        2.02920        8.98580
C          7.38210        2.44310        8.35870
C          7.64980        3.10220        7.07130
O          6.97020        3.87640        6.46200
S          9.33440        2.72370        6.54250
C          9.74450        1.97950        8.11170
O         10.80900        1.49210        8.36050
C          5.19600        1.63950       13.87980
C          4.22810        0.72560       13.93330
C          3.79210        0.08990       12.70270
C          4.59140       -0.41290       11.72300
C          3.93360       -0.56700       10.47300
C          4.50040       -0.94280        9.24110
C          5.90130       -1.37250        9.17270
C          6.77940       -0.84900        8.22840
C          8.11870       -1.18770        8.21960
C          8.63360       -2.08850        9.14570
S         10.30900       -2.59080        9.28580
C         11.16840       -1.79130        7.88940
C         10.87190       -2.45670        6.55870
C          7.73240       -2.63870       10.06310
F          8.18310       -3.53720       10.96000
C          6.40150       -2.29530       10.09290
C          3.67560       -0.83440        8.13000
C          2.32790       -0.40340        8.21510
C          1.75400       -0.05870        9.44730
C          0.35650        0.36700        9.57130
C         -0.67940       -0.36390        8.99010
C         -1.99110        0.02400        9.15630
C         -2.32770        1.14060        9.92020
S         -4.04150        1.55920       10.00890
C         -4.24460        2.38610       11.63580
C         -5.71600        2.38790       11.99920
C         -1.28390        1.85950       10.49550
C          0.03420        1.49380       10.32040
F         -1.52630        2.94730       11.25240
C          2.58830       -0.13410       10.55030
S          2.15390        0.33110       12.16950
C          1.70620       -0.35630        6.94810
C          2.50450       -0.77940        5.92680
S          4.10440       -1.21790        6.47920
C          2.08650       -0.87380        4.56660
C          0.91540       -0.36390        4.09000
C          0.68930       -0.63030        2.72090
C         -0.41740       -0.22460        1.95500
C         -1.51780        0.47620        2.62520
C         -2.03240       -0.01650        3.82390
C         -2.93400        0.71100        4.57360
C         -3.36740        1.96060        4.14430
S         -4.39790        3.04630        5.07170
C         -5.15020        1.97740        6.34930
C         -6.14170        0.99010        5.76570
C         -2.90300        2.40730        2.90610
F         -3.31350        3.60780        2.44900
C         -2.00180        1.69110        2.14870
C         -0.36110       -0.50610        0.60080
C          0.75280       -1.14280       -0.00650
C          1.86940       -1.52350        0.76160
C          3.12000       -1.97850        0.14970
C          3.65550       -1.27770       -0.93440
C          4.90770       -1.58190       -1.42070
C          5.67620       -2.59740       -0.85410
S          7.28230       -2.88890       -1.51680
C          8.27010       -3.28110       -0.01810
C          9.69990       -2.83130       -0.23960
C          5.10740       -3.32600        0.18720
C          3.86160       -3.02100        0.69630
F          5.76520       -4.37060        0.73440
C          1.77960       -1.31410        2.13120
S          2.99000       -1.71810        3.33040
C          0.53980       -1.36120       -1.39010
C         -0.66760       -0.90770       -1.83770
S         -1.61100       -0.16600       -0.56260
C         -1.19590       -0.99850       -3.16180
C         -0.68710       -1.70510       -4.21300
C         -1.46720       -1.60710       -5.39200
C         -1.23340       -2.21700       -6.63660
C         -0.02860       -3.01790       -6.88530
C          1.23800       -2.51600       -6.58770
C          2.36640       -3.26960       -6.82780
C          2.28380       -4.54670       -7.38120
S          3.80620       -5.39280       -7.68640
C          3.44820       -7.13440       -7.24810
C          2.98270       -7.27380       -5.81280
C          1.01580       -5.02120       -7.70190
F          0.85280       -6.23350       -8.27830
C         -0.12410       -4.28550       -7.44920
C         -2.18960       -2.00930       -7.61840
C         -3.33020       -1.18840       -7.43170
C         -3.55020       -0.55740       -6.19650
C         -4.70180        0.32730       -5.98320
C         -4.97790        1.36310       -6.87130
C         -6.05260        2.20820       -6.67380
C         -6.89220        2.04810       -5.57720
S         -8.30980        3.02940       -5.21850
C         -8.12120        4.49950       -6.28530
C         -6.98790        5.39960       -5.83100
C         -6.60650        1.00110       -4.69840
C         -5.53680        0.15460       -4.88130
F         -7.40790        0.80540       -3.63340
C         -2.62070       -0.80640       -5.19780
S         -2.67870       -0.16640       -3.57790
C         -4.14930       -1.15150       -8.58880
C         -3.66110       -1.88500       -9.62770
S         -2.14480       -2.67130       -9.23200
C         -4.24760       -2.08700      -10.91160
C         -3.80780       -2.91110      -11.90270
C         -4.64320       -2.92080      -13.04920
C         -4.46990       -3.64780      -14.23790
C         -3.36890       -4.60450      -14.39120
C         -3.11890       -5.56460      -13.41430
C         -2.08330       -6.46930      -13.54470
C         -1.25680       -6.44790      -14.66250
S          0.11610       -7.50920      -14.95370
C          0.06810       -8.71050      -13.57970
C         -1.01350       -9.75860      -13.76410
C         -1.52430       -5.48410      -15.63810
F         -0.73990       -5.43110      -16.73270
C         -2.55340       -4.57860      -15.52120
C         -5.40400       -3.42730      -15.24130
C         -6.49270       -2.53290      -15.10460
C         -6.66610       -1.80820      -13.91570
C         -7.75610       -0.83890      -13.75240
C         -7.97370        0.15800      -14.70310
C         -8.96800        1.09420      -14.52340
C         -9.79440        1.07040      -13.39960
S        -11.04900        2.30710      -13.29810
C        -11.24550        2.59380      -11.49300
C        -11.80680        3.98560      -11.27850
C         -9.58610        0.05080      -12.47560
C         -8.57840       -0.87910      -12.63200
F        -10.37790       -0.07190      -11.38640
C         -5.73960       -2.03510      -12.90880
S         -5.72360       -1.24800      -11.35060
C         -7.33410       -2.55010      -16.25660
C         -6.90100       -3.40020      -17.20950
S         -5.44860       -4.23820      -16.78600
H         -0.54600        4.07500        2.59490
H         -0.80620        4.20620        5.16790
H         -1.12580        2.44460        6.74350
H         -2.99530        3.41310        7.94490
H         -5.40060        5.57640        9.68710
H         -4.69370        4.10800        8.99520
H         -4.59140        6.91720        7.75520
H         -5.63480        5.60580        7.19730
H         -3.88520        5.47580        7.02110
H          1.56660        5.08250        8.78320
H          3.06750        0.90580        2.60280
H          4.76670        0.10030        1.04560
H          9.45960        1.09950       -0.14130
H          9.36040        1.75130        1.50550
H          9.01310        3.55220       -0.21420
H          7.64000        2.65120       -0.87290
H          7.55650        3.33100        0.75620
H          6.08160        3.07600        4.72510
H          5.72220        1.66120        6.36360
H          9.51840        1.38860       10.81470
H          5.58380        2.15360       14.74570
H          3.69740        0.53290       14.85180
H          5.63210       -0.63810       11.87850
H          6.41340       -0.14730        7.49650
H          8.76510       -0.73640        7.48430
H         10.93410       -0.72780        7.89840
H         12.22110       -1.90710        8.14800
H         11.42190       -1.95120        5.76730
H          9.81100       -2.42080        6.32100
H         11.17870       -3.49990        6.58410
H          5.75480       -2.76950       10.81450
H         -0.45620       -1.26270        8.43570
H         -2.78960       -0.54960        8.71010
H         -3.65830        1.81720       12.35580
H         -3.85670        3.40080       11.56080
H         -6.09990        1.37180       12.06110
H         -5.85030        2.87260       12.96340
H         -6.29480        2.93040       11.25440
H          0.80080        2.11670       10.75340
H          0.69650       -0.02020        6.80960
H          0.24980        0.22920        4.68760
H         -1.71820       -0.98760        4.17610
H         -3.27890        0.30560        5.51120
H         -5.65690        2.68580        7.00470
H         -4.36020        1.48850        6.91890
H         -5.65710        0.31020        5.06820
H         -6.93010        1.51860        5.23510
H         -6.59050        0.40640        6.56680
H         -1.65600        2.09870        1.21200
H          3.10440       -0.45190       -1.35830
H          5.33010       -1.01740       -2.23700
H          8.21290       -4.35400        0.16020
H          7.81590       -2.73780        0.80850
H          9.73290       -1.75800       -0.41180
H         10.29670       -3.06330        0.63980
H         10.13370       -3.33560       -1.10000
H          3.47300       -3.62180        1.50340
H          1.25000       -1.86190       -2.02200
H          0.20210       -2.30420       -4.14440
H          1.33500       -1.52100       -6.18060
H          3.34470       -2.87950       -6.59300
H          2.72540       -7.53770       -7.95360
H          4.40710       -7.62970       -7.39990
H          3.70960       -6.83680       -5.13140
H          2.86230       -8.32710       -5.56770
H          2.02620       -6.77550       -5.66420
H         -1.08180       -4.71670       -7.69520
H         -4.32940        1.52450       -7.71930
H         -6.23290        2.99330       -7.39010
H         -8.00750        4.17180       -7.31790
H         -9.08100        5.00680       -6.18750
H         -6.93560        6.27980       -6.46910
H         -7.15410        5.72220       -4.80600
H         -6.03280        4.88050       -5.87510
H         -5.37530       -0.64380       -4.17450
H         -5.08320       -0.62100       -8.64250
H         -2.90160       -3.48400      -11.81910
H         -3.75960       -5.62090      -12.54710
H         -1.92500       -7.18990      -12.75930
H          1.05670       -9.16890      -13.60790
H         -0.03160       -8.16290      -12.64360
H         -0.85210      -10.30350      -14.69120
H         -0.98870      -10.46510      -12.93640
H         -2.00080       -9.30370      -13.80410
H         -2.69810       -3.84670      -16.29970
H         -7.33420        0.21600      -15.57060
H         -9.12310        1.87380      -15.25300
H        -11.91450        1.83330      -11.09330
H        -10.25950        2.49210      -11.04220
H        -11.93000        4.17100      -10.21360
H        -12.77520        4.08480      -11.76350
H        -11.13670        4.73660      -11.69120
H         -8.46760       -1.64940      -11.88490
H         -8.22990       -1.96260      -16.34290
H         -7.34740       -3.60160      -18.16380
