
  xtb     03072221593D
 energy: -487.465705343162 gnorm: 0.000976966097 xtb: 6.4.1 (unknown)
273300  0     0  0            999 V2000
    0.1486    3.7136    3.3264 C   0  0  0  0  0  0  0  0  0  0  0  0
    0.0361    3.7656    4.6676 C   0  0  0  0  0  0  0  0  0  0  0  0
    1.1772    3.2407    5.3487 C   0  0  0  0  0  0  0  0  0  0  0  0
    1.4287    3.2548    6.7331 C   0  0  0  0  0  0  0  0  0  0  0  0
    0.3598    3.7168    7.6247 C   0  0  0  0  0  0  0  0  0  0  0  0
   -0.9415    3.2497    7.4402 C   0  0  0  0  0  0  0  0  0  0  0  0
   -2.0050    3.7940    8.1292 C   0  0  0  0  0  0  0  0  0  0  0  0
   -1.8075    4.8254    9.0405 C   0  0  0  0  0  0  0  0  0  0  0  0
   -3.0826    5.6339    9.9417 S   0  0  0  0  0  0  0  0  0  0  0  0
   -4.6113    5.1936    9.0393 C   0  0  0  0  0  0  0  0  0  0  0  0
   -4.6812    5.8371    7.6681 C   0  0  0  0  0  0  0  0  0  0  0  0
   -0.4912    5.2282    9.2766 C   0  0  0  0  0  0  0  0  0  0  0  0
   -0.2583    6.2002   10.1777 F   0  0  0  0  0  0  0  0  0  0  0  0
    0.5786    4.6965    8.5904 C   0  0  0  0  0  0  0  0  0  0  0  0
    2.7093    2.8940    7.1373 C   0  0  0  0  0  0  0  0  0  0  0  0
    3.6883    2.4330    6.2172 C   0  0  0  0  0  0  0  0  0  0  0  0
    3.4273    2.3808    4.8302 C   0  0  0  0  0  0  0  0  0  0  0  0
    4.4417    1.9746    3.8534 C   0  0  0  0  0  0  0  0  0  0  0  0
    4.0963    1.1803    2.7596 C   0  0  0  0  0  0  0  0  0  0  0  0
    5.0493    0.7305    1.8743 C   0  0  0  0  0  0  0  0  0  0  0  0
    6.3949    1.0568    2.0280 C   0  0  0  0  0  0  0  0  0  0  0  0
    7.5222    0.3080    0.8945 S   0  0  0  0  0  0  0  0  0  0  0  0
    8.8044    1.5783    0.5868 C   0  0  0  0  0  0  0  0  0  0  0  0
    8.2127    2.8565    0.0292 C   0  0  0  0  0  0  0  0  0  0  0  0
    6.7233    1.8984    3.0873 C   0  0  0  0  0  0  0  0  0  0  0  0
    5.7723    2.3706    3.9696 C   0  0  0  0  0  0  0  0  0  0  0  0
    8.0021    2.2827    3.2958 F   0  0  0  0  0  0  0  0  0  0  0  0
    2.1635    2.7969    4.4354 C   0  0  0  0  0  0  0  0  0  0  0  0
    1.6213    2.9917    2.7851 S   0  0  0  0  0  0  0  0  0  0  0  0
    4.8973    2.1239    6.8733 C   0  0  0  0  0  0  0  0  0  0  0  0
    4.9221    2.4346    8.2100 C   0  0  0  0  0  0  0  0  0  0  0  0
    3.3447    2.9560    8.7657 S   0  0  0  0  0  0  0  0  0  0  0  0
    6.1182    2.3669    9.0084 C   0  0  0  0  0  0  0  0  0  0  0  0
    6.2068    2.1680   10.3972 C   0  0  0  0  0  0  0  0  0  0  0  0
    5.1753    2.2454   11.4603 C   0  0  0  0  0  0  0  0  0  0  0  0
    4.0226    2.5867   11.3760 O   0  0  0  0  0  0  0  0  0  0  0  0
    5.8380    1.9460   12.6597 N   0  0  0  0  0  0  0  0  0  0  0  0
    7.1952    1.7132   12.4770 C   0  0  0  0  0  0  0  0  0  0  0  0
    7.9804    1.4319   13.3418 O   0  0  0  0  0  0  0  0  0  0  0  0
    7.4230    1.8692   11.0217 C   0  0  0  0  0  0  0  0  0  0  0  0
    8.6067    1.7008   10.3322 C   0  0  0  0  0  0  0  0  0  0  0  0
    8.5597    2.0292    8.9858 C   0  0  0  0  0  0  0  0  0  0  0  0
    7.3821    2.4431    8.3587 C   0  0  0  0  0  0  0  0  0  0  0  0
    7.6498    3.1022    7.0713 C   0  0  0  0  0  0  0  0  0  0  0  0
    6.9702    3.8764    6.4620 O   0  0  0  0  0  0  0  0  0  0  0  0
    9.3344    2.7237    6.5425 S   0  0  0  0  0  0  0  0  0  0  0  0
    9.7445    1.9795    8.1117 C   0  0  0  0  0  0  0  0  0  0  0  0
   10.8090    1.4921    8.3605 O   0  0  0  0  0  0  0  0  0  0  0  0
    5.1960    1.6395   13.8798 C   0  0  0  0  0  0  0  0  0  0  0  0
    4.2281    0.7256   13.9333 C   0  0  0  0  0  0  0  0  0  0  0  0
    3.7921    0.0899   12.7027 C   0  0  0  0  0  0  0  0  0  0  0  0
    4.5914   -0.4129   11.7230 C   0  0  0  0  0  0  0  0  0  0  0  0
    3.9336   -0.5670   10.4730 C   0  0  0  0  0  0  0  0  0  0  0  0
    4.5004   -0.9428    9.2411 C   0  0  0  0  0  0  0  0  0  0  0  0
    5.9013   -1.3725    9.1727 C   0  0  0  0  0  0  0  0  0  0  0  0
    6.7794   -0.8490    8.2284 C   0  0  0  0  0  0  0  0  0  0  0  0
    8.1187   -1.1877    8.2196 C   0  0  0  0  0  0  0  0  0  0  0  0
    8.6336   -2.0885    9.1457 C   0  0  0  0  0  0  0  0  0  0  0  0
   10.3090   -2.5908    9.2858 S   0  0  0  0  0  0  0  0  0  0  0  0
   11.1684   -1.7913    7.8894 C   0  0  0  0  0  0  0  0  0  0  0  0
   10.8719   -2.4567    6.5587 C   0  0  0  0  0  0  0  0  0  0  0  0
    7.7324   -2.6387   10.0631 C   0  0  0  0  0  0  0  0  0  0  0  0
    8.1831   -3.5372   10.9600 F   0  0  0  0  0  0  0  0  0  0  0  0
    6.4015   -2.2953   10.0929 C   0  0  0  0  0  0  0  0  0  0  0  0
    3.6756   -0.8344    8.1300 C   0  0  0  0  0  0  0  0  0  0  0  0
    2.3279   -0.4034    8.2151 C   0  0  0  0  0  0  0  0  0  0  0  0
    1.7540   -0.0587    9.4473 C   0  0  0  0  0  0  0  0  0  0  0  0
    0.3565    0.3670    9.5713 C   0  0  0  0  0  0  0  0  0  0  0  0
   -0.6794   -0.3639    8.9901 C   0  0  0  0  0  0  0  0  0  0  0  0
   -1.9911    0.0240    9.1563 C   0  0  0  0  0  0  0  0  0  0  0  0
   -2.3277    1.1406    9.9202 C   0  0  0  0  0  0  0  0  0  0  0  0
   -4.0415    1.5592   10.0089 S   0  0  0  0  0  0  0  0  0  0  0  0
   -4.2446    2.3861   11.6358 C   0  0  0  0  0  0  0  0  0  0  0  0
   -5.7160    2.3879   11.9992 C   0  0  0  0  0  0  0  0  0  0  0  0
   -1.2839    1.8595   10.4955 C   0  0  0  0  0  0  0  0  0  0  0  0
    0.0342    1.4938   10.3204 C   0  0  0  0  0  0  0  0  0  0  0  0
   -1.5263    2.9473   11.2524 F   0  0  0  0  0  0  0  0  0  0  0  0
    2.5883   -0.1341   10.5503 C   0  0  0  0  0  0  0  0  0  0  0  0
    2.1539    0.3311   12.1695 S   0  0  0  0  0  0  0  0  0  0  0  0
    1.7062   -0.3563    6.9481 C   0  0  0  0  0  0  0  0  0  0  0  0
    2.5045   -0.7794    5.9268 C   0  0  0  0  0  0  0  0  0  0  0  0
    4.1044   -1.2179    6.4792 S   0  0  0  0  0  0  0  0  0  0  0  0
    2.0865   -0.8738    4.5666 C   0  0  0  0  0  0  0  0  0  0  0  0
    0.9154   -0.3639    4.0900 C   0  0  0  0  0  0  0  0  0  0  0  0
    0.6893   -0.6303    2.7209 C   0  0  0  0  0  0  0  0  0  0  0  0
   -0.4174   -0.2246    1.9550 C   0  0  0  0  0  0  0  0  0  0  0  0
   -1.5178    0.4762    2.6252 C   0  0  0  0  0  0  0  0  0  0  0  0
   -2.0324   -0.0165    3.8239 C   0  0  0  0  0  0  0  0  0  0  0  0
   -2.9340    0.7110    4.5736 C   0  0  0  0  0  0  0  0  0  0  0  0
   -3.3674    1.9606    4.1443 C   0  0  0  0  0  0  0  0  0  0  0  0
   -4.3979    3.0463    5.0717 S   0  0  0  0  0  0  0  0  0  0  0  0
   -5.1502    1.9774    6.3493 C   0  0  0  0  0  0  0  0  0  0  0  0
   -6.1417    0.9901    5.7657 C   0  0  0  0  0  0  0  0  0  0  0  0
   -2.9030    2.4073    2.9061 C   0  0  0  0  0  0  0  0  0  0  0  0
   -3.3135    3.6078    2.4490 F   0  0  0  0  0  0  0  0  0  0  0  0
   -2.0018    1.6911    2.1487 C   0  0  0  0  0  0  0  0  0  0  0  0
   -0.3611   -0.5061    0.6008 C   0  0  0  0  0  0  0  0  0  0  0  0
    0.7528   -1.1428   -0.0065 C   0  0  0  0  0  0  0  0  0  0  0  0
    1.8694   -1.5235    0.7616 C   0  0  0  0  0  0  0  0  0  0  0  0
    3.1200   -1.9785    0.1497 C   0  0  0  0  0  0  0  0  0  0  0  0
    3.6555   -1.2777   -0.9344 C   0  0  0  0  0  0  0  0  0  0  0  0
    4.9077   -1.5819   -1.4207 C   0  0  0  0  0  0  0  0  0  0  0  0
    5.6762   -2.5974   -0.8541 C   0  0  0  0  0  0  0  0  0  0  0  0
    7.2823   -2.8889   -1.5168 S   0  0  0  0  0  0  0  0  0  0  0  0
    8.2701   -3.2811   -0.0181 C   0  0  0  0  0  0  0  0  0  0  0  0
    9.6999   -2.8313   -0.2396 C   0  0  0  0  0  0  0  0  0  0  0  0
    5.1074   -3.3260    0.1872 C   0  0  0  0  0  0  0  0  0  0  0  0
    3.8616   -3.0210    0.6963 C   0  0  0  0  0  0  0  0  0  0  0  0
    5.7652   -4.3706    0.7344 F   0  0  0  0  0  0  0  0  0  0  0  0
    1.7796   -1.3141    2.1312 C   0  0  0  0  0  0  0  0  0  0  0  0
    2.9900   -1.7181    3.3304 S   0  0  0  0  0  0  0  0  0  0  0  0
    0.5398   -1.3612   -1.3901 C   0  0  0  0  0  0  0  0  0  0  0  0
   -0.6676   -0.9077   -1.8377 C   0  0  0  0  0  0  0  0  0  0  0  0
   -1.6110   -0.1660   -0.5626 S   0  0  0  0  0  0  0  0  0  0  0  0
   -1.1959   -0.9985   -3.1618 C   0  0  0  0  0  0  0  0  0  0  0  0
   -0.6871   -1.7051   -4.2130 C   0  0  0  0  0  0  0  0  0  0  0  0
   -1.4672   -1.6071   -5.3920 C   0  0  0  0  0  0  0  0  0  0  0  0
   -1.2334   -2.2170   -6.6366 C   0  0  0  0  0  0  0  0  0  0  0  0
   -0.0286   -3.0179   -6.8853 C   0  0  0  0  0  0  0  0  0  0  0  0
    1.2380   -2.5160   -6.5877 C   0  0  0  0  0  0  0  0  0  0  0  0
    2.3664   -3.2696   -6.8278 C   0  0  0  0  0  0  0  0  0  0  0  0
    2.2838   -4.5467   -7.3812 C   0  0  0  0  0  0  0  0  0  0  0  0
    3.8062   -5.3928   -7.6864 S   0  0  0  0  0  0  0  0  0  0  0  0
    3.4482   -7.1344   -7.2481 C   0  0  0  0  0  0  0  0  0  0  0  0
    2.9827   -7.2738   -5.8128 C   0  0  0  0  0  0  0  0  0  0  0  0
    1.0158   -5.0212   -7.7019 C   0  0  0  0  0  0  0  0  0  0  0  0
    0.8528   -6.2335   -8.2783 F   0  0  0  0  0  0  0  0  0  0  0  0
   -0.1241   -4.2855   -7.4492 C   0  0  0  0  0  0  0  0  0  0  0  0
   -2.1896   -2.0093   -7.6184 C   0  0  0  0  0  0  0  0  0  0  0  0
   -3.3302   -1.1884   -7.4317 C   0  0  0  0  0  0  0  0  0  0  0  0
   -3.5502   -0.5574   -6.1965 C   0  0  0  0  0  0  0  0  0  0  0  0
   -4.7018    0.3273   -5.9832 C   0  0  0  0  0  0  0  0  0  0  0  0
   -4.9779    1.3631   -6.8713 C   0  0  0  0  0  0  0  0  0  0  0  0
   -6.0526    2.2082   -6.6738 C   0  0  0  0  0  0  0  0  0  0  0  0
   -6.8922    2.0481   -5.5772 C   0  0  0  0  0  0  0  0  0  0  0  0
   -8.3098    3.0294   -5.2185 S   0  0  0  0  0  0  0  0  0  0  0  0
   -8.1212    4.4995   -6.2853 C   0  0  0  0  0  0  0  0  0  0  0  0
   -6.9879    5.3996   -5.8310 C   0  0  0  0  0  0  0  0  0  0  0  0
   -6.6065    1.0011   -4.6984 C   0  0  0  0  0  0  0  0  0  0  0  0
   -5.5368    0.1546   -4.8813 C   0  0  0  0  0  0  0  0  0  0  0  0
   -7.4079    0.8054   -3.6334 F   0  0  0  0  0  0  0  0  0  0  0  0
   -2.6207   -0.8064   -5.1978 C   0  0  0  0  0  0  0  0  0  0  0  0
   -2.6787   -0.1664   -3.5779 S   0  0  0  0  0  0  0  0  0  0  0  0
   -4.1493   -1.1515   -8.5888 C   0  0  0  0  0  0  0  0  0  0  0  0
   -3.6611   -1.8850   -9.6277 C   0  0  0  0  0  0  0  0  0  0  0  0
   -2.1448   -2.6713   -9.2320 S   0  0  0  0  0  0  0  0  0  0  0  0
   -4.2476   -2.0870  -10.9116 C   0  0  0  0  0  0  0  0  0  0  0  0
   -3.8078   -2.9111  -11.9027 C   0  0  0  0  0  0  0  0  0  0  0  0
   -4.6432   -2.9208  -13.0492 C   0  0  0  0  0  0  0  0  0  0  0  0
   -4.4699   -3.6478  -14.2379 C   0  0  0  0  0  0  0  0  0  0  0  0
   -3.3689   -4.6045  -14.3912 C   0  0  0  0  0  0  0  0  0  0  0  0
   -3.1189   -5.5646  -13.4143 C   0  0  0  0  0  0  0  0  0  0  0  0
   -2.0833   -6.4693  -13.5447 C   0  0  0  0  0  0  0  0  0  0  0  0
   -1.2568   -6.4479  -14.6625 C   0  0  0  0  0  0  0  0  0  0  0  0
    0.1161   -7.5092  -14.9537 S   0  0  0  0  0  0  0  0  0  0  0  0
    0.0681   -8.7105  -13.5797 C   0  0  0  0  0  0  0  0  0  0  0  0
   -1.0135   -9.7586  -13.7641 C   0  0  0  0  0  0  0  0  0  0  0  0
   -1.5243   -5.4841  -15.6381 C   0  0  0  0  0  0  0  0  0  0  0  0
   -0.7399   -5.4311  -16.7327 F   0  0  0  0  0  0  0  0  0  0  0  0
   -2.5534   -4.5786  -15.5212 C   0  0  0  0  0  0  0  0  0  0  0  0
   -5.4040   -3.4273  -15.2413 C   0  0  0  0  0  0  0  0  0  0  0  0
   -6.4927   -2.5329  -15.1046 C   0  0  0  0  0  0  0  0  0  0  0  0
   -6.6661   -1.8082  -13.9157 C   0  0  0  0  0  0  0  0  0  0  0  0
   -7.7561   -0.8389  -13.7524 C   0  0  0  0  0  0  0  0  0  0  0  0
   -7.9737    0.1580  -14.7031 C   0  0  0  0  0  0  0  0  0  0  0  0
   -8.9680    1.0942  -14.5234 C   0  0  0  0  0  0  0  0  0  0  0  0
   -9.7944    1.0704  -13.3996 C   0  0  0  0  0  0  0  0  0  0  0  0
  -11.0490    2.3071  -13.2981 S   0  0  0  0  0  0  0  0  0  0  0  0
  -11.2455    2.5938  -11.4930 C   0  0  0  0  0  0  0  0  0  0  0  0
  -11.8068    3.9856  -11.2785 C   0  0  0  0  0  0  0  0  0  0  0  0
   -9.5861    0.0508  -12.4756 C   0  0  0  0  0  0  0  0  0  0  0  0
   -8.5784   -0.8791  -12.6320 C   0  0  0  0  0  0  0  0  0  0  0  0
  -10.3779   -0.0719  -11.3864 F   0  0  0  0  0  0  0  0  0  0  0  0
   -5.7396   -2.0351  -12.9088 C   0  0  0  0  0  0  0  0  0  0  0  0
   -5.7236   -1.2480  -11.3506 S   0  0  0  0  0  0  0  0  0  0  0  0
   -7.3341   -2.5501  -16.2566 C   0  0  0  0  0  0  0  0  0  0  0  0
   -6.9010   -3.4002  -17.2095 C   0  0  0  0  0  0  0  0  0  0  0  0
   -5.4486   -4.2382  -16.7860 S   0  0  0  0  0  0  0  0  0  0  0  0
   -0.5460    4.0750    2.5949 H   0  0  0  0  0  0  0  0  0  0  0  0
   -0.8062    4.2062    5.1679 H   0  0  0  0  0  0  0  0  0  0  0  0
   -1.1258    2.4446    6.7435 H   0  0  0  0  0  0  0  0  0  0  0  0
   -2.9953    3.4131    7.9449 H   0  0  0  0  0  0  0  0  0  0  0  0
   -5.4006    5.5764    9.6871 H   0  0  0  0  0  0  0  0  0  0  0  0
   -4.6937    4.1080    8.9952 H   0  0  0  0  0  0  0  0  0  0  0  0
   -4.5914    6.9172    7.7552 H   0  0  0  0  0  0  0  0  0  0  0  0
   -5.6348    5.6058    7.1973 H   0  0  0  0  0  0  0  0  0  0  0  0
   -3.8852    5.4758    7.0211 H   0  0  0  0  0  0  0  0  0  0  0  0
    1.5666    5.0825    8.7832 H   0  0  0  0  0  0  0  0  0  0  0  0
    3.0675    0.9058    2.6028 H   0  0  0  0  0  0  0  0  0  0  0  0
    4.7667    0.1003    1.0456 H   0  0  0  0  0  0  0  0  0  0  0  0
    9.4596    1.0995   -0.1413 H   0  0  0  0  0  0  0  0  0  0  0  0
    9.3604    1.7513    1.5055 H   0  0  0  0  0  0  0  0  0  0  0  0
    9.0131    3.5522   -0.2142 H   0  0  0  0  0  0  0  0  0  0  0  0
    7.6400    2.6512   -0.8729 H   0  0  0  0  0  0  0  0  0  0  0  0
    7.5565    3.3310    0.7562 H   0  0  0  0  0  0  0  0  0  0  0  0
    6.0816    3.0760    4.7251 H   0  0  0  0  0  0  0  0  0  0  0  0
    5.7222    1.6612    6.3636 H   0  0  0  0  0  0  0  0  0  0  0  0
    9.5184    1.3886   10.8147 H   0  0  0  0  0  0  0  0  0  0  0  0
    5.5838    2.1536   14.7457 H   0  0  0  0  0  0  0  0  0  0  0  0
    3.6974    0.5329   14.8518 H   0  0  0  0  0  0  0  0  0  0  0  0
    5.6321   -0.6381   11.8785 H   0  0  0  0  0  0  0  0  0  0  0  0
    6.4134   -0.1473    7.4965 H   0  0  0  0  0  0  0  0  0  0  0  0
    8.7651   -0.7364    7.4843 H   0  0  0  0  0  0  0  0  0  0  0  0
   10.9341   -0.7278    7.8984 H   0  0  0  0  0  0  0  0  0  0  0  0
   12.2211   -1.9071    8.1480 H   0  0  0  0  0  0  0  0  0  0  0  0
   11.4219   -1.9512    5.7673 H   0  0  0  0  0  0  0  0  0  0  0  0
    9.8110   -2.4208    6.3210 H   0  0  0  0  0  0  0  0  0  0  0  0
   11.1787   -3.4999    6.5841 H   0  0  0  0  0  0  0  0  0  0  0  0
    5.7548   -2.7695   10.8145 H   0  0  0  0  0  0  0  0  0  0  0  0
   -0.4562   -1.2627    8.4357 H   0  0  0  0  0  0  0  0  0  0  0  0
   -2.7896   -0.5496    8.7101 H   0  0  0  0  0  0  0  0  0  0  0  0
   -3.6583    1.8172   12.3558 H   0  0  0  0  0  0  0  0  0  0  0  0
   -3.8567    3.4008   11.5608 H   0  0  0  0  0  0  0  0  0  0  0  0
   -6.0999    1.3718   12.0611 H   0  0  0  0  0  0  0  0  0  0  0  0
   -5.8503    2.8726   12.9634 H   0  0  0  0  0  0  0  0  0  0  0  0
   -6.2948    2.9304   11.2544 H   0  0  0  0  0  0  0  0  0  0  0  0
    0.8008    2.1167   10.7534 H   0  0  0  0  0  0  0  0  0  0  0  0
    0.6965   -0.0202    6.8096 H   0  0  0  0  0  0  0  0  0  0  0  0
    0.2498    0.2292    4.6876 H   0  0  0  0  0  0  0  0  0  0  0  0
   -1.7182   -0.9876    4.1761 H   0  0  0  0  0  0  0  0  0  0  0  0
   -3.2789    0.3056    5.5112 H   0  0  0  0  0  0  0  0  0  0  0  0
   -5.6569    2.6858    7.0047 H   0  0  0  0  0  0  0  0  0  0  0  0
   -4.3602    1.4885    6.9189 H   0  0  0  0  0  0  0  0  0  0  0  0
   -5.6571    0.3102    5.0682 H   0  0  0  0  0  0  0  0  0  0  0  0
   -6.9301    1.5186    5.2351 H   0  0  0  0  0  0  0  0  0  0  0  0
   -6.5905    0.4064    6.5668 H   0  0  0  0  0  0  0  0  0  0  0  0
   -1.6560    2.0987    1.2120 H   0  0  0  0  0  0  0  0  0  0  0  0
    3.1044   -0.4519   -1.3583 H   0  0  0  0  0  0  0  0  0  0  0  0
    5.3301   -1.0174   -2.2370 H   0  0  0  0  0  0  0  0  0  0  0  0
    8.2129   -4.3540    0.1602 H   0  0  0  0  0  0  0  0  0  0  0  0
    7.8159   -2.7378    0.8085 H   0  0  0  0  0  0  0  0  0  0  0  0
    9.7329   -1.7580   -0.4118 H   0  0  0  0  0  0  0  0  0  0  0  0
   10.2967   -3.0633    0.6398 H   0  0  0  0  0  0  0  0  0  0  0  0
   10.1337   -3.3356   -1.1000 H   0  0  0  0  0  0  0  0  0  0  0  0
    3.4730   -3.6218    1.5034 H   0  0  0  0  0  0  0  0  0  0  0  0
    1.2500   -1.8619   -2.0220 H   0  0  0  0  0  0  0  0  0  0  0  0
    0.2021   -2.3042   -4.1444 H   0  0  0  0  0  0  0  0  0  0  0  0
    1.3350   -1.5210   -6.1806 H   0  0  0  0  0  0  0  0  0  0  0  0
    3.3447   -2.8795   -6.5930 H   0  0  0  0  0  0  0  0  0  0  0  0
    2.7254   -7.5377   -7.9536 H   0  0  0  0  0  0  0  0  0  0  0  0
    4.4071   -7.6297   -7.3999 H   0  0  0  0  0  0  0  0  0  0  0  0
    3.7096   -6.8368   -5.1314 H   0  0  0  0  0  0  0  0  0  0  0  0
    2.8623   -8.3271   -5.5677 H   0  0  0  0  0  0  0  0  0  0  0  0
    2.0262   -6.7755   -5.6642 H   0  0  0  0  0  0  0  0  0  0  0  0
   -1.0818   -4.7167   -7.6952 H   0  0  0  0  0  0  0  0  0  0  0  0
   -4.3294    1.5245   -7.7193 H   0  0  0  0  0  0  0  0  0  0  0  0
   -6.2329    2.9933   -7.3901 H   0  0  0  0  0  0  0  0  0  0  0  0
   -8.0075    4.1718   -7.3179 H   0  0  0  0  0  0  0  0  0  0  0  0
   -9.0810    5.0068   -6.1875 H   0  0  0  0  0  0  0  0  0  0  0  0
   -6.9356    6.2798   -6.4691 H   0  0  0  0  0  0  0  0  0  0  0  0
   -7.1541    5.7222   -4.8060 H   0  0  0  0  0  0  0  0  0  0  0  0
   -6.0328    4.8805   -5.8751 H   0  0  0  0  0  0  0  0  0  0  0  0
   -5.3753   -0.6438   -4.1745 H   0  0  0  0  0  0  0  0  0  0  0  0
   -5.0832   -0.6210   -8.6425 H   0  0  0  0  0  0  0  0  0  0  0  0
   -2.9016   -3.4840  -11.8191 H   0  0  0  0  0  0  0  0  0  0  0  0
   -3.7596   -5.6209  -12.5471 H   0  0  0  0  0  0  0  0  0  0  0  0
   -1.9250   -7.1899  -12.7593 H   0  0  0  0  0  0  0  0  0  0  0  0
    1.0567   -9.1689  -13.6079 H   0  0  0  0  0  0  0  0  0  0  0  0
   -0.0316   -8.1629  -12.6436 H   0  0  0  0  0  0  0  0  0  0  0  0
   -0.8521  -10.3035  -14.6912 H   0  0  0  0  0  0  0  0  0  0  0  0
   -0.9887  -10.4651  -12.9364 H   0  0  0  0  0  0  0  0  0  0  0  0
   -2.0008   -9.3037  -13.8041 H   0  0  0  0  0  0  0  0  0  0  0  0
   -2.6981   -3.8467  -16.2997 H   0  0  0  0  0  0  0  0  0  0  0  0
   -7.3342    0.2160  -15.5706 H   0  0  0  0  0  0  0  0  0  0  0  0
   -9.1231    1.8738  -15.2530 H   0  0  0  0  0  0  0  0  0  0  0  0
  -11.9145    1.8333  -11.0933 H   0  0  0  0  0  0  0  0  0  0  0  0
  -10.2595    2.4921  -11.0422 H   0  0  0  0  0  0  0  0  0  0  0  0
  -11.9300    4.1710  -10.2136 H   0  0  0  0  0  0  0  0  0  0  0  0
  -12.7752    4.0848  -11.7635 H   0  0  0  0  0  0  0  0  0  0  0  0
  -11.1367    4.7366  -11.6912 H   0  0  0  0  0  0  0  0  0  0  0  0
   -8.4676   -1.6494  -11.8849 H   0  0  0  0  0  0  0  0  0  0  0  0
   -8.2299   -1.9626  -16.3429 H   0  0  0  0  0  0  0  0  0  0  0  0
   -7.3474   -3.6016  -18.1638 H   0  0  0  0  0  0  0  0  0  0  0  0
  1  2  2  0  0  0  0
  2  3  1  0  0  0  0
  3  4  2  0  0  0  0
  4  5  1  0  0  0  0
  5  6  2  0  0  0  0
  6  7  1  0  0  0  0
  7  8  2  0  0  0  0
  8  9  1  0  0  0  0
  9 10  1  0  0  0  0
 10 11  1  0  0  0  0
  8 12  1  0  0  0  0
 12 13  1  0  0  0  0
 12 14  2  0  0  0  0
  4 15  1  0  0  0  0
 15 16  2  0  0  0  0
 16 17  1  0  0  0  0
 17 18  1  0  0  0  0
 18 19  2  0  0  0  0
 19 20  1  0  0  0  0
 20 21  2  0  0  0  0
 21 22  1  0  0  0  0
 22 23  1  0  0  0  0
 23 24  1  0  0  0  0
 21 25  1  0  0  0  0
 25 26  2  0  0  0  0
 25 27  1  0  0  0  0
 17 28  2  0  0  0  0
 28 29  1  0  0  0  0
 16 30  1  0  0  0  0
 30 31  2  0  0  0  0
 31 32  1  0  0  0  0
 31 33  1  0  0  0  0
 33 34  2  0  0  0  0
 34 35  1  0  0  0  0
 35 36  2  0  0  0  0
 35 37  1  0  0  0  0
 37 38  1  0  0  0  0
 38 39  2  0  0  0  0
 38 40  1  0  0  0  0
 40 41  2  0  0  0  0
 41 42  1  0  0  0  0
 42 43  2  0  0  0  0
 43 44  1  0  0  0  0
 44 45  2  0  0  0  0
 44 46  1  0  0  0  0
 46 47  1  0  0  0  0
 47 48  2  0  0  0  0
 37 49  1  0  0  0  0
 49 50  2  0  0  0  0
 50 51  1  0  0  0  0
 51 52  2  0  0  0  0
 52 53  1  0  0  0  0
 53 54  2  0  0  0  0
 54 55  1  0  0  0  0
 55 56  2  0  0  0  0
 56 57  1  0  0  0  0
 57 58  2  0  0  0  0
 58 59  1  0  0  0  0
 59 60  1  0  0  0  0
 60 61  1  0  0  0  0
 58 62  1  0  0  0  0
 62 63  1  0  0  0  0
 62 64  2  0  0  0  0
 54 65  1  0  0  0  0
 65 66  2  0  0  0  0
 66 67  1  0  0  0  0
 67 68  1  0  0  0  0
 68 69  2  0  0  0  0
 69 70  1  0  0  0  0
 70 71  2  0  0  0  0
 71 72  1  0  0  0  0
 72 73  1  0  0  0  0
 73 74  1  0  0  0  0
 71 75  1  0  0  0  0
 75 76  2  0  0  0  0
 75 77  1  0  0  0  0
 67 78  2  0  0  0  0
 78 79  1  0  0  0  0
 66 80  1  0  0  0  0
 80 81  2  0  0  0  0
 81 82  1  0  0  0  0
 81 83  1  0  0  0  0
 83 84  2  0  0  0  0
 84 85  1  0  0  0  0
 85 86  2  0  0  0  0
 86 87  1  0  0  0  0
 87 88  2  0  0  0  0
 88 89  1  0  0  0  0
 89 90  2  0  0  0  0
 90 91  1  0  0  0  0
 91 92  1  0  0  0  0
 92 93  1  0  0  0  0
 90 94  1  0  0  0  0
 94 95  1  0  0  0  0
 94 96  2  0  0  0  0
 86 97  1  0  0  0  0
 97 98  2  0  0  0  0
 98 99  1  0  0  0  0
 99100  1  0  0  0  0
100101  2  0  0  0  0
101102  1  0  0  0  0
102103  2  0  0  0  0
103104  1  0  0  0  0
104105  1  0  0  0  0
105106  1  0  0  0  0
103107  1  0  0  0  0
107108  2  0  0  0  0
107109  1  0  0  0  0
 99110  2  0  0  0  0
110111  1  0  0  0  0
 98112  1  0  0  0  0
112113  2  0  0  0  0
113114  1  0  0  0  0
113115  1  0  0  0  0
115116  2  0  0  0  0
116117  1  0  0  0  0
117118  2  0  0  0  0
118119  1  0  0  0  0
119120  2  0  0  0  0
120121  1  0  0  0  0
121122  2  0  0  0  0
122123  1  0  0  0  0
123124  1  0  0  0  0
124125  1  0  0  0  0
122126  1  0  0  0  0
126127  1  0  0  0  0
126128  2  0  0  0  0
118129  1  0  0  0  0
129130  2  0  0  0  0
130131  1  0  0  0  0
131132  1  0  0  0  0
132133  2  0  0  0  0
133134  1  0  0  0  0
134135  2  0  0  0  0
135136  1  0  0  0  0
136137  1  0  0  0  0
137138  1  0  0  0  0
135139  1  0  0  0  0
139140  2  0  0  0  0
139141  1  0  0  0  0
131142  2  0  0  0  0
142143  1  0  0  0  0
130144  1  0  0  0  0
144145  2  0  0  0  0
145146  1  0  0  0  0
145147  1  0  0  0  0
147148  2  0  0  0  0
148149  1  0  0  0  0
149150  2  0  0  0  0
150151  1  0  0  0  0
151152  2  0  0  0  0
152153  1  0  0  0  0
153154  2  0  0  0  0
154155  1  0  0  0  0
155156  1  0  0  0  0
156157  1  0  0  0  0
154158  1  0  0  0  0
158159  1  0  0  0  0
158160  2  0  0  0  0
150161  1  0  0  0  0
161162  2  0  0  0  0
162163  1  0  0  0  0
163164  1  0  0  0  0
164165  2  0  0  0  0
165166  1  0  0  0  0
166167  2  0  0  0  0
167168  1  0  0  0  0
168169  1  0  0  0  0
169170  1  0  0  0  0
167171  1  0  0  0  0
171172  2  0  0  0  0
171173  1  0  0  0  0
163174  2  0  0  0  0
174175  1  0  0  0  0
162176  1  0  0  0  0
176177  2  0  0  0  0
177178  1  0  0  0  0
 29  1  1  0  0  0  0
 43 33  1  0  0  0  0
 79 51  1  0  0  0  0
111 83  1  0  0  0  0
143115  1  0  0  0  0
175147  1  0  0  0  0
 28  3  1  0  0  0  0
 40 34  1  0  0  0  0
 47 42  1  0  0  0  0
 78 53  1  0  0  0  0
110 85  1  0  0  0  0
142117  1  0  0  0  0
174149  1  0  0  0  0
 14  5  1  0  0  0  0
 32 15  1  0  0  0  0
 64 55  1  0  0  0  0
 82 65  1  0  0  0  0
 96 87  1  0  0  0  0
114 97  1  0  0  0  0
128119  1  0  0  0  0
146129  1  0  0  0  0
160151  1  0  0  0  0
178161  1  0  0  0  0
 26 18  1  0  0  0  0
 76 68  1  0  0  0  0
108100  1  0  0  0  0
140132  1  0  0  0  0
172164  1  0  0  0  0
  1179  1  0  0  0  0
  2180  1  0  0  0  0
  6181  1  0  0  0  0
  7182  1  0  0  0  0
 10183  1  0  0  0  0
 10184  1  0  0  0  0
 11185  1  0  0  0  0
 11186  1  0  0  0  0
 11187  1  0  0  0  0
 14188  1  0  0  0  0
 19189  1  0  0  0  0
 20190  1  0  0  0  0
 23191  1  0  0  0  0
 23192  1  0  0  0  0
 24193  1  0  0  0  0
 24194  1  0  0  0  0
 24195  1  0  0  0  0
 26196  1  0  0  0  0
 30197  1  0  0  0  0
 41198  1  0  0  0  0
 49199  1  0  0  0  0
 50200  1  0  0  0  0
 52201  1  0  0  0  0
 56202  1  0  0  0  0
 57203  1  0  0  0  0
 60204  1  0  0  0  0
 60205  1  0  0  0  0
 61206  1  0  0  0  0
 61207  1  0  0  0  0
 61208  1  0  0  0  0
 64209  1  0  0  0  0
 69210  1  0  0  0  0
 70211  1  0  0  0  0
 73212  1  0  0  0  0
 73213  1  0  0  0  0
 74214  1  0  0  0  0
 74215  1  0  0  0  0
 74216  1  0  0  0  0
 76217  1  0  0  0  0
 80218  1  0  0  0  0
 84219  1  0  0  0  0
 88220  1  0  0  0  0
 89221  1  0  0  0  0
 92222  1  0  0  0  0
 92223  1  0  0  0  0
 93224  1  0  0  0  0
 93225  1  0  0  0  0
 93226  1  0  0  0  0
 96227  1  0  0  0  0
101228  1  0  0  0  0
102229  1  0  0  0  0
105230  1  0  0  0  0
105231  1  0  0  0  0
106232  1  0  0  0  0
106233  1  0  0  0  0
106234  1  0  0  0  0
108235  1  0  0  0  0
112236  1  0  0  0  0
116237  1  0  0  0  0
120238  1  0  0  0  0
121239  1  0  0  0  0
124240  1  0  0  0  0
124241  1  0  0  0  0
125242  1  0  0  0  0
125243  1  0  0  0  0
125244  1  0  0  0  0
128245  1  0  0  0  0
133246  1  0  0  0  0
134247  1  0  0  0  0
137248  1  0  0  0  0
137249  1  0  0  0  0
138250  1  0  0  0  0
138251  1  0  0  0  0
138252  1  0  0  0  0
140253  1  0  0  0  0
144254  1  0  0  0  0
148255  1  0  0  0  0
152256  1  0  0  0  0
153257  1  0  0  0  0
156258  1  0  0  0  0
156259  1  0  0  0  0
157260  1  0  0  0  0
157261  1  0  0  0  0
157262  1  0  0  0  0
160263  1  0  0  0  0
165264  1  0  0  0  0
166265  1  0  0  0  0
169266  1  0  0  0  0
169267  1  0  0  0  0
170268  1  0  0  0  0
170269  1  0  0  0  0
170270  1  0  0  0  0
172271  1  0  0  0  0
176272  1  0  0  0  0
177273  1  0  0  0  0
M  END
