
  xtb     03012203523D
 energy: -438.387094269390 gnorm: 0.000429403874 xtb: 6.4.1 (unknown)
212237  0     0  0            999 V2000
   -0.1917   -3.3669   12.2172 C   0  0  0  0  0  0  0  0  0  0  0  0
    0.2072   -2.0980   11.9960 C   0  0  0  0  0  0  0  0  0  0  0  0
    0.1559   -1.7348   10.6185 C   0  0  0  0  0  0  0  0  0  0  0  0
    0.5236   -0.5173   10.0265 C   0  0  0  0  0  0  0  0  0  0  0  0
    1.1043    0.5663   10.8033 C   0  0  0  0  0  0  0  0  0  0  0  0
    0.4563    2.1776   10.7441 S   0  0  0  0  0  0  0  0  0  0  0  0
    1.6641    2.7858   11.8230 C   0  0  0  0  0  0  0  0  0  0  0  0
    1.7233    4.2307   12.1760 C   0  0  0  0  0  0  0  0  0  0  0  0
    2.4842    5.0181   11.1062 C   0  0  0  0  0  0  0  0  0  0  0  0
    2.5189    1.7892   12.1895 C   0  0  0  0  0  0  0  0  0  0  0  0
    3.8560    2.0127   13.2419 Cl  0  0  0  0  0  0  0  0  0  0  0  0
    2.2019    0.5280   11.6175 C   0  0  0  0  0  0  0  0  0  0  0  0
    3.1661   -0.8697   11.8697 Cl  0  0  0  0  0  0  0  0  0  0  0  0
    0.3480   -0.4048    8.6531 C   0  0  0  0  0  0  0  0  0  0  0  0
   -0.1330   -1.4670    7.8519 C   0  0  0  0  0  0  0  0  0  0  0  0
   -0.5100   -2.6846    8.4430 C   0  0  0  0  0  0  0  0  0  0  0  0
   -1.0595   -3.7643    7.6392 C   0  0  0  0  0  0  0  0  0  0  0  0
   -0.2415   -4.3570    6.2221 S   0  0  0  0  0  0  0  0  0  0  0  0
   -1.4924   -5.4998    5.8757 C   0  0  0  0  0  0  0  0  0  0  0  0
   -1.4543   -6.3395    4.6476 C   0  0  0  0  0  0  0  0  0  0  0  0
   -2.1228   -5.6049    3.4832 C   0  0  0  0  0  0  0  0  0  0  0  0
   -2.4816   -5.4126    6.8085 C   0  0  0  0  0  0  0  0  0  0  0  0
   -2.2390   -4.4353    7.8110 C   0  0  0  0  0  0  0  0  0  0  0  0
   -3.3810   -4.0862    9.0391 Cl  0  0  0  0  0  0  0  0  0  0  0  0
   -3.8975   -6.3812    6.7911 Cl  0  0  0  0  0  0  0  0  0  0  0  0
   -0.3488   -2.7904    9.8196 C   0  0  0  0  0  0  0  0  0  0  0  0
   -0.6754   -4.2020   10.7832 S   0  0  0  0  0  0  0  0  0  0  0  0
   -0.1717   -1.1129    6.4804 C   0  0  0  0  0  0  0  0  0  0  0  0
    0.2613    0.1541    6.2355 C   0  0  0  0  0  0  0  0  0  0  0  0
    0.7259    0.9986    7.6932 S   0  0  0  0  0  0  0  0  0  0  0  0
    0.3582    0.7522    4.9369 C   0  0  0  0  0  0  0  0  0  0  0  0
    0.6635    0.0898    3.7872 C   0  0  0  0  0  0  0  0  0  0  0  0
    0.6093    0.9081    2.6317 C   0  0  0  0  0  0  0  0  0  0  0  0
    0.9132    0.5594    1.3037 C   0  0  0  0  0  0  0  0  0  0  0  0
    1.5543   -0.7147    1.0124 C   0  0  0  0  0  0  0  0  0  0  0  0
    0.8944   -2.2422    1.5048 S   0  0  0  0  0  0  0  0  0  0  0  0
    2.2687   -3.1157    0.9328 C   0  0  0  0  0  0  0  0  0  0  0  0
    2.3680   -4.5987    1.0309 C   0  0  0  0  0  0  0  0  0  0  0  0
    1.1770   -5.2187    1.7464 C   0  0  0  0  0  0  0  0  0  0  0  0
    3.1919   -2.2563    0.4133 C   0  0  0  0  0  0  0  0  0  0  0  0
    4.7258   -2.7681   -0.1698 Cl  0  0  0  0  0  0  0  0  0  0  0  0
    2.7882   -0.8965    0.4478 C   0  0  0  0  0  0  0  0  0  0  0  0
    3.7936    0.3834   -0.0857 Cl  0  0  0  0  0  0  0  0  0  0  0  0
    0.6966    1.5313    0.3331 C   0  0  0  0  0  0  0  0  0  0  0  0
    0.2457    2.8359    0.6512 C   0  0  0  0  0  0  0  0  0  0  0  0
    0.0387    3.2126    1.9867 C   0  0  0  0  0  0  0  0  0  0  0  0
   -0.3674    4.5608    2.3517 C   0  0  0  0  0  0  0  0  0  0  0  0
   -1.8312    5.2626    1.7251 S   0  0  0  0  0  0  0  0  0  0  0  0
   -1.6201    6.7152    2.6432 C   0  0  0  0  0  0  0  0  0  0  0  0
   -2.6393    7.7997    2.6170 C   0  0  0  0  0  0  0  0  0  0  0  0
   -3.7753    7.5004    3.5984 C   0  0  0  0  0  0  0  0  0  0  0  0
   -0.4794    6.6437    3.3847 C   0  0  0  0  0  0  0  0  0  0  0  0
    0.2348    5.4250    3.2218 C   0  0  0  0  0  0  0  0  0  0  0  0
    1.7345    5.1246    3.9916 Cl  0  0  0  0  0  0  0  0  0  0  0  0
    0.0675    7.8960    4.4210 Cl  0  0  0  0  0  0  0  0  0  0  0  0
    0.2328    2.2349    2.9525 C   0  0  0  0  0  0  0  0  0  0  0  0
    0.0313    2.4475    4.6678 S   0  0  0  0  0  0  0  0  0  0  0  0
    0.1869    3.6656   -0.4965 C   0  0  0  0  0  0  0  0  0  0  0  0
    0.5481    3.0273   -1.6399 C   0  0  0  0  0  0  0  0  0  0  0  0
    0.9507    1.3550   -1.3810 S   0  0  0  0  0  0  0  0  0  0  0  0
    0.7642    3.7037   -2.9127 C   0  0  0  0  0  0  0  0  0  0  0  0
    0.0188    3.5208   -4.0784 C   0  0  0  0  0  0  0  0  0  0  0  0
   -1.0969    2.5752   -4.3854 C   0  0  0  0  0  0  0  0  0  0  0  0
   -1.5526    1.6965   -3.7068 O   0  0  0  0  0  0  0  0  0  0  0  0
   -1.5279    2.9232   -5.6751 N   0  0  0  0  0  0  0  0  0  0  0  0
   -0.7693    3.9665   -6.2321 C   0  0  0  0  0  0  0  0  0  0  0  0
   -0.9524    4.4503   -7.3137 O   0  0  0  0  0  0  0  0  0  0  0  0
    0.2207    4.3331   -5.1988 C   0  0  0  0  0  0  0  0  0  0  0  0
    1.1576    5.3477   -5.2411 C   0  0  0  0  0  0  0  0  0  0  0  0
    1.9284    5.5100   -4.0982 C   0  0  0  0  0  0  0  0  0  0  0  0
    1.7546    4.7040   -2.9751 C   0  0  0  0  0  0  0  0  0  0  0  0
    2.7433    4.9609   -1.9050 C   0  0  0  0  0  0  0  0  0  0  0  0
    2.9478    4.3364   -0.9088 O   0  0  0  0  0  0  0  0  0  0  0  0
    3.7189    6.4085   -2.3453 S   0  0  0  0  0  0  0  0  0  0  0  0
    2.9745    6.5475   -3.9698 C   0  0  0  0  0  0  0  0  0  0  0  0
    3.2907    7.3638   -4.7786 O   0  0  0  0  0  0  0  0  0  0  0  0
   -2.5409    2.3728   -6.4436 C   0  0  0  0  0  0  0  0  0  0  0  0
   -3.4336    1.4488   -6.0866 C   0  0  0  0  0  0  0  0  0  0  0  0
   -4.4520    0.9749   -7.0106 C   0  0  0  0  0  0  0  0  0  0  0  0
   -5.7731    0.8155   -6.5755 C   0  0  0  0  0  0  0  0  0  0  0  0
   -6.3489    1.0815   -5.2345 C   0  0  0  0  0  0  0  0  0  0  0  0
   -5.8599    1.6364   -4.2863 O   0  0  0  0  0  0  0  0  0  0  0  0
   -7.6795    0.6319   -5.3097 N   0  0  0  0  0  0  0  0  0  0  0  0
   -8.0476    0.2510   -6.5954 C   0  0  0  0  0  0  0  0  0  0  0  0
   -9.1407   -0.1118   -6.9336 O   0  0  0  0  0  0  0  0  0  0  0  0
   -6.8023    0.3630   -7.4007 C   0  0  0  0  0  0  0  0  0  0  0  0
   -6.5803    0.0296   -8.7221 C   0  0  0  0  0  0  0  0  0  0  0  0
   -5.2720    0.1593   -9.1681 C   0  0  0  0  0  0  0  0  0  0  0  0
   -4.2290    0.6162   -8.3558 C   0  0  0  0  0  0  0  0  0  0  0  0
   -2.9164    0.6003   -9.0370 C   0  0  0  0  0  0  0  0  0  0  0  0
   -1.8384    0.8818   -8.6104 O   0  0  0  0  0  0  0  0  0  0  0  0
   -3.1317    0.0395  -10.7371 S   0  0  0  0  0  0  0  0  0  0  0  0
   -4.8894   -0.2092  -10.5458 C   0  0  0  0  0  0  0  0  0  0  0  0
   -5.6035   -0.6208  -11.4097 O   0  0  0  0  0  0  0  0  0  0  0  0
   -8.4604    0.3813   -4.1687 C   0  0  0  0  0  0  0  0  0  0  0  0
   -7.9601   -0.2844   -3.1246 C   0  0  0  0  0  0  0  0  0  0  0  0
   -6.6166   -0.8173   -3.0891 C   0  0  0  0  0  0  0  0  0  0  0  0
   -5.7488   -0.8024   -2.0483 C   0  0  0  0  0  0  0  0  0  0  0  0
   -4.4367   -1.2431   -2.3829 C   0  0  0  0  0  0  0  0  0  0  0  0
   -3.2931   -1.2619   -1.5697 C   0  0  0  0  0  0  0  0  0  0  0  0
   -3.3404   -0.8569   -0.1749 C   0  0  0  0  0  0  0  0  0  0  0  0
   -4.0417    0.6534    0.3221 S   0  0  0  0  0  0  0  0  0  0  0  0
   -3.8088    0.3029    1.9994 C   0  0  0  0  0  0  0  0  0  0  0  0
   -4.3098    1.2298    3.0528 C   0  0  0  0  0  0  0  0  0  0  0  0
   -3.1823    2.0615    3.6591 C   0  0  0  0  0  0  0  0  0  0  0  0
   -3.1701   -0.8928    2.1491 C   0  0  0  0  0  0  0  0  0  0  0  0
   -2.7379   -1.5652    3.6662 Cl  0  0  0  0  0  0  0  0  0  0  0  0
   -2.9163   -1.5589    0.9215 C   0  0  0  0  0  0  0  0  0  0  0  0
   -2.2931   -3.1495    0.8612 Cl  0  0  0  0  0  0  0  0  0  0  0  0
   -2.1165   -1.7123   -2.1597 C   0  0  0  0  0  0  0  0  0  0  0  0
   -2.0397   -2.1560   -3.5001 C   0  0  0  0  0  0  0  0  0  0  0  0
   -3.1616   -2.0472   -4.3421 C   0  0  0  0  0  0  0  0  0  0  0  0
   -3.0429   -2.2625   -5.7704 C   0  0  0  0  0  0  0  0  0  0  0  0
   -4.2619   -3.1051   -6.6865 S   0  0  0  0  0  0  0  0  0  0  0  0
   -3.3710   -2.9580   -8.1648 C   0  0  0  0  0  0  0  0  0  0  0  0
   -3.8714   -3.5589   -9.4311 C   0  0  0  0  0  0  0  0  0  0  0  0
   -3.6255   -5.0689   -9.4631 C   0  0  0  0  0  0  0  0  0  0  0  0
   -2.1994   -2.2948   -7.9459 C   0  0  0  0  0  0  0  0  0  0  0  0
   -2.0283   -1.8609   -6.6029 C   0  0  0  0  0  0  0  0  0  0  0  0
   -0.7436   -0.8109   -6.1630 Cl  0  0  0  0  0  0  0  0  0  0  0  0
   -0.9998   -2.0406   -9.1471 Cl  0  0  0  0  0  0  0  0  0  0  0  0
   -4.3451   -1.6428   -3.7361 C   0  0  0  0  0  0  0  0  0  0  0  0
   -5.8809   -1.4966   -4.5390 S   0  0  0  0  0  0  0  0  0  0  0  0
   -0.7403   -2.6285   -3.8230 C   0  0  0  0  0  0  0  0  0  0  0  0
    0.1597   -2.4436   -2.8253 C   0  0  0  0  0  0  0  0  0  0  0  0
   -0.5594   -1.7410   -1.3995 S   0  0  0  0  0  0  0  0  0  0  0  0
    1.5920   -2.6182   -2.9042 C   0  0  0  0  0  0  0  0  0  0  0  0
    2.3425   -3.7353   -3.0594 C   0  0  0  0  0  0  0  0  0  0  0  0
    3.7346   -3.4592   -3.1789 C   0  0  0  0  0  0  0  0  0  0  0  0
    4.8001   -4.3646   -3.2803 C   0  0  0  0  0  0  0  0  0  0  0  0
    4.5875   -5.8029   -3.2489 C   0  0  0  0  0  0  0  0  0  0  0  0
    3.7429   -6.5565   -1.9284 S   0  0  0  0  0  0  0  0  0  0  0  0
    3.9831   -8.1456   -2.5726 C   0  0  0  0  0  0  0  0  0  0  0  0
    3.4295   -9.3457   -1.8876 C   0  0  0  0  0  0  0  0  0  0  0  0
    1.9292   -9.4888   -2.1526 C   0  0  0  0  0  0  0  0  0  0  0  0
    4.6652   -8.0768   -3.7495 C   0  0  0  0  0  0  0  0  0  0  0  0
    5.0844   -9.4450   -4.6960 Cl  0  0  0  0  0  0  0  0  0  0  0  0
    5.0159   -6.7526   -4.1324 C   0  0  0  0  0  0  0  0  0  0  0  0
    5.8240   -6.4053   -5.6027 Cl  0  0  0  0  0  0  0  0  0  0  0  0
    6.0812   -3.8273   -3.3568 C   0  0  0  0  0  0  0  0  0  0  0  0
    6.3404   -2.4355   -3.3446 C   0  0  0  0  0  0  0  0  0  0  0  0
    5.2753   -1.5282   -3.2525 C   0  0  0  0  0  0  0  0  0  0  0  0
    5.4715   -0.0906   -3.1790 C   0  0  0  0  0  0  0  0  0  0  0  0
    6.5745    0.6109   -2.0309 S   0  0  0  0  0  0  0  0  0  0  0  0
    6.1358    2.2275   -2.4628 C   0  0  0  0  0  0  0  0  0  0  0  0
    6.7240    3.3996   -1.7595 C   0  0  0  0  0  0  0  0  0  0  0  0
    6.1926    3.5060   -0.3284 C   0  0  0  0  0  0  0  0  0  0  0  0
    5.1960    2.2029   -3.4481 C   0  0  0  0  0  0  0  0  0  0  0  0
    4.8152    0.8991   -3.8587 C   0  0  0  0  0  0  0  0  0  0  0  0
    3.7138    0.6511   -5.1524 Cl  0  0  0  0  0  0  0  0  0  0  0  0
    4.5200    3.6037   -4.1743 Cl  0  0  0  0  0  0  0  0  0  0  0  0
    3.9969   -2.0692   -3.1630 C   0  0  0  0  0  0  0  0  0  0  0  0
    2.5449   -1.1542   -2.9211 S   0  0  0  0  0  0  0  0  0  0  0  0
    7.7375   -2.1616   -3.4162 C   0  0  0  0  0  0  0  0  0  0  0  0
    8.4886   -3.2809   -3.4480 C   0  0  0  0  0  0  0  0  0  0  0  0
    7.5623   -4.7391   -3.4091 S   0  0  0  0  0  0  0  0  0  0  0  0
   -0.2449   -3.8869   13.1537 H   0  0  0  0  0  0  0  0  0  0  0  0
    0.5220   -1.4275   12.7738 H   0  0  0  0  0  0  0  0  0  0  0  0
    2.2276    4.3376   13.1381 H   0  0  0  0  0  0  0  0  0  0  0  0
    0.7096    4.6249   12.2647 H   0  0  0  0  0  0  0  0  0  0  0  0
    2.5210    6.0708   11.3731 H   0  0  0  0  0  0  0  0  0  0  0  0
    1.9912    4.9178   10.1422 H   0  0  0  0  0  0  0  0  0  0  0  0
    3.5014    4.6455   11.0164 H   0  0  0  0  0  0  0  0  0  0  0  0
   -0.4183   -6.5654    4.3911 H   0  0  0  0  0  0  0  0  0  0  0  0
   -1.9815   -7.2752    4.8422 H   0  0  0  0  0  0  0  0  0  0  0  0
   -3.1648   -5.4012    3.7156 H   0  0  0  0  0  0  0  0  0  0  0  0
   -2.0788   -6.2100    2.5820 H   0  0  0  0  0  0  0  0  0  0  0  0
   -1.6190   -4.6607    3.2944 H   0  0  0  0  0  0  0  0  0  0  0  0
   -0.5280   -1.7616    5.7027 H   0  0  0  0  0  0  0  0  0  0  0  0
    0.9231   -0.9518    3.7738 H   0  0  0  0  0  0  0  0  0  0  0  0
    2.4539   -5.0095    0.0200 H   0  0  0  0  0  0  0  0  0  0  0  0
    3.2948   -4.8514    1.5543 H   0  0  0  0  0  0  0  0  0  0  0  0
    1.2874   -6.2987    1.7904 H   0  0  0  0  0  0  0  0  0  0  0  0
    0.2552   -4.9847    1.2193 H   0  0  0  0  0  0  0  0  0  0  0  0
    1.1007   -4.8335    2.7608 H   0  0  0  0  0  0  0  0  0  0  0  0
   -3.0461    7.8948    1.6087 H   0  0  0  0  0  0  0  0  0  0  0  0
   -2.1568    8.7394    2.8915 H   0  0  0  0  0  0  0  0  0  0  0  0
   -4.5076    8.3028    3.5774 H   0  0  0  0  0  0  0  0  0  0  0  0
   -4.2685    6.5688    3.3310 H   0  0  0  0  0  0  0  0  0  0  0  0
   -3.3852    7.4104    4.6090 H   0  0  0  0  0  0  0  0  0  0  0  0
   -0.0916    4.7037   -0.4645 H   0  0  0  0  0  0  0  0  0  0  0  0
    1.2869    5.9766   -6.1074 H   0  0  0  0  0  0  0  0  0  0  0  0
   -2.5573    2.8275   -7.4265 H   0  0  0  0  0  0  0  0  0  0  0  0
   -3.4795    1.0727   -5.0747 H   0  0  0  0  0  0  0  0  0  0  0  0
   -7.3636   -0.3232   -9.3734 H   0  0  0  0  0  0  0  0  0  0  0  0
   -9.4767    0.7416   -4.2103 H   0  0  0  0  0  0  0  0  0  0  0  0
   -8.5545   -0.3971   -2.2304 H   0  0  0  0  0  0  0  0  0  0  0  0
   -6.0189   -0.4322   -1.0766 H   0  0  0  0  0  0  0  0  0  0  0  0
   -5.0595    1.8893    2.6135 H   0  0  0  0  0  0  0  0  0  0  0  0
   -4.7833    0.6392    3.8411 H   0  0  0  0  0  0  0  0  0  0  0  0
   -3.5767    2.7423    4.4082 H   0  0  0  0  0  0  0  0  0  0  0  0
   -2.4572    1.4072    4.1331 H   0  0  0  0  0  0  0  0  0  0  0  0
   -2.6849    2.6422    2.8865 H   0  0  0  0  0  0  0  0  0  0  0  0
   -4.9421   -3.3653   -9.5279 H   0  0  0  0  0  0  0  0  0  0  0  0
   -3.3538   -3.0881  -10.2690 H   0  0  0  0  0  0  0  0  0  0  0  0
   -3.9984   -5.4848  -10.3947 H   0  0  0  0  0  0  0  0  0  0  0  0
   -4.1365   -5.5518   -8.6336 H   0  0  0  0  0  0  0  0  0  0  0  0
   -2.5615   -5.2780   -9.3880 H   0  0  0  0  0  0  0  0  0  0  0  0
   -0.4810   -3.0832   -4.7605 H   0  0  0  0  0  0  0  0  0  0  0  0
    1.9264   -4.7260   -3.0805 H   0  0  0  0  0  0  0  0  0  0  0  0
    3.6008   -9.2619   -0.8125 H   0  0  0  0  0  0  0  0  0  0  0  0
    3.9540  -10.2281   -2.2574 H   0  0  0  0  0  0  0  0  0  0  0  0
    1.5444  -10.3725   -1.6509 H   0  0  0  0  0  0  0  0  0  0  0  0
    1.7424   -9.5853   -3.2191 H   0  0  0  0  0  0  0  0  0  0  0  0
    1.3956   -8.6162   -1.7827 H   0  0  0  0  0  0  0  0  0  0  0  0
    6.4735    4.3050   -2.3154 H   0  0  0  0  0  0  0  0  0  0  0  0
    7.8116    3.2980   -1.7337 H   0  0  0  0  0  0  0  0  0  0  0  0
    5.1119    3.6258   -0.3301 H   0  0  0  0  0  0  0  0  0  0  0  0
    6.6359    4.3645    0.1684 H   0  0  0  0  0  0  0  0  0  0  0  0
    6.4414    2.6085    0.2335 H   0  0  0  0  0  0  0  0  0  0  0  0
    8.1465   -1.1684   -3.4403 H   0  0  0  0  0  0  0  0  0  0  0  0
    9.5573   -3.3554   -3.4983 H   0  0  0  0  0  0  0  0  0  0  0  0
  1  2  2  0  0  0  0
  2  3  1  0  0  0  0
  3  4  2  0  0  0  0
  4  5  1  0  0  0  0
  5  6  1  0  0  0  0
  6  7  1  0  0  0  0
  7  8  1  0  0  0  0
  8  9  1  0  0  0  0
  7 10  2  0  0  0  0
 10 11  1  0  0  0  0
 10 12  1  0  0  0  0
 12 13  1  0  0  0  0
  4 14  1  0  0  0  0
 14 15  2  0  0  0  0
 15 16  1  0  0  0  0
 16 17  1  0  0  0  0
 17 18  1  0  0  0  0
 18 19  1  0  0  0  0
 19 20  1  0  0  0  0
 20 21  1  0  0  0  0
 19 22  2  0  0  0  0
 22 23  1  0  0  0  0
 23 24  1  0  0  0  0
 22 25  1  0  0  0  0
 16 26  2  0  0  0  0
 26 27  1  0  0  0  0
 15 28  1  0  0  0  0
 28 29  2  0  0  0  0
 29 30  1  0  0  0  0
 29 31  1  0  0  0  0
 31 32  2  0  0  0  0
 32 33  1  0  0  0  0
 33 34  2  0  0  0  0
 34 35  1  0  0  0  0
 35 36  1  0  0  0  0
 36 37  1  0  0  0  0
 37 38  1  0  0  0  0
 38 39  1  0  0  0  0
 37 40  2  0  0  0  0
 40 41  1  0  0  0  0
 40 42  1  0  0  0  0
 42 43  1  0  0  0  0
 34 44  1  0  0  0  0
 44 45  2  0  0  0  0
 45 46  1  0  0  0  0
 46 47  1  0  0  0  0
 47 48  1  0  0  0  0
 48 49  1  0  0  0  0
 49 50  1  0  0  0  0
 50 51  1  0  0  0  0
 49 52  2  0  0  0  0
 52 53  1  0  0  0  0
 53 54  1  0  0  0  0
 52 55  1  0  0  0  0
 46 56  2  0  0  0  0
 56 57  1  0  0  0  0
 45 58  1  0  0  0  0
 58 59  2  0  0  0  0
 59 60  1  0  0  0  0
 59 61  1  0  0  0  0
 61 62  2  0  0  0  0
 62 63  1  0  0  0  0
 63 64  2  0  0  0  0
 63 65  1  0  0  0  0
 65 66  1  0  0  0  0
 66 67  2  0  0  0  0
 66 68  1  0  0  0  0
 68 69  2  0  0  0  0
 69 70  1  0  0  0  0
 70 71  2  0  0  0  0
 71 72  1  0  0  0  0
 72 73  2  0  0  0  0
 72 74  1  0  0  0  0
 74 75  1  0  0  0  0
 75 76  2  0  0  0  0
 65 77  1  0  0  0  0
 77 78  2  0  0  0  0
 78 79  1  0  0  0  0
 79 80  2  0  0  0  0
 80 81  1  0  0  0  0
 81 82  2  0  0  0  0
 81 83  1  0  0  0  0
 83 84  1  0  0  0  0
 84 85  2  0  0  0  0
 84 86  1  0  0  0  0
 86 87  2  0  0  0  0
 87 88  1  0  0  0  0
 88 89  2  0  0  0  0
 89 90  1  0  0  0  0
 90 91  2  0  0  0  0
 90 92  1  0  0  0  0
 92 93  1  0  0  0  0
 93 94  2  0  0  0  0
 83 95  1  0  0  0  0
 95 96  2  0  0  0  0
 96 97  1  0  0  0  0
 97 98  2  0  0  0  0
 98 99  1  0  0  0  0
 99100  2  0  0  0  0
100101  1  0  0  0  0
101102  1  0  0  0  0
102103  1  0  0  0  0
103104  1  0  0  0  0
104105  1  0  0  0  0
103106  2  0  0  0  0
106107  1  0  0  0  0
106108  1  0  0  0  0
108109  1  0  0  0  0
100110  1  0  0  0  0
110111  2  0  0  0  0
111112  1  0  0  0  0
112113  1  0  0  0  0
113114  1  0  0  0  0
114115  1  0  0  0  0
115116  1  0  0  0  0
116117  1  0  0  0  0
115118  2  0  0  0  0
118119  1  0  0  0  0
119120  1  0  0  0  0
118121  1  0  0  0  0
112122  2  0  0  0  0
122123  1  0  0  0  0
111124  1  0  0  0  0
124125  2  0  0  0  0
125126  1  0  0  0  0
125127  1  0  0  0  0
127128  2  0  0  0  0
128129  1  0  0  0  0
129130  2  0  0  0  0
130131  1  0  0  0  0
131132  1  0  0  0  0
132133  1  0  0  0  0
133134  1  0  0  0  0
134135  1  0  0  0  0
133136  2  0  0  0  0
136137  1  0  0  0  0
136138  1  0  0  0  0
138139  1  0  0  0  0
130140  1  0  0  0  0
140141  2  0  0  0  0
141142  1  0  0  0  0
142143  1  0  0  0  0
143144  1  0  0  0  0
144145  1  0  0  0  0
145146  1  0  0  0  0
146147  1  0  0  0  0
145148  2  0  0  0  0
148149  1  0  0  0  0
149150  1  0  0  0  0
148151  1  0  0  0  0
142152  2  0  0  0  0
152153  1  0  0  0  0
141154  1  0  0  0  0
154155  2  0  0  0  0
155156  1  0  0  0  0
 27  1  1  0  0  0  0
 57 31  1  0  0  0  0
 71 61  1  0  0  0  0
 89 79  1  0  0  0  0
123 97  1  0  0  0  0
153127  1  0  0  0  0
 26  3  1  0  0  0  0
 56 33  1  0  0  0  0
 68 62  1  0  0  0  0
 75 70  1  0  0  0  0
 86 80  1  0  0  0  0
 93 88  1  0  0  0  0
122 99  1  0  0  0  0
152129  1  0  0  0  0
 12  5  2  0  0  0  0
 30 14  1  0  0  0  0
 42 35  2  0  0  0  0
 60 44  1  0  0  0  0
108101  2  0  0  0  0
126110  1  0  0  0  0
138131  2  0  0  0  0
156140  1  0  0  0  0
 23 17  2  0  0  0  0
 53 47  2  0  0  0  0
119113  2  0  0  0  0
149143  2  0  0  0  0
  1157  1  0  0  0  0
  2158  1  0  0  0  0
  8159  1  0  0  0  0
  8160  1  0  0  0  0
  9161  1  0  0  0  0
  9162  1  0  0  0  0
  9163  1  0  0  0  0
 20164  1  0  0  0  0
 20165  1  0  0  0  0
 21166  1  0  0  0  0
 21167  1  0  0  0  0
 21168  1  0  0  0  0
 28169  1  0  0  0  0
 32170  1  0  0  0  0
 38171  1  0  0  0  0
 38172  1  0  0  0  0
 39173  1  0  0  0  0
 39174  1  0  0  0  0
 39175  1  0  0  0  0
 50176  1  0  0  0  0
 50177  1  0  0  0  0
 51178  1  0  0  0  0
 51179  1  0  0  0  0
 51180  1  0  0  0  0
 58181  1  0  0  0  0
 69182  1  0  0  0  0
 77183  1  0  0  0  0
 78184  1  0  0  0  0
 87185  1  0  0  0  0
 95186  1  0  0  0  0
 96187  1  0  0  0  0
 98188  1  0  0  0  0
104189  1  0  0  0  0
104190  1  0  0  0  0
105191  1  0  0  0  0
105192  1  0  0  0  0
105193  1  0  0  0  0
116194  1  0  0  0  0
116195  1  0  0  0  0
117196  1  0  0  0  0
117197  1  0  0  0  0
117198  1  0  0  0  0
124199  1  0  0  0  0
128200  1  0  0  0  0
134201  1  0  0  0  0
134202  1  0  0  0  0
135203  1  0  0  0  0
135204  1  0  0  0  0
135205  1  0  0  0  0
146206  1  0  0  0  0
146207  1  0  0  0  0
147208  1  0  0  0  0
147209  1  0  0  0  0
147210  1  0  0  0  0
154211  1  0  0  0  0
155212  1  0  0  0  0
M  END
