
  xtb     03032208553D
 energy: -473.166121278125 gnorm: 0.000376915990 xtb: 6.4.1 (unknown)
233260  0     0  0            999 V2000
    3.8641   -3.1261   11.3173 C   0  0  0  0  0  0  0  0  0  0  0  0
    4.2061   -2.7406   10.0710 C   0  0  0  0  0  0  0  0  0  0  0  0
    3.1766   -2.9800    9.1139 C   0  0  0  0  0  0  0  0  0  0  0  0
    3.1605   -2.6411    7.7500 C   0  0  0  0  0  0  0  0  0  0  0  0
    4.2817   -1.9355    7.1477 C   0  0  0  0  0  0  0  0  0  0  0  0
    5.9087   -2.5386    7.2369 S   0  0  0  0  0  0  0  0  0  0  0  0
    6.5571   -1.1390    6.4497 C   0  0  0  0  0  0  0  0  0  0  0  0
    8.0261   -0.9655    6.2862 C   0  0  0  0  0  0  0  0  0  0  0  0
    8.7039   -0.7206    7.6354 C   0  0  0  0  0  0  0  0  0  0  0  0
    5.5551   -0.2760    6.1227 C   0  0  0  0  0  0  0  0  0  0  0  0
    5.7957    1.2208    5.3204 Cl  0  0  0  0  0  0  0  0  0  0  0  0
    4.2646   -0.7222    6.5179 C   0  0  0  0  0  0  0  0  0  0  0  0
    2.8592    0.2425    6.3258 Cl  0  0  0  0  0  0  0  0  0  0  0  0
    2.0036   -2.9344    7.0382 C   0  0  0  0  0  0  0  0  0  0  0  0
    0.8594   -3.5013    7.6511 C   0  0  0  0  0  0  0  0  0  0  0  0
    0.8654   -3.8258    9.0169 C   0  0  0  0  0  0  0  0  0  0  0  0
   -0.3205   -4.3620    9.6641 C   0  0  0  0  0  0  0  0  0  0  0  0
   -1.8550   -3.5509    9.5263 S   0  0  0  0  0  0  0  0  0  0  0  0
   -2.6563   -4.7237   10.5165 C   0  0  0  0  0  0  0  0  0  0  0  0
   -4.1076   -4.5999   10.8254 C   0  0  0  0  0  0  0  0  0  0  0  0
   -4.3944   -3.3683   11.6849 C   0  0  0  0  0  0  0  0  0  0  0  0
   -1.7720   -5.6749   10.9282 C   0  0  0  0  0  0  0  0  0  0  0  0
   -0.4489   -5.4752   10.4467 C   0  0  0  0  0  0  0  0  0  0  0  0
    0.8147   -6.5897   10.7570 Cl  0  0  0  0  0  0  0  0  0  0  0  0
   -2.1886   -7.0091   11.9240 Cl  0  0  0  0  0  0  0  0  0  0  0  0
    2.0382   -3.5678    9.7167 C   0  0  0  0  0  0  0  0  0  0  0  0
    2.2783   -3.8024   11.4237 S   0  0  0  0  0  0  0  0  0  0  0  0
   -0.2039   -3.6589    6.7320 C   0  0  0  0  0  0  0  0  0  0  0  0
    0.0944   -3.2492    5.4678 C   0  0  0  0  0  0  0  0  0  0  0  0
    1.7390   -2.6668    5.3342 S   0  0  0  0  0  0  0  0  0  0  0  0
   -0.8573   -3.1467    4.4046 C   0  0  0  0  0  0  0  0  0  0  0  0
   -0.7081   -3.0840    3.0530 C   0  0  0  0  0  0  0  0  0  0  0  0
   -1.9265   -2.8393    2.3635 C   0  0  0  0  0  0  0  0  0  0  0  0
   -2.1558   -2.7227    0.9793 C   0  0  0  0  0  0  0  0  0  0  0  0
   -1.1632   -3.0342   -0.0319 C   0  0  0  0  0  0  0  0  0  0  0  0
    0.4640   -2.4234   -0.0047 S   0  0  0  0  0  0  0  0  0  0  0  0
    0.8499   -3.1423   -1.5302 C   0  0  0  0  0  0  0  0  0  0  0  0
    2.1804   -2.9592   -2.1684 C   0  0  0  0  0  0  0  0  0  0  0  0
    3.3218   -3.0679   -1.1653 C   0  0  0  0  0  0  0  0  0  0  0  0
   -0.2211   -3.8347   -2.0087 C   0  0  0  0  0  0  0  0  0  0  0  0
   -0.2225   -4.6846   -3.4997 Cl  0  0  0  0  0  0  0  0  0  0  0  0
   -1.3593   -3.7827   -1.1630 C   0  0  0  0  0  0  0  0  0  0  0  0
   -2.7796   -4.6782   -1.5047 Cl  0  0  0  0  0  0  0  0  0  0  0  0
   -3.4154   -2.2717    0.5915 C   0  0  0  0  0  0  0  0  0  0  0  0
   -4.4779   -2.0477    1.4995 C   0  0  0  0  0  0  0  0  0  0  0  0
   -4.3038   -2.3529    2.8607 C   0  0  0  0  0  0  0  0  0  0  0  0
   -5.4055   -2.2947    3.8002 C   0  0  0  0  0  0  0  0  0  0  0  0
   -5.2365   -1.5570    5.3660 S   0  0  0  0  0  0  0  0  0  0  0  0
   -6.8552   -1.9653    5.8221 C   0  0  0  0  0  0  0  0  0  0  0  0
   -7.3611   -1.6481    7.1858 C   0  0  0  0  0  0  0  0  0  0  0  0
   -6.6715   -2.5195    8.2382 C   0  0  0  0  0  0  0  0  0  0  0  0
   -7.4794   -2.6300    4.8090 C   0  0  0  0  0  0  0  0  0  0  0  0
   -6.6651   -2.8139    3.6593 C   0  0  0  0  0  0  0  0  0  0  0  0
   -7.2027   -3.6940    2.2877 Cl  0  0  0  0  0  0  0  0  0  0  0  0
   -9.0936   -3.2078    4.8897 Cl  0  0  0  0  0  0  0  0  0  0  0  0
   -3.0157   -2.6894    3.2578 C   0  0  0  0  0  0  0  0  0  0  0  0
   -2.5287   -2.9560    4.9014 S   0  0  0  0  0  0  0  0  0  0  0  0
   -5.5811   -1.4100    0.8842 C   0  0  0  0  0  0  0  0  0  0  0  0
   -5.3860   -1.1524   -0.4410 C   0  0  0  0  0  0  0  0  0  0  0  0
   -3.8438   -1.7508   -1.0123 S   0  0  0  0  0  0  0  0  0  0  0  0
   -6.1707   -0.3259   -1.2965 C   0  0  0  0  0  0  0  0  0  0  0  0
   -5.8786    0.0278   -2.5807 C   0  0  0  0  0  0  0  0  0  0  0  0
   -6.6454    1.1176   -3.0562 C   0  0  0  0  0  0  0  0  0  0  0  0
   -6.4887    1.8184   -4.2673 C   0  0  0  0  0  0  0  0  0  0  0  0
   -5.5443    1.4212   -5.2933 C   0  0  0  0  0  0  0  0  0  0  0  0
   -3.9093    0.9547   -4.9170 S   0  0  0  0  0  0  0  0  0  0  0  0
   -3.4892    0.7758   -6.5838 C   0  0  0  0  0  0  0  0  0  0  0  0
   -2.1617    0.2485   -7.0021 C   0  0  0  0  0  0  0  0  0  0  0  0
   -2.2649   -1.2410   -7.3398 C   0  0  0  0  0  0  0  0  0  0  0  0
   -4.5577    1.0738   -7.3768 C   0  0  0  0  0  0  0  0  0  0  0  0
   -4.5132    1.0161   -9.0911 Cl  0  0  0  0  0  0  0  0  0  0  0  0
   -5.7194    1.4470   -6.6524 C   0  0  0  0  0  0  0  0  0  0  0  0
   -7.2090    1.7898   -7.4284 Cl  0  0  0  0  0  0  0  0  0  0  0  0
   -7.1603    3.0312   -4.3629 C   0  0  0  0  0  0  0  0  0  0  0  0
   -8.0040    3.5324   -3.3476 C   0  0  0  0  0  0  0  0  0  0  0  0
   -8.3249    2.7314   -2.2343 C   0  0  0  0  0  0  0  0  0  0  0  0
   -9.3168    3.1716   -1.2786 C   0  0  0  0  0  0  0  0  0  0  0  0
   -9.1244    2.9686    0.4386 S   0  0  0  0  0  0  0  0  0  0  0  0
  -10.6545    3.7006    0.7778 C   0  0  0  0  0  0  0  0  0  0  0  0
  -11.1642    3.8057    2.1723 C   0  0  0  0  0  0  0  0  0  0  0  0
  -11.7892    2.4834    2.6235 C   0  0  0  0  0  0  0  0  0  0  0  0
  -11.2752    4.0620   -0.3814 C   0  0  0  0  0  0  0  0  0  0  0  0
  -10.5212    3.7731   -1.5490 C   0  0  0  0  0  0  0  0  0  0  0  0
  -11.1271    4.0840   -3.1250 Cl  0  0  0  0  0  0  0  0  0  0  0  0
  -12.8208    4.8035   -0.4470 Cl  0  0  0  0  0  0  0  0  0  0  0  0
   -7.5799    1.5652   -2.0885 C   0  0  0  0  0  0  0  0  0  0  0  0
   -7.5253    0.5793   -0.6535 S   0  0  0  0  0  0  0  0  0  0  0  0
   -8.1831    4.9407   -3.4547 C   0  0  0  0  0  0  0  0  0  0  0  0
   -7.5073    5.4795   -4.4999 C   0  0  0  0  0  0  0  0  0  0  0  0
   -6.7967    4.2621   -5.5380 S   0  0  0  0  0  0  0  0  0  0  0  0
   -6.9606    6.8246   -4.5981 C   0  0  0  0  0  0  0  0  0  0  0  0
   -5.5928    6.9532   -4.3376 C   0  0  0  0  0  0  0  0  0  0  0  0
   -4.6366    5.9088   -3.8998 C   0  0  0  0  0  0  0  0  0  0  0  0
   -4.8402    4.7734   -3.5594 O   0  0  0  0  0  0  0  0  0  0  0  0
   -3.3907    6.5325   -3.8714 N   0  0  0  0  0  0  0  0  0  0  0  0
   -3.4681    7.9042   -4.1076 C   0  0  0  0  0  0  0  0  0  0  0  0
   -2.5484    8.6734   -4.0753 O   0  0  0  0  0  0  0  0  0  0  0  0
   -4.9097    8.1658   -4.4104 C   0  0  0  0  0  0  0  0  0  0  0  0
   -5.5705    9.3399   -4.7298 C   0  0  0  0  0  0  0  0  0  0  0  0
   -6.9392    9.2333   -4.9595 C   0  0  0  0  0  0  0  0  0  0  0  0
   -7.6242    8.0173   -4.8970 C   0  0  0  0  0  0  0  0  0  0  0  0
   -9.0667    8.1020   -5.1868 C   0  0  0  0  0  0  0  0  0  0  0  0
   -9.8683    7.2199   -5.1984 O   0  0  0  0  0  0  0  0  0  0  0  0
   -9.4780    9.8215   -5.5404 S   0  0  0  0  0  0  0  0  0  0  0  0
   -7.7910   10.3922   -5.3047 C   0  0  0  0  0  0  0  0  0  0  0  0
   -7.4560   11.5310   -5.4208 O   0  0  0  0  0  0  0  0  0  0  0  0
   -2.2324    5.7762   -3.6101 C   0  0  0  0  0  0  0  0  0  0  0  0
   -2.0258    4.6436   -4.2854 C   0  0  0  0  0  0  0  0  0  0  0  0
   -0.9667    3.6970   -4.0656 C   0  0  0  0  0  0  0  0  0  0  0  0
   -0.3912    2.9164   -5.0223 C   0  0  0  0  0  0  0  0  0  0  0  0
    0.6469    2.0861   -4.5308 C   0  0  0  0  0  0  0  0  0  0  0  0
    1.4995    1.2294   -5.2501 C   0  0  0  0  0  0  0  0  0  0  0  0
    1.3230    0.9545   -6.6649 C   0  0  0  0  0  0  0  0  0  0  0  0
    1.1250    2.2079   -7.8537 S   0  0  0  0  0  0  0  0  0  0  0  0
    0.9788    1.0707   -9.1493 C   0  0  0  0  0  0  0  0  0  0  0  0
    0.6929    1.5119  -10.5418 C   0  0  0  0  0  0  0  0  0  0  0  0
   -0.8168    1.5981  -10.7838 C   0  0  0  0  0  0  0  0  0  0  0  0
    1.0749   -0.2027   -8.6728 C   0  0  0  0  0  0  0  0  0  0  0  0
    0.9613   -1.6026   -9.6607 Cl  0  0  0  0  0  0  0  0  0  0  0  0
    1.2742   -0.2743   -7.2687 C   0  0  0  0  0  0  0  0  0  0  0  0
    1.3189   -1.7697   -6.4294 Cl  0  0  0  0  0  0  0  0  0  0  0  0
    2.5301    0.6326   -4.5326 C   0  0  0  0  0  0  0  0  0  0  0  0
    2.6448    0.7168   -3.1225 C   0  0  0  0  0  0  0  0  0  0  0  0
    1.6717    1.4207   -2.3841 C   0  0  0  0  0  0  0  0  0  0  0  0
    1.5422    1.2611   -0.9468 C   0  0  0  0  0  0  0  0  0  0  0  0
    2.8876    1.3046    0.1539 S   0  0  0  0  0  0  0  0  0  0  0  0
    1.9181    0.8282    1.5050 C   0  0  0  0  0  0  0  0  0  0  0  0
    2.5423    0.5257    2.8198 C   0  0  0  0  0  0  0  0  0  0  0  0
    3.3545   -0.7680    2.7303 C   0  0  0  0  0  0  0  0  0  0  0  0
    0.6223    0.6716    1.1162 C   0  0  0  0  0  0  0  0  0  0  0  0
    0.4025    0.9156   -0.2664 C   0  0  0  0  0  0  0  0  0  0  0  0
   -1.1281    0.6418   -0.9932 Cl  0  0  0  0  0  0  0  0  0  0  0  0
   -0.6429    0.1809    2.1682 Cl  0  0  0  0  0  0  0  0  0  0  0  0
    0.7673    2.1808   -3.1216 C   0  0  0  0  0  0  0  0  0  0  0  0
   -0.3165    3.3813   -2.4761 S   0  0  0  0  0  0  0  0  0  0  0  0
    3.7886    0.0259   -2.6520 C   0  0  0  0  0  0  0  0  0  0  0  0
    4.5376   -0.5333   -3.6467 C   0  0  0  0  0  0  0  0  0  0  0  0
    3.8418   -0.2738   -5.2269 S   0  0  0  0  0  0  0  0  0  0  0  0
    5.7566   -1.2658   -3.5015 C   0  0  0  0  0  0  0  0  0  0  0  0
    6.5686   -1.3116   -2.4058 C   0  0  0  0  0  0  0  0  0  0  0  0
    7.7086   -2.1338   -2.5855 C   0  0  0  0  0  0  0  0  0  0  0  0
    8.7332   -2.4104   -1.6657 C   0  0  0  0  0  0  0  0  0  0  0  0
    8.6975   -1.8820   -0.3118 C   0  0  0  0  0  0  0  0  0  0  0  0
   10.0266   -0.9750    0.3440 S   0  0  0  0  0  0  0  0  0  0  0  0
    9.2381   -0.7692    1.8692 C   0  0  0  0  0  0  0  0  0  0  0  0
    9.8786    0.0049    2.9689 C   0  0  0  0  0  0  0  0  0  0  0  0
    9.2245    1.3782    3.1384 C   0  0  0  0  0  0  0  0  0  0  0  0
    8.0137   -1.3690    1.8546 C   0  0  0  0  0  0  0  0  0  0  0  0
    6.9296   -1.3965    3.1855 Cl  0  0  0  0  0  0  0  0  0  0  0  0
    7.7049   -1.9998    0.6210 C   0  0  0  0  0  0  0  0  0  0  0  0
    6.2566   -2.8900    0.3880 Cl  0  0  0  0  0  0  0  0  0  0  0  0
    9.7735   -3.2196   -2.1048 C   0  0  0  0  0  0  0  0  0  0  0  0
    9.8147   -3.7882   -3.3994 C   0  0  0  0  0  0  0  0  0  0  0  0
    8.7848   -3.5241   -4.3147 C   0  0  0  0  0  0  0  0  0  0  0  0
    8.7862   -4.1014   -5.6506 C   0  0  0  0  0  0  0  0  0  0  0  0
    8.8692   -5.8223   -5.8861 S   0  0  0  0  0  0  0  0  0  0  0  0
    8.7810   -5.6707   -7.6084 C   0  0  0  0  0  0  0  0  0  0  0  0
    8.8492   -6.8690   -8.4892 C   0  0  0  0  0  0  0  0  0  0  0  0
   10.2884   -7.3715   -8.6231 C   0  0  0  0  0  0  0  0  0  0  0  0
    8.7053   -4.3574   -7.9635 C   0  0  0  0  0  0  0  0  0  0  0  0
    8.6998   -3.4651   -6.8567 C   0  0  0  0  0  0  0  0  0  0  0  0
    8.6702   -1.7623   -7.0486 Cl  0  0  0  0  0  0  0  0  0  0  0  0
    8.6182   -3.8058   -9.5860 Cl  0  0  0  0  0  0  0  0  0  0  0  0
    7.7551   -2.6961   -3.8857 C   0  0  0  0  0  0  0  0  0  0  0  0
    6.3651   -2.2364   -4.8229 S   0  0  0  0  0  0  0  0  0  0  0  0
   10.9859   -4.5791   -3.5878 C   0  0  0  0  0  0  0  0  0  0  0  0
   11.7716   -4.6189   -2.4928 C   0  0  0  0  0  0  0  0  0  0  0  0
   11.1553   -3.7025   -1.1614 S   0  0  0  0  0  0  0  0  0  0  0  0
    4.4534   -3.0590   12.2108 H   0  0  0  0  0  0  0  0  0  0  0  0
    5.1530   -2.2957    9.8282 H   0  0  0  0  0  0  0  0  0  0  0  0
    8.4507   -1.8607    5.8264 H   0  0  0  0  0  0  0  0  0  0  0  0
    8.1984   -0.1132    5.6282 H   0  0  0  0  0  0  0  0  0  0  0  0
    8.5427   -1.5670    8.2989 H   0  0  0  0  0  0  0  0  0  0  0  0
    9.7732   -0.5856    7.4967 H   0  0  0  0  0  0  0  0  0  0  0  0
    8.2989    0.1724    8.1052 H   0  0  0  0  0  0  0  0  0  0  0  0
   -4.4261   -5.5022   11.3495 H   0  0  0  0  0  0  0  0  0  0  0  0
   -4.6707   -4.5237    9.8920 H   0  0  0  0  0  0  0  0  0  0  0  0
   -4.0849   -2.4653   11.1639 H   0  0  0  0  0  0  0  0  0  0  0  0
   -5.4577   -3.3023   11.8984 H   0  0  0  0  0  0  0  0  0  0  0  0
   -3.8536   -3.4295   12.6259 H   0  0  0  0  0  0  0  0  0  0  0  0
   -1.1657   -4.0609    6.9921 H   0  0  0  0  0  0  0  0  0  0  0  0
    0.2440   -3.1837    2.5640 H   0  0  0  0  0  0  0  0  0  0  0  0
    2.2115   -1.9743   -2.6441 H   0  0  0  0  0  0  0  0  0  0  0  0
    2.2920   -3.7111   -2.9522 H   0  0  0  0  0  0  0  0  0  0  0  0
    3.3116   -4.0414   -0.6806 H   0  0  0  0  0  0  0  0  0  0  0  0
    4.2743   -2.9411   -1.6720 H   0  0  0  0  0  0  0  0  0  0  0  0
    3.2270   -2.3011   -0.3994 H   0  0  0  0  0  0  0  0  0  0  0  0
   -8.4383   -1.8195    7.2074 H   0  0  0  0  0  0  0  0  0  0  0  0
   -7.1704   -0.5964    7.4097 H   0  0  0  0  0  0  0  0  0  0  0  0
   -5.5967   -2.3533    8.2164 H   0  0  0  0  0  0  0  0  0  0  0  0
   -6.8667   -3.5709    8.0415 H   0  0  0  0  0  0  0  0  0  0  0  0
   -7.0448   -2.2748    9.2290 H   0  0  0  0  0  0  0  0  0  0  0  0
   -6.4603   -1.0897    1.4135 H   0  0  0  0  0  0  0  0  0  0  0  0
   -5.0906   -0.4447   -3.1375 H   0  0  0  0  0  0  0  0  0  0  0  0
   -1.4434    0.3928   -6.1942 H   0  0  0  0  0  0  0  0  0  0  0  0
   -1.8196    0.7954   -7.8837 H   0  0  0  0  0  0  0  0  0  0  0  0
   -2.5774   -1.8049   -6.4645 H   0  0  0  0  0  0  0  0  0  0  0  0
   -2.9901   -1.3982   -8.1337 H   0  0  0  0  0  0  0  0  0  0  0  0
   -1.3026   -1.6188   -7.6697 H   0  0  0  0  0  0  0  0  0  0  0  0
  -11.9129    4.5986    2.2128 H   0  0  0  0  0  0  0  0  0  0  0  0
  -10.3413    4.0639    2.8412 H   0  0  0  0  0  0  0  0  0  0  0  0
  -12.6210    2.2197    1.9754 H   0  0  0  0  0  0  0  0  0  0  0  0
  -12.1560    2.5724    3.6425 H   0  0  0  0  0  0  0  0  0  0  0  0
  -11.0512    1.6858    2.5848 H   0  0  0  0  0  0  0  0  0  0  0  0
   -8.6695    5.5333   -2.7011 H   0  0  0  0  0  0  0  0  0  0  0  0
   -5.0667   10.2912   -4.7943 H   0  0  0  0  0  0  0  0  0  0  0  0
   -1.5728    6.1564   -2.8442 H   0  0  0  0  0  0  0  0  0  0  0  0
   -2.7024    4.3830   -5.0904 H   0  0  0  0  0  0  0  0  0  0  0  0
   -0.6710    2.9722   -6.0581 H   0  0  0  0  0  0  0  0  0  0  0  0
    1.1309    0.7920  -11.2356 H   0  0  0  0  0  0  0  0  0  0  0  0
    1.1471    2.4884  -10.7163 H   0  0  0  0  0  0  0  0  0  0  0  0
   -1.2693    2.3230  -10.1108 H   0  0  0  0  0  0  0  0  0  0  0  0
   -1.0129    1.9066  -11.8069 H   0  0  0  0  0  0  0  0  0  0  0  0
   -1.2825    0.6298  -10.6181 H   0  0  0  0  0  0  0  0  0  0  0  0
    3.1987    1.3440    3.1225 H   0  0  0  0  0  0  0  0  0  0  0  0
    1.7535    0.4146    3.5644 H   0  0  0  0  0  0  0  0  0  0  0  0
    4.1623   -0.6580    2.0105 H   0  0  0  0  0  0  0  0  0  0  0  0
    3.7813   -1.0103    3.6990 H   0  0  0  0  0  0  0  0  0  0  0  0
    2.7169   -1.5920    2.4191 H   0  0  0  0  0  0  0  0  0  0  0  0
    4.0577   -0.0459   -1.6163 H   0  0  0  0  0  0  0  0  0  0  0  0
    6.3763   -0.7540   -1.5085 H   0  0  0  0  0  0  0  0  0  0  0  0
   10.9387    0.1284    2.7442 H   0  0  0  0  0  0  0  0  0  0  0  0
    9.7858   -0.5599    3.8992 H   0  0  0  0  0  0  0  0  0  0  0  0
    9.7024    1.9206    3.9499 H   0  0  0  0  0  0  0  0  0  0  0  0
    9.3250    1.9597    2.2255 H   0  0  0  0  0  0  0  0  0  0  0  0
    8.1670    1.2712    3.3643 H   0  0  0  0  0  0  0  0  0  0  0  0
    8.2269   -7.6628   -8.0715 H   0  0  0  0  0  0  0  0  0  0  0  0
    8.4599   -6.6004   -9.4725 H   0  0  0  0  0  0  0  0  0  0  0  0
   10.6843   -7.6451   -7.6478 H   0  0  0  0  0  0  0  0  0  0  0  0
   10.3201   -8.2441   -9.2698 H   0  0  0  0  0  0  0  0  0  0  0  0
   10.9201   -6.5974   -9.0514 H   0  0  0  0  0  0  0  0  0  0  0  0
   11.2174   -5.0848   -4.5069 H   0  0  0  0  0  0  0  0  0  0  0  0
   12.7029   -5.1360   -2.3693 H   0  0  0  0  0  0  0  0  0  0  0  0
  1  2  2  0  0  0  0
  2  3  1  0  0  0  0
  3  4  2  0  0  0  0
  4  5  1  0  0  0  0
  5  6  1  0  0  0  0
  6  7  1  0  0  0  0
  7  8  1  0  0  0  0
  8  9  1  0  0  0  0
  7 10  2  0  0  0  0
 10 11  1  0  0  0  0
 10 12  1  0  0  0  0
 12 13  1  0  0  0  0
  4 14  1  0  0  0  0
 14 15  2  0  0  0  0
 15 16  1  0  0  0  0
 16 17  1  0  0  0  0
 17 18  1  0  0  0  0
 18 19  1  0  0  0  0
 19 20  1  0  0  0  0
 20 21  1  0  0  0  0
 19 22  2  0  0  0  0
 22 23  1  0  0  0  0
 23 24  1  0  0  0  0
 22 25  1  0  0  0  0
 16 26  2  0  0  0  0
 26 27  1  0  0  0  0
 15 28  1  0  0  0  0
 28 29  2  0  0  0  0
 29 30  1  0  0  0  0
 29 31  1  0  0  0  0
 31 32  2  0  0  0  0
 32 33  1  0  0  0  0
 33 34  2  0  0  0  0
 34 35  1  0  0  0  0
 35 36  1  0  0  0  0
 36 37  1  0  0  0  0
 37 38  1  0  0  0  0
 38 39  1  0  0  0  0
 37 40  2  0  0  0  0
 40 41  1  0  0  0  0
 40 42  1  0  0  0  0
 42 43  1  0  0  0  0
 34 44  1  0  0  0  0
 44 45  2  0  0  0  0
 45 46  1  0  0  0  0
 46 47  1  0  0  0  0
 47 48  1  0  0  0  0
 48 49  1  0  0  0  0
 49 50  1  0  0  0  0
 50 51  1  0  0  0  0
 49 52  2  0  0  0  0
 52 53  1  0  0  0  0
 53 54  1  0  0  0  0
 52 55  1  0  0  0  0
 46 56  2  0  0  0  0
 56 57  1  0  0  0  0
 45 58  1  0  0  0  0
 58 59  2  0  0  0  0
 59 60  1  0  0  0  0
 59 61  1  0  0  0  0
 61 62  2  0  0  0  0
 62 63  1  0  0  0  0
 63 64  2  0  0  0  0
 64 65  1  0  0  0  0
 65 66  1  0  0  0  0
 66 67  1  0  0  0  0
 67 68  1  0  0  0  0
 68 69  1  0  0  0  0
 67 70  2  0  0  0  0
 70 71  1  0  0  0  0
 70 72  1  0  0  0  0
 72 73  1  0  0  0  0
 64 74  1  0  0  0  0
 74 75  2  0  0  0  0
 75 76  1  0  0  0  0
 76 77  1  0  0  0  0
 77 78  1  0  0  0  0
 78 79  1  0  0  0  0
 79 80  1  0  0  0  0
 80 81  1  0  0  0  0
 79 82  2  0  0  0  0
 82 83  1  0  0  0  0
 83 84  1  0  0  0  0
 82 85  1  0  0  0  0
 76 86  2  0  0  0  0
 86 87  1  0  0  0  0
 75 88  1  0  0  0  0
 88 89  2  0  0  0  0
 89 90  1  0  0  0  0
 89 91  1  0  0  0  0
 91 92  2  0  0  0  0
 92 93  1  0  0  0  0
 93 94  2  0  0  0  0
 93 95  1  0  0  0  0
 95 96  1  0  0  0  0
 96 97  2  0  0  0  0
 96 98  1  0  0  0  0
 98 99  2  0  0  0  0
 99100  1  0  0  0  0
100101  2  0  0  0  0
101102  1  0  0  0  0
102103  2  0  0  0  0
102104  1  0  0  0  0
104105  1  0  0  0  0
105106  2  0  0  0  0
 95107  1  0  0  0  0
107108  2  0  0  0  0
108109  1  0  0  0  0
109110  2  0  0  0  0
110111  1  0  0  0  0
111112  2  0  0  0  0
112113  1  0  0  0  0
113114  1  0  0  0  0
114115  1  0  0  0  0
115116  1  0  0  0  0
116117  1  0  0  0  0
115118  2  0  0  0  0
118119  1  0  0  0  0
118120  1  0  0  0  0
120121  1  0  0  0  0
112122  1  0  0  0  0
122123  2  0  0  0  0
123124  1  0  0  0  0
124125  1  0  0  0  0
125126  1  0  0  0  0
126127  1  0  0  0  0
127128  1  0  0  0  0
128129  1  0  0  0  0
127130  2  0  0  0  0
130131  1  0  0  0  0
131132  1  0  0  0  0
130133  1  0  0  0  0
124134  2  0  0  0  0
134135  1  0  0  0  0
123136  1  0  0  0  0
136137  2  0  0  0  0
137138  1  0  0  0  0
137139  1  0  0  0  0
139140  2  0  0  0  0
140141  1  0  0  0  0
141142  2  0  0  0  0
142143  1  0  0  0  0
143144  1  0  0  0  0
144145  1  0  0  0  0
145146  1  0  0  0  0
146147  1  0  0  0  0
145148  2  0  0  0  0
148149  1  0  0  0  0
148150  1  0  0  0  0
150151  1  0  0  0  0
142152  1  0  0  0  0
152153  2  0  0  0  0
153154  1  0  0  0  0
154155  1  0  0  0  0
155156  1  0  0  0  0
156157  1  0  0  0  0
157158  1  0  0  0  0
158159  1  0  0  0  0
157160  2  0  0  0  0
160161  1  0  0  0  0
161162  1  0  0  0  0
160163  1  0  0  0  0
154164  2  0  0  0  0
164165  1  0  0  0  0
153166  1  0  0  0  0
166167  2  0  0  0  0
167168  1  0  0  0  0
 27  1  1  0  0  0  0
 57 31  1  0  0  0  0
 87 61  1  0  0  0  0
101 91  1  0  0  0  0
135109  1  0  0  0  0
165139  1  0  0  0  0
 26  3  1  0  0  0  0
 56 33  1  0  0  0  0
 86 63  1  0  0  0  0
 98 92  1  0  0  0  0
105100  1  0  0  0  0
134111  1  0  0  0  0
164141  1  0  0  0  0
 12  5  2  0  0  0  0
 30 14  1  0  0  0  0
 42 35  2  0  0  0  0
 60 44  1  0  0  0  0
 72 65  2  0  0  0  0
 90 74  1  0  0  0  0
120113  2  0  0  0  0
138122  1  0  0  0  0
150143  2  0  0  0  0
168152  1  0  0  0  0
 23 17  2  0  0  0  0
 53 47  2  0  0  0  0
 83 77  2  0  0  0  0
131125  2  0  0  0  0
161155  2  0  0  0  0
  1169  1  0  0  0  0
  2170  1  0  0  0  0
  8171  1  0  0  0  0
  8172  1  0  0  0  0
  9173  1  0  0  0  0
  9174  1  0  0  0  0
  9175  1  0  0  0  0
 20176  1  0  0  0  0
 20177  1  0  0  0  0
 21178  1  0  0  0  0
 21179  1  0  0  0  0
 21180  1  0  0  0  0
 28181  1  0  0  0  0
 32182  1  0  0  0  0
 38183  1  0  0  0  0
 38184  1  0  0  0  0
 39185  1  0  0  0  0
 39186  1  0  0  0  0
 39187  1  0  0  0  0
 50188  1  0  0  0  0
 50189  1  0  0  0  0
 51190  1  0  0  0  0
 51191  1  0  0  0  0
 51192  1  0  0  0  0
 58193  1  0  0  0  0
 62194  1  0  0  0  0
 68195  1  0  0  0  0
 68196  1  0  0  0  0
 69197  1  0  0  0  0
 69198  1  0  0  0  0
 69199  1  0  0  0  0
 80200  1  0  0  0  0
 80201  1  0  0  0  0
 81202  1  0  0  0  0
 81203  1  0  0  0  0
 81204  1  0  0  0  0
 88205  1  0  0  0  0
 99206  1  0  0  0  0
107207  1  0  0  0  0
108208  1  0  0  0  0
110209  1  0  0  0  0
116210  1  0  0  0  0
116211  1  0  0  0  0
117212  1  0  0  0  0
117213  1  0  0  0  0
117214  1  0  0  0  0
128215  1  0  0  0  0
128216  1  0  0  0  0
129217  1  0  0  0  0
129218  1  0  0  0  0
129219  1  0  0  0  0
136220  1  0  0  0  0
140221  1  0  0  0  0
146222  1  0  0  0  0
146223  1  0  0  0  0
147224  1  0  0  0  0
147225  1  0  0  0  0
147226  1  0  0  0  0
158227  1  0  0  0  0
158228  1  0  0  0  0
159229  1  0  0  0  0
159230  1  0  0  0  0
159231  1  0  0  0  0
166232  1  0  0  0  0
167233  1  0  0  0  0
M  END
