212

C         -0.19170       -3.36690       12.21720
C          0.20720       -2.09800       11.99600
C          0.15590       -1.73480       10.61850
C          0.52360       -0.51730       10.02650
C          1.10430        0.56630       10.80330
S          0.45630        2.17760       10.74410
C          1.66410        2.78580       11.82300
C          1.72330        4.23070       12.17600
C          2.48420        5.01810       11.10620
C          2.51890        1.78920       12.18950
Cl         3.85600        2.01270       13.24190
C          2.20190        0.52800       11.61750
Cl         3.16610       -0.86970       11.86970
C          0.34800       -0.40480        8.65310
C         -0.13300       -1.46700        7.85190
C         -0.51000       -2.68460        8.44300
C         -1.05950       -3.76430        7.63920
S         -0.24150       -4.35700        6.22210
C         -1.49240       -5.49980        5.87570
C         -1.45430       -6.33950        4.64760
C         -2.12280       -5.60490        3.48320
C         -2.48160       -5.41260        6.80850
C         -2.23900       -4.43530        7.81100
Cl        -3.38100       -4.08620        9.03910
Cl        -3.89750       -6.38120        6.79110
C         -0.34880       -2.79040        9.81960
S         -0.67540       -4.20200       10.78320
C         -0.17170       -1.11290        6.48040
C          0.26130        0.15410        6.23550
S          0.72590        0.99860        7.69320
C          0.35820        0.75220        4.93690
C          0.66350        0.08980        3.78720
C          0.60930        0.90810        2.63170
C          0.91320        0.55940        1.30370
C          1.55430       -0.71470        1.01240
S          0.89440       -2.24220        1.50480
C          2.26870       -3.11570        0.93280
C          2.36800       -4.59870        1.03090
C          1.17700       -5.21870        1.74640
C          3.19190       -2.25630        0.41330
Cl         4.72580       -2.76810       -0.16980
C          2.78820       -0.89650        0.44780
Cl         3.79360        0.38340       -0.08570
C          0.69660        1.53130        0.33310
C          0.24570        2.83590        0.65120
C          0.03870        3.21260        1.98670
C         -0.36740        4.56080        2.35170
S         -1.83120        5.26260        1.72510
C         -1.62010        6.71520        2.64320
C         -2.63930        7.79970        2.61700
C         -3.77530        7.50040        3.59840
C         -0.47940        6.64370        3.38470
C          0.23480        5.42500        3.22180
Cl         1.73450        5.12460        3.99160
Cl         0.06750        7.89600        4.42100
C          0.23280        2.23490        2.95250
S          0.03130        2.44750        4.66780
C          0.18690        3.66560       -0.49650
C          0.54810        3.02730       -1.63990
S          0.95070        1.35500       -1.38100
C          0.76420        3.70370       -2.91270
C          0.01880        3.52080       -4.07840
C         -1.09690        2.57520       -4.38540
O         -1.55260        1.69650       -3.70680
N         -1.52790        2.92320       -5.67510
C         -0.76930        3.96650       -6.23210
O         -0.95240        4.45030       -7.31370
C          0.22070        4.33310       -5.19880
C          1.15760        5.34770       -5.24110
C          1.92840        5.51000       -4.09820
C          1.75460        4.70400       -2.97510
C          2.74330        4.96090       -1.90500
O          2.94780        4.33640       -0.90880
S          3.71890        6.40850       -2.34530
C          2.97450        6.54750       -3.96980
O          3.29070        7.36380       -4.77860
C         -2.54090        2.37280       -6.44360
C         -3.43360        1.44880       -6.08660
C         -4.45200        0.97490       -7.01060
C         -5.77310        0.81550       -6.57550
C         -6.34890        1.08150       -5.23450
O         -5.85990        1.63640       -4.28630
N         -7.67950        0.63190       -5.30970
C         -8.04760        0.25100       -6.59540
O         -9.14070       -0.11180       -6.93360
C         -6.80230        0.36300       -7.40070
C         -6.58030        0.02960       -8.72210
C         -5.27200        0.15930       -9.16810
C         -4.22900        0.61620       -8.35580
C         -2.91640        0.60030       -9.03700
O         -1.83840        0.88180       -8.61040
S         -3.13170        0.03950      -10.73710
C         -4.88940       -0.20920      -10.54580
O         -5.60350       -0.62080      -11.40970
C         -8.46040        0.38130       -4.16870
C         -7.96010       -0.28440       -3.12460
C         -6.61660       -0.81730       -3.08910
C         -5.74880       -0.80240       -2.04830
C         -4.43670       -1.24310       -2.38290
C         -3.29310       -1.26190       -1.56970
C         -3.34040       -0.85690       -0.17490
S         -4.04170        0.65340        0.32210
C         -3.80880        0.30290        1.99940
C         -4.30980        1.22980        3.05280
C         -3.18230        2.06150        3.65910
C         -3.17010       -0.89280        2.14910
Cl        -2.73790       -1.56520        3.66620
C         -2.91630       -1.55890        0.92150
Cl        -2.29310       -3.14950        0.86120
C         -2.11650       -1.71230       -2.15970
C         -2.03970       -2.15600       -3.50010
C         -3.16160       -2.04720       -4.34210
C         -3.04290       -2.26250       -5.77040
S         -4.26190       -3.10510       -6.68650
C         -3.37100       -2.95800       -8.16480
C         -3.87140       -3.55890       -9.43110
C         -3.62550       -5.06890       -9.46310
C         -2.19940       -2.29480       -7.94590
C         -2.02830       -1.86090       -6.60290
Cl        -0.74360       -0.81090       -6.16300
Cl        -0.99980       -2.04060       -9.14710
C         -4.34510       -1.64280       -3.73610
S         -5.88090       -1.49660       -4.53900
C         -0.74030       -2.62850       -3.82300
C          0.15970       -2.44360       -2.82530
S         -0.55940       -1.74100       -1.39950
C          1.59200       -2.61820       -2.90420
C          2.34250       -3.73530       -3.05940
C          3.73460       -3.45920       -3.17890
C          4.80010       -4.36460       -3.28030
C          4.58750       -5.80290       -3.24890
S          3.74290       -6.55650       -1.92840
C          3.98310       -8.14560       -2.57260
C          3.42950       -9.34570       -1.88760
C          1.92920       -9.48880       -2.15260
C          4.66520       -8.07680       -3.74950
Cl         5.08440       -9.44500       -4.69600
C          5.01590       -6.75260       -4.13240
Cl         5.82400       -6.40530       -5.60270
C          6.08120       -3.82730       -3.35680
C          6.34040       -2.43550       -3.34460
C          5.27530       -1.52820       -3.25250
C          5.47150       -0.09060       -3.17900
S          6.57450        0.61090       -2.03090
C          6.13580        2.22750       -2.46280
C          6.72400        3.39960       -1.75950
C          6.19260        3.50600       -0.32840
C          5.19600        2.20290       -3.44810
C          4.81520        0.89910       -3.85870
Cl         3.71380        0.65110       -5.15240
Cl         4.52000        3.60370       -4.17430
C          3.99690       -2.06920       -3.16300
S          2.54490       -1.15420       -2.92110
C          7.73750       -2.16160       -3.41620
C          8.48860       -3.28090       -3.44800
S          7.56230       -4.73910       -3.40910
H         -0.24490       -3.88690       13.15370
H          0.52200       -1.42750       12.77380
H          2.22760        4.33760       13.13810
H          0.70960        4.62490       12.26470
H          2.52100        6.07080       11.37310
H          1.99120        4.91780       10.14220
H          3.50140        4.64550       11.01640
H         -0.41830       -6.56540        4.39110
H         -1.98150       -7.27520        4.84220
H         -3.16480       -5.40120        3.71560
H         -2.07880       -6.21000        2.58200
H         -1.61900       -4.66070        3.29440
H         -0.52800       -1.76160        5.70270
H          0.92310       -0.95180        3.77380
H          2.45390       -5.00950        0.02000
H          3.29480       -4.85140        1.55430
H          1.28740       -6.29870        1.79040
H          0.25520       -4.98470        1.21930
H          1.10070       -4.83350        2.76080
H         -3.04610        7.89480        1.60870
H         -2.15680        8.73940        2.89150
H         -4.50760        8.30280        3.57740
H         -4.26850        6.56880        3.33100
H         -3.38520        7.41040        4.60900
H         -0.09160        4.70370       -0.46450
H          1.28690        5.97660       -6.10740
H         -2.55730        2.82750       -7.42650
H         -3.47950        1.07270       -5.07470
H         -7.36360       -0.32320       -9.37340
H         -9.47670        0.74160       -4.21030
H         -8.55450       -0.39710       -2.23040
H         -6.01890       -0.43220       -1.07660
H         -5.05950        1.88930        2.61350
H         -4.78330        0.63920        3.84110
H         -3.57670        2.74230        4.40820
H         -2.45720        1.40720        4.13310
H         -2.68490        2.64220        2.88650
H         -4.94210       -3.36530       -9.52790
H         -3.35380       -3.08810      -10.26900
H         -3.99840       -5.48480      -10.39470
H         -4.13650       -5.55180       -8.63360
H         -2.56150       -5.27800       -9.38800
H         -0.48100       -3.08320       -4.76050
H          1.92640       -4.72600       -3.08050
H          3.60080       -9.26190       -0.81250
H          3.95400      -10.22810       -2.25740
H          1.54440      -10.37250       -1.65090
H          1.74240       -9.58530       -3.21910
H          1.39560       -8.61620       -1.78270
H          6.47350        4.30500       -2.31540
H          7.81160        3.29800       -1.73370
H          5.11190        3.62580       -0.33010
H          6.63590        4.36450        0.16840
H          6.44140        2.60850        0.23350
H          8.14650       -1.16840       -3.44030
H          9.55730       -3.35540       -3.49830
