
  xtb     03082210143D
 energy: -391.610538118097 gnorm: 0.000323987470 xtb: 6.4.1 (unknown)
224247  0     0  0            999 V2000
    0.1781    1.5564    9.4369 C   0  0  0  0  0  0  0  0  0  0  0  0
    0.7350    1.5138    8.2102 C   0  0  0  0  0  0  0  0  0  0  0  0
    0.3343    0.3688    7.4578 C   0  0  0  0  0  0  0  0  0  0  0  0
    0.7072    0.0084    6.1543 C   0  0  0  0  0  0  0  0  0  0  0  0
    1.6581    0.8075    5.3704 C   0  0  0  0  0  0  0  0  0  0  0  0
    2.8899    1.1851    5.8995 C   0  0  0  0  0  0  0  0  0  0  0  0
    3.7763    1.9503    5.1675 C   0  0  0  0  0  0  0  0  0  0  0  0
    3.4604    2.3756    3.8806 C   0  0  0  0  0  0  0  0  0  0  0  0
    4.5147    3.3982    2.9059 S   0  0  0  0  0  0  0  0  0  0  0  0
    5.3917    4.3695    4.1925 C   0  0  0  0  0  0  0  0  0  0  0  0
    5.8738    5.6695    3.5805 C   0  0  0  0  0  0  0  0  0  0  0  0
    2.2404    1.9589    3.3488 C   0  0  0  0  0  0  0  0  0  0  0  0
    1.8972    2.3261    2.0963 F   0  0  0  0  0  0  0  0  0  0  0  0
    1.3481    1.1960    4.0688 C   0  0  0  0  0  0  0  0  0  0  0  0
    0.1174   -1.1377    5.6387 C   0  0  0  0  0  0  0  0  0  0  0  0
   -0.7845   -1.9483    6.3664 C   0  0  0  0  0  0  0  0  0  0  0  0
   -1.1432   -1.5970    7.6729 C   0  0  0  0  0  0  0  0  0  0  0  0
   -2.0732   -2.4157    8.4612 C   0  0  0  0  0  0  0  0  0  0  0  0
   -3.2029   -1.8495    9.0426 C   0  0  0  0  0  0  0  0  0  0  0  0
   -4.0809   -2.6132    9.7868 C   0  0  0  0  0  0  0  0  0  0  0  0
   -3.8540   -3.9706    9.9825 C   0  0  0  0  0  0  0  0  0  0  0  0
   -4.8739   -5.0460   10.9339 S   0  0  0  0  0  0  0  0  0  0  0  0
   -6.4699   -4.1636   11.0351 C   0  0  0  0  0  0  0  0  0  0  0  0
   -7.1648   -4.0783    9.6896 C   0  0  0  0  0  0  0  0  0  0  0  0
   -2.7062   -4.5210    9.4074 C   0  0  0  0  0  0  0  0  0  0  0  0
   -1.8311   -3.7745    8.6512 C   0  0  0  0  0  0  0  0  0  0  0  0
   -2.4395   -5.8258    9.6022 F   0  0  0  0  0  0  0  0  0  0  0  0
   -0.5821   -0.4320    8.1803 C   0  0  0  0  0  0  0  0  0  0  0  0
   -0.8768    0.2256    9.7690 S   0  0  0  0  0  0  0  0  0  0  0  0
   -1.2739   -3.0380    5.5843 C   0  0  0  0  0  0  0  0  0  0  0  0
   -0.7604   -3.0780    4.3374 C   0  0  0  0  0  0  0  0  0  0  0  0
    0.3769   -1.7755    4.0374 S   0  0  0  0  0  0  0  0  0  0  0  0
   -1.1305   -3.9673    3.2018 C   0  0  0  0  0  0  0  0  0  0  0  0
   -1.6406   -5.3575    3.5962 C   0  0  0  0  0  0  0  0  0  0  0  0
   -2.2889   -5.6531    4.5524 O   0  0  0  0  0  0  0  0  0  0  0  0
   -1.2496   -6.2418    2.6669 O   0  0  0  0  0  0  0  0  0  0  0  0
   -0.5315   -5.6146    1.6116 C   0  0  0  0  0  0  0  0  0  0  0  0
    0.0021   -4.3066    2.2274 C   0  0  0  0  0  0  0  0  0  0  0  0
    0.3374   -3.2092    1.2132 C   0  0  0  0  0  0  0  0  0  0  0  0
    0.4408   -3.7902   -0.1881 C   0  0  0  0  0  0  0  0  0  0  0  0
   -0.9124   -4.3546   -0.6086 C   0  0  0  0  0  0  0  0  0  0  0  0
   -1.4708   -5.3703    0.4160 C   0  0  0  0  0  0  0  0  0  0  0  0
   -1.6963   -6.5870   -0.2807 O   0  0  0  0  0  0  0  0  0  0  0  0
   -1.4109   -6.5123   -1.5856 C   0  0  0  0  0  0  0  0  0  0  0  0
   -1.5963   -7.4102   -2.3492 O   0  0  0  0  0  0  0  0  0  0  0  0
   -0.8252   -5.1408   -1.9175 C   0  0  0  0  0  0  0  0  0  0  0  0
   -1.5071   -4.4883   -3.1316 C   0  0  0  0  0  0  0  0  0  0  0  0
   -1.1840   -3.0016   -3.1073 C   0  0  0  0  0  0  0  0  0  0  0  0
   -0.1049   -2.4895   -3.1832 O   0  0  0  0  0  0  0  0  0  0  0  0
   -2.3015   -2.2827   -2.9228 O   0  0  0  0  0  0  0  0  0  0  0  0
   -3.4608   -3.1021   -2.8015 C   0  0  0  0  0  0  0  0  0  0  0  0
   -3.0414   -4.5452   -3.1466 C   0  0  0  0  0  0  0  0  0  0  0  0
   -3.5878   -4.9816   -4.5095 C   0  0  0  0  0  0  0  0  0  0  0  0
   -3.4131   -3.8768   -5.5477 C   0  0  0  0  0  0  0  0  0  0  0  0
   -4.2391   -2.6232   -5.2174 C   0  0  0  0  0  0  0  0  0  0  0  0
   -4.5398   -2.5080   -3.7112 C   0  0  0  0  0  0  0  0  0  0  0  0
   -5.7726   -3.1761   -3.5048 O   0  0  0  0  0  0  0  0  0  0  0  0
   -6.4097   -3.4007   -4.6768 C   0  0  0  0  0  0  0  0  0  0  0  0
   -7.3505   -4.1180   -4.7763 O   0  0  0  0  0  0  0  0  0  0  0  0
   -5.6640   -2.6538   -5.7924 C   0  0  0  0  0  0  0  0  0  0  0  0
   -6.2147   -1.2289   -5.9662 C   0  0  0  0  0  0  0  0  0  0  0  0
   -7.7332   -1.1052   -6.1553 C   0  0  0  0  0  0  0  0  0  0  0  0
   -8.5916   -1.7304   -5.6214 O   0  0  0  0  0  0  0  0  0  0  0  0
   -7.9955   -0.0857   -6.9994 O   0  0  0  0  0  0  0  0  0  0  0  0
   -6.8109    0.5529   -7.4451 C   0  0  0  0  0  0  0  0  0  0  0  0
   -5.6743   -0.4449   -7.1712 C   0  0  0  0  0  0  0  0  0  0  0  0
   -4.3843    0.3405   -6.9849 C   0  0  0  0  0  0  0  0  0  0  0  0
   -4.4059    1.1524   -5.6933 C   0  0  0  0  0  0  0  0  0  0  0  0
   -5.7443    1.8892   -5.4566 C   0  0  0  0  0  0  0  0  0  0  0  0
   -6.6420    1.8910   -6.6960 C   0  0  0  0  0  0  0  0  0  0  0  0
   -6.0558    2.8930   -7.5312 O   0  0  0  0  0  0  0  0  0  0  0  0
   -5.3731    3.7915   -6.7936 C   0  0  0  0  0  0  0  0  0  0  0  0
   -4.7845    4.7125   -7.2705 O   0  0  0  0  0  0  0  0  0  0  0  0
   -5.4987    3.4076   -5.3168 C   0  0  0  0  0  0  0  0  0  0  0  0
   -4.3319    3.6679   -4.4301 C   0  0  0  0  0  0  0  0  0  0  0  0
   -3.0959    4.1276   -4.7199 C   0  0  0  0  0  0  0  0  0  0  0  0
   -2.1257    3.8186   -3.7154 C   0  0  0  0  0  0  0  0  0  0  0  0
   -0.7331    3.9752   -3.7921 C   0  0  0  0  0  0  0  0  0  0  0  0
   -0.1414    4.7929   -4.8563 C   0  0  0  0  0  0  0  0  0  0  0  0
    0.9087    4.3319   -5.6480 C   0  0  0  0  0  0  0  0  0  0  0  0
    1.4118    5.1126   -6.6660 C   0  0  0  0  0  0  0  0  0  0  0  0
    0.9097    6.3874   -6.9249 C   0  0  0  0  0  0  0  0  0  0  0  0
    1.6630    7.2969   -8.2380 S   0  0  0  0  0  0  0  0  0  0  0  0
    0.2848    8.2297   -9.0032 C   0  0  0  0  0  0  0  0  0  0  0  0
   -0.8301    7.3196   -9.4775 C   0  0  0  0  0  0  0  0  0  0  0  0
   -0.1097    6.8510   -6.0977 C   0  0  0  0  0  0  0  0  0  0  0  0
   -0.6107    8.0969   -6.2423 F   0  0  0  0  0  0  0  0  0  0  0  0
   -0.6462    6.0677   -5.0972 C   0  0  0  0  0  0  0  0  0  0  0  0
    0.0219    3.2821   -2.8524 C   0  0  0  0  0  0  0  0  0  0  0  0
   -0.5574    2.5004   -1.8221 C   0  0  0  0  0  0  0  0  0  0  0  0
   -1.9493    2.4405   -1.6803 C   0  0  0  0  0  0  0  0  0  0  0  0
   -2.6038    1.6780   -0.6084 C   0  0  0  0  0  0  0  0  0  0  0  0
   -3.5299    2.3075    0.2200 C   0  0  0  0  0  0  0  0  0  0  0  0
   -4.1453    1.6150    1.2440 C   0  0  0  0  0  0  0  0  0  0  0  0
   -3.8569    0.2760    1.4637 C   0  0  0  0  0  0  0  0  0  0  0  0
   -4.6234   -0.6048    2.8129 S   0  0  0  0  0  0  0  0  0  0  0  0
   -3.1906   -0.6313    3.9537 C   0  0  0  0  0  0  0  0  0  0  0  0
   -2.9222    0.7276    4.5684 C   0  0  0  0  0  0  0  0  0  0  0  0
   -2.9646   -0.3498    0.6037 C   0  0  0  0  0  0  0  0  0  0  0  0
   -2.3312    0.3258   -0.4192 C   0  0  0  0  0  0  0  0  0  0  0  0
   -2.6937   -1.6691    0.7627 F   0  0  0  0  0  0  0  0  0  0  0  0
   -2.6963    3.0934   -2.6460 C   0  0  0  0  0  0  0  0  0  0  0  0
   -4.4206    2.9293   -2.8368 S   0  0  0  0  0  0  0  0  0  0  0  0
    0.4233    1.8000   -1.0707 C   0  0  0  0  0  0  0  0  0  0  0  0
    1.6898    2.0240   -1.4956 C   0  0  0  0  0  0  0  0  0  0  0  0
    1.7630    3.1795   -2.8080 S   0  0  0  0  0  0  0  0  0  0  0  0
    2.8515    1.2648   -1.0902 C   0  0  0  0  0  0  0  0  0  0  0  0
    2.9890   -0.0655   -1.3252 C   0  0  0  0  0  0  0  0  0  0  0  0
    4.2176   -0.5975   -0.8492 C   0  0  0  0  0  0  0  0  0  0  0  0
    4.6897   -1.9149   -0.9590 C   0  0  0  0  0  0  0  0  0  0  0  0
    3.9782   -2.9088   -1.7718 C   0  0  0  0  0  0  0  0  0  0  0  0
    3.7407   -4.2015   -1.3105 C   0  0  0  0  0  0  0  0  0  0  0  0
    3.0875   -5.1209   -2.1058 C   0  0  0  0  0  0  0  0  0  0  0  0
    2.6414   -4.7870   -3.3814 C   0  0  0  0  0  0  0  0  0  0  0  0
    1.7461   -6.0157   -4.2977 S   0  0  0  0  0  0  0  0  0  0  0  0
    2.5118   -5.9405   -5.9580 C   0  0  0  0  0  0  0  0  0  0  0  0
    4.0021   -6.2074   -5.9030 C   0  0  0  0  0  0  0  0  0  0  0  0
    2.8770   -3.4911   -3.8289 C   0  0  0  0  0  0  0  0  0  0  0  0
    2.4716   -3.1048   -5.0542 F   0  0  0  0  0  0  0  0  0  0  0  0
    3.5465   -2.5693   -3.0522 C   0  0  0  0  0  0  0  0  0  0  0  0
    5.8860   -2.1989   -0.3134 C   0  0  0  0  0  0  0  0  0  0  0  0
    6.6198   -1.2285    0.4112 C   0  0  0  0  0  0  0  0  0  0  0  0
    6.1658    0.0953    0.4813 C   0  0  0  0  0  0  0  0  0  0  0  0
    6.8987    1.1168    1.2402 C   0  0  0  0  0  0  0  0  0  0  0  0
    7.2875    2.3172    0.6526 C   0  0  0  0  0  0  0  0  0  0  0  0
    7.9946    3.2542    1.3769 C   0  0  0  0  0  0  0  0  0  0  0  0
    8.3155    3.0393    2.7136 C   0  0  0  0  0  0  0  0  0  0  0  0
    9.1975    4.3079    3.5867 S   0  0  0  0  0  0  0  0  0  0  0  0
   10.5294    3.3628    4.4142 C   0  0  0  0  0  0  0  0  0  0  0  0
   11.3990    2.6232    3.4175 C   0  0  0  0  0  0  0  0  0  0  0  0
    7.8726    1.8590    3.3010 C   0  0  0  0  0  0  0  0  0  0  0  0
    7.1947    0.8976    2.5818 C   0  0  0  0  0  0  0  0  0  0  0  0
    8.0880    1.6242    4.6169 F   0  0  0  0  0  0  0  0  0  0  0  0
    4.9806    0.3886   -0.1781 C   0  0  0  0  0  0  0  0  0  0  0  0
    4.2162    1.9539   -0.2511 S   0  0  0  0  0  0  0  0  0  0  0  0
    7.8333   -1.7698    0.9344 C   0  0  0  0  0  0  0  0  0  0  0  0
    8.0073   -3.0690    0.6231 C   0  0  0  0  0  0  0  0  0  0  0  0
    6.7174   -3.7340   -0.3203 S   0  0  0  0  0  0  0  0  0  0  0  0
    0.3113    2.3037   10.1946 H   0  0  0  0  0  0  0  0  0  0  0  0
    1.3982    2.2686    7.8285 H   0  0  0  0  0  0  0  0  0  0  0  0
    3.1670    0.8556    6.8895 H   0  0  0  0  0  0  0  0  0  0  0  0
    4.7284    2.2143    5.5995 H   0  0  0  0  0  0  0  0  0  0  0  0
    6.2303    3.7819    4.5631 H   0  0  0  0  0  0  0  0  0  0  0  0
    4.6813    4.5534    4.9977 H   0  0  0  0  0  0  0  0  0  0  0  0
    6.5525    5.4721    2.7544 H   0  0  0  0  0  0  0  0  0  0  0  0
    5.0331    6.2501    3.2086 H   0  0  0  0  0  0  0  0  0  0  0  0
    6.4050    6.2526    4.3291 H   0  0  0  0  0  0  0  0  0  0  0  0
    0.4025    0.9374    3.6192 H   0  0  0  0  0  0  0  0  0  0  0  0
   -3.4091   -0.7998    8.8980 H   0  0  0  0  0  0  0  0  0  0  0  0
   -4.9432   -2.1359   10.2229 H   0  0  0  0  0  0  0  0  0  0  0  0
   -7.0486   -4.7689   11.7329 H   0  0  0  0  0  0  0  0  0  0  0  0
   -6.3042   -3.1845   11.4830 H   0  0  0  0  0  0  0  0  0  0  0  0
   -7.3304   -5.0757    9.2895 H   0  0  0  0  0  0  0  0  0  0  0  0
   -6.5659   -3.5183    8.9744 H   0  0  0  0  0  0  0  0  0  0  0  0
   -8.1276   -3.5829    9.8005 H   0  0  0  0  0  0  0  0  0  0  0  0
   -0.9586   -4.2502    8.2318 H   0  0  0  0  0  0  0  0  0  0  0  0
   -1.9931   -3.7518    5.9413 H   0  0  0  0  0  0  0  0  0  0  0  0
   -1.9536   -3.4903    2.6471 H   0  0  0  0  0  0  0  0  0  0  0  0
    0.2561   -6.3099    1.3097 H   0  0  0  0  0  0  0  0  0  0  0  0
    0.8937   -4.5562    2.8125 H   0  0  0  0  0  0  0  0  0  0  0  0
    1.2748   -2.7241    1.4838 H   0  0  0  0  0  0  0  0  0  0  0  0
   -0.4399   -2.4457    1.2202 H   0  0  0  0  0  0  0  0  0  0  0  0
    0.7397   -3.0185   -0.8985 H   0  0  0  0  0  0  0  0  0  0  0  0
    1.2004   -4.5722   -0.2104 H   0  0  0  0  0  0  0  0  0  0  0  0
   -1.6180   -3.5256   -0.6898 H   0  0  0  0  0  0  0  0  0  0  0  0
   -2.4437   -5.0514    0.8108 H   0  0  0  0  0  0  0  0  0  0  0  0
    0.2236   -5.3028   -2.1865 H   0  0  0  0  0  0  0  0  0  0  0  0
   -1.0802   -4.9470   -4.0265 H   0  0  0  0  0  0  0  0  0  0  0  0
   -3.8200   -3.0247   -1.7673 H   0  0  0  0  0  0  0  0  0  0  0  0
   -3.4164   -5.2325   -2.3871 H   0  0  0  0  0  0  0  0  0  0  0  0
   -4.6417   -5.2446   -4.4147 H   0  0  0  0  0  0  0  0  0  0  0  0
   -3.0567   -5.8809   -4.8235 H   0  0  0  0  0  0  0  0  0  0  0  0
   -2.3575   -3.6001   -5.6013 H   0  0  0  0  0  0  0  0  0  0  0  0
   -3.7003   -4.2490   -6.5320 H   0  0  0  0  0  0  0  0  0  0  0  0
   -3.6907   -1.7452   -5.5508 H   0  0  0  0  0  0  0  0  0  0  0  0
   -4.6550   -1.4554   -3.4115 H   0  0  0  0  0  0  0  0  0  0  0  0
   -5.7489   -3.2080   -6.7283 H   0  0  0  0  0  0  0  0  0  0  0  0
   -6.0200   -0.6835   -5.0381 H   0  0  0  0  0  0  0  0  0  0  0  0
   -6.9318    0.7831   -8.5079 H   0  0  0  0  0  0  0  0  0  0  0  0
   -5.5792   -1.1254   -8.0228 H   0  0  0  0  0  0  0  0  0  0  0  0
   -4.2858    1.0150   -7.8387 H   0  0  0  0  0  0  0  0  0  0  0  0
   -3.5130   -0.3140   -6.9950 H   0  0  0  0  0  0  0  0  0  0  0  0
   -3.5907    1.8752   -5.7504 H   0  0  0  0  0  0  0  0  0  0  0  0
   -4.1870    0.5114   -4.8376 H   0  0  0  0  0  0  0  0  0  0  0  0
   -6.2709    1.4940   -4.5872 H   0  0  0  0  0  0  0  0  0  0  0  0
   -7.6559    2.2249   -6.4273 H   0  0  0  0  0  0  0  0  0  0  0  0
   -6.4013    3.8987   -4.9298 H   0  0  0  0  0  0  0  0  0  0  0  0
   -2.8551    4.6059   -5.6521 H   0  0  0  0  0  0  0  0  0  0  0  0
    1.3078    3.3427   -5.4891 H   0  0  0  0  0  0  0  0  0  0  0  0
    2.2102    4.7442   -7.2910 H   0  0  0  0  0  0  0  0  0  0  0  0
   -0.0705    8.9796   -8.3001 H   0  0  0  0  0  0  0  0  0  0  0  0
    0.7664    8.7310   -9.8430 H   0  0  0  0  0  0  0  0  0  0  0  0
   -1.5799    7.9066  -10.0036 H   0  0  0  0  0  0  0  0  0  0  0  0
   -1.3150    6.8226   -8.6397 H   0  0  0  0  0  0  0  0  0  0  0  0
   -0.4428    6.5599  -10.1534 H   0  0  0  0  0  0  0  0  0  0  0  0
   -1.4383    6.4756   -4.4882 H   0  0  0  0  0  0  0  0  0  0  0  0
   -3.7511    3.3533    0.0709 H   0  0  0  0  0  0  0  0  0  0  0  0
   -4.8545    2.1057    1.8920 H   0  0  0  0  0  0  0  0  0  0  0  0
   -2.3302   -0.9912    3.3916 H   0  0  0  0  0  0  0  0  0  0  0  0
   -3.4536   -1.3653    4.7142 H   0  0  0  0  0  0  0  0  0  0  0  0
   -2.6632    1.4549    3.8002 H   0  0  0  0  0  0  0  0  0  0  0  0
   -3.8019    1.0828    5.0997 H   0  0  0  0  0  0  0  0  0  0  0  0
   -2.0957    0.6563    5.2736 H   0  0  0  0  0  0  0  0  0  0  0  0
   -1.6607   -0.2051   -1.0779 H   0  0  0  0  0  0  0  0  0  0  0  0
    0.1971    1.1467   -0.2490 H   0  0  0  0  0  0  0  0  0  0  0  0
    2.2346   -0.6496   -1.8213 H   0  0  0  0  0  0  0  0  0  0  0  0
    4.0608   -4.4847   -0.3198 H   0  0  0  0  0  0  0  0  0  0  0  0
    2.9127   -6.1253   -1.7500 H   0  0  0  0  0  0  0  0  0  0  0  0
    1.9905   -6.7223   -6.5104 H   0  0  0  0  0  0  0  0  0  0  0  0
    2.2860   -4.9750   -6.4054 H   0  0  0  0  0  0  0  0  0  0  0  0
    4.2013   -7.1688   -5.4344 H   0  0  0  0  0  0  0  0  0  0  0  0
    4.4091   -6.2193   -6.9121 H   0  0  0  0  0  0  0  0  0  0  0  0
    4.5141   -5.4326   -5.3343 H   0  0  0  0  0  0  0  0  0  0  0  0
    3.7334   -1.5882   -3.4594 H   0  0  0  0  0  0  0  0  0  0  0  0
    7.0563    2.5043   -0.3843 H   0  0  0  0  0  0  0  0  0  0  0  0
    8.3158    4.1742    0.9137 H   0  0  0  0  0  0  0  0  0  0  0  0
   11.0971    4.1304    4.9397 H   0  0  0  0  0  0  0  0  0  0  0  0
   10.0837    2.6902    5.1440 H   0  0  0  0  0  0  0  0  0  0  0  0
   11.8168    3.3142    2.6883 H   0  0  0  0  0  0  0  0  0  0  0  0
   10.8225    1.8677    2.8856 H   0  0  0  0  0  0  0  0  0  0  0  0
   12.2162    2.1292    3.9392 H   0  0  0  0  0  0  0  0  0  0  0  0
    6.8685   -0.0008    3.0834 H   0  0  0  0  0  0  0  0  0  0  0  0
    8.5416   -1.1918    1.4997 H   0  0  0  0  0  0  0  0  0  0  0  0
    8.8275   -3.7075    0.8875 H   0  0  0  0  0  0  0  0  0  0  0  0
  1  2  2  0  0  0  0
  2  3  1  0  0  0  0
  3  4  2  0  0  0  0
  4  5  1  0  0  0  0
  5  6  2  0  0  0  0
  6  7  1  0  0  0  0
  7  8  2  0  0  0  0
  8  9  1  0  0  0  0
  9 10  1  0  0  0  0
 10 11  1  0  0  0  0
  8 12  1  0  0  0  0
 12 13  1  0  0  0  0
 12 14  2  0  0  0  0
  4 15  1  0  0  0  0
 15 16  2  0  0  0  0
 16 17  1  0  0  0  0
 17 18  1  0  0  0  0
 18 19  2  0  0  0  0
 19 20  1  0  0  0  0
 20 21  2  0  0  0  0
 21 22  1  0  0  0  0
 22 23  1  0  0  0  0
 23 24  1  0  0  0  0
 21 25  1  0  0  0  0
 25 26  2  0  0  0  0
 25 27  1  0  0  0  0
 17 28  2  0  0  0  0
 28 29  1  0  0  0  0
 16 30  1  0  0  0  0
 30 31  2  0  0  0  0
 31 32  1  0  0  0  0
 31 33  1  0  0  0  0
 33 34  1  0  0  0  0
 34 35  2  0  0  0  0
 34 36  1  0  0  0  0
 36 37  1  0  0  0  0
 37 38  1  0  0  0  0
 38 39  1  0  0  0  0
 39 40  1  0  0  0  0
 40 41  1  0  0  0  0
 41 42  1  0  0  0  0
 42 43  1  0  0  0  0
 43 44  1  0  0  0  0
 44 45  2  0  0  0  0
 44 46  1  0  0  0  0
 46 47  1  0  0  0  0
 47 48  1  0  0  0  0
 48 49  2  0  0  0  0
 48 50  1  0  0  0  0
 50 51  1  0  0  0  0
 51 52  1  0  0  0  0
 52 53  1  0  0  0  0
 53 54  1  0  0  0  0
 54 55  1  0  0  0  0
 55 56  1  0  0  0  0
 56 57  1  0  0  0  0
 57 58  1  0  0  0  0
 58 59  2  0  0  0  0
 58 60  1  0  0  0  0
 60 61  1  0  0  0  0
 61 62  1  0  0  0  0
 62 63  2  0  0  0  0
 62 64  1  0  0  0  0
 64 65  1  0  0  0  0
 65 66  1  0  0  0  0
 66 67  1  0  0  0  0
 67 68  1  0  0  0  0
 68 69  1  0  0  0  0
 69 70  1  0  0  0  0
 70 71  1  0  0  0  0
 71 72  1  0  0  0  0
 72 73  2  0  0  0  0
 72 74  1  0  0  0  0
 74 75  1  0  0  0  0
 75 76  2  0  0  0  0
 76 77  1  0  0  0  0
 77 78  2  0  0  0  0
 78 79  1  0  0  0  0
 79 80  2  0  0  0  0
 80 81  1  0  0  0  0
 81 82  2  0  0  0  0
 82 83  1  0  0  0  0
 83 84  1  0  0  0  0
 84 85  1  0  0  0  0
 82 86  1  0  0  0  0
 86 87  1  0  0  0  0
 86 88  2  0  0  0  0
 78 89  1  0  0  0  0
 89 90  2  0  0  0  0
 90 91  1  0  0  0  0
 91 92  1  0  0  0  0
 92 93  2  0  0  0  0
 93 94  1  0  0  0  0
 94 95  2  0  0  0  0
 95 96  1  0  0  0  0
 96 97  1  0  0  0  0
 97 98  1  0  0  0  0
 95 99  1  0  0  0  0
 99100  2  0  0  0  0
 99101  1  0  0  0  0
 91102  2  0  0  0  0
102103  1  0  0  0  0
 90104  1  0  0  0  0
104105  2  0  0  0  0
105106  1  0  0  0  0
105107  1  0  0  0  0
107108  2  0  0  0  0
108109  1  0  0  0  0
109110  2  0  0  0  0
110111  1  0  0  0  0
111112  2  0  0  0  0
112113  1  0  0  0  0
113114  2  0  0  0  0
114115  1  0  0  0  0
115116  1  0  0  0  0
116117  1  0  0  0  0
114118  1  0  0  0  0
118119  1  0  0  0  0
118120  2  0  0  0  0
110121  1  0  0  0  0
121122  2  0  0  0  0
122123  1  0  0  0  0
123124  1  0  0  0  0
124125  2  0  0  0  0
125126  1  0  0  0  0
126127  2  0  0  0  0
127128  1  0  0  0  0
128129  1  0  0  0  0
129130  1  0  0  0  0
127131  1  0  0  0  0
131132  2  0  0  0  0
131133  1  0  0  0  0
123134  2  0  0  0  0
134135  1  0  0  0  0
122136  1  0  0  0  0
136137  2  0  0  0  0
137138  1  0  0  0  0
 29  1  1  0  0  0  0
 38 33  1  0  0  0  0
 46 41  1  0  0  0  0
 52 47  1  0  0  0  0
 60 55  1  0  0  0  0
 66 61  1  0  0  0  0
 74 69  1  0  0  0  0
103 75  1  0  0  0  0
135107  1  0  0  0  0
 28  3  1  0  0  0  0
 42 37  1  0  0  0  0
 56 51  1  0  0  0  0
 70 65  1  0  0  0  0
102 77  1  0  0  0  0
134109  1  0  0  0  0
 14  5  1  0  0  0  0
 32 15  1  0  0  0  0
 88 79  1  0  0  0  0
106 89  1  0  0  0  0
120111  1  0  0  0  0
138121  1  0  0  0  0
 26 18  1  0  0  0  0
100 92  1  0  0  0  0
132124  1  0  0  0  0
  1139  1  0  0  0  0
  2140  1  0  0  0  0
  6141  1  0  0  0  0
  7142  1  0  0  0  0
 10143  1  0  0  0  0
 10144  1  0  0  0  0
 11145  1  0  0  0  0
 11146  1  0  0  0  0
 11147  1  0  0  0  0
 14148  1  0  0  0  0
 19149  1  0  0  0  0
 20150  1  0  0  0  0
 23151  1  0  0  0  0
 23152  1  0  0  0  0
 24153  1  0  0  0  0
 24154  1  0  0  0  0
 24155  1  0  0  0  0
 26156  1  0  0  0  0
 30157  1  0  0  0  0
 33158  1  0  0  0  0
 37159  1  0  0  0  0
 38160  1  0  0  0  0
 39161  1  0  0  0  0
 39162  1  0  0  0  0
 40163  1  0  0  0  0
 40164  1  0  0  0  0
 41165  1  0  0  0  0
 42166  1  0  0  0  0
 46167  1  0  0  0  0
 47168  1  0  0  0  0
 51169  1  0  0  0  0
 52170  1  0  0  0  0
 53171  1  0  0  0  0
 53172  1  0  0  0  0
 54173  1  0  0  0  0
 54174  1  0  0  0  0
 55175  1  0  0  0  0
 56176  1  0  0  0  0
 60177  1  0  0  0  0
 61178  1  0  0  0  0
 65179  1  0  0  0  0
 66180  1  0  0  0  0
 67181  1  0  0  0  0
 67182  1  0  0  0  0
 68183  1  0  0  0  0
 68184  1  0  0  0  0
 69185  1  0  0  0  0
 70186  1  0  0  0  0
 74187  1  0  0  0  0
 76188  1  0  0  0  0
 80189  1  0  0  0  0
 81190  1  0  0  0  0
 84191  1  0  0  0  0
 84192  1  0  0  0  0
 85193  1  0  0  0  0
 85194  1  0  0  0  0
 85195  1  0  0  0  0
 88196  1  0  0  0  0
 93197  1  0  0  0  0
 94198  1  0  0  0  0
 97199  1  0  0  0  0
 97200  1  0  0  0  0
 98201  1  0  0  0  0
 98202  1  0  0  0  0
 98203  1  0  0  0  0
100204  1  0  0  0  0
104205  1  0  0  0  0
108206  1  0  0  0  0
112207  1  0  0  0  0
113208  1  0  0  0  0
116209  1  0  0  0  0
116210  1  0  0  0  0
117211  1  0  0  0  0
117212  1  0  0  0  0
117213  1  0  0  0  0
120214  1  0  0  0  0
125215  1  0  0  0  0
126216  1  0  0  0  0
129217  1  0  0  0  0
129218  1  0  0  0  0
130219  1  0  0  0  0
130220  1  0  0  0  0
130221  1  0  0  0  0
132222  1  0  0  0  0
136223  1  0  0  0  0
137224  1  0  0  0  0
M  END
