236

C         -2.18630       -9.51300       11.87280
C         -2.66760       -8.25640       11.78930
C         -2.59850       -7.72220       10.46790
C         -2.99730       -6.45270       10.02270
C         -3.45460       -5.41220       10.95220
C         -2.70780       -5.10530       12.08930
C         -3.09600       -4.08530       12.93140
C         -4.24230       -3.33640       12.67870
S         -4.67200       -2.06330       13.83320
C         -5.05320       -0.64060       12.74460
C         -3.87920       -0.28010       11.85670
C         -4.99420       -3.67200       11.55780
F         -6.13930       -3.01140       11.27410
C         -4.61010       -4.68050       10.69750
C         -2.88320       -6.20890        8.66170
C         -2.32760       -7.13960        7.74960
C         -1.88500       -8.39150        8.20350
C         -1.23830       -9.34520        7.29470
C         -0.17270       -8.94460        6.48830
C          0.43910       -9.83850        5.63820
C          0.02050      -11.16710        5.55500
S          0.91250      -12.21520        4.45260
C         -0.32590      -13.45670        3.90240
C          0.12020      -14.02940        2.57150
C         -1.02650      -11.55830        6.38440
C         -1.65520      -10.66990        7.23370
F         -1.46790      -12.83660        6.39170
C         -2.06360       -8.66160        9.55380
S         -1.62080      -10.14230       10.36400
C         -2.31490       -6.63770        6.42130
C         -2.81550       -5.37700        6.31000
S         -3.33720       -4.73020        7.85550
C         -2.95600       -4.57730        5.13830
C         -3.56180       -3.36050        5.04710
C         -3.53130       -2.80360        3.74480
C         -4.02260       -1.55060        3.33890
C         -4.76640       -0.70240        4.27600
C         -5.82910       -1.22870        5.00610
C         -6.52060       -0.45900        5.91960
C         -6.16410        0.86550        6.14830
S         -6.94950        1.93980        7.30220
C         -7.84890        0.80200        8.41410
C         -6.91090       -0.03550        9.26170
C         -5.11710        1.38890        5.38730
F         -4.75200        2.67280        5.57100
C         -4.42710        0.63510        4.46430
C         -3.76290       -1.17880        2.02980
C         -3.07410       -2.01720        1.11870
C         -2.59080       -3.27510        1.51990
C         -1.83550       -4.11540        0.58270
C         -0.77110       -3.58810       -0.14510
C         -0.09350       -4.34500       -1.08130
C         -0.45550       -5.66610       -1.32140
S          0.26070       -6.73000       -2.52660
C          1.49900       -5.69370       -3.37780
C          2.80120       -5.59350       -2.60730
C         -1.49490       -6.19490       -0.55190
C         -2.17910       -5.45050        0.38190
F         -1.85980       -7.47900       -0.74430
C         -2.84460       -3.64200        2.83120
S         -2.30590       -5.11380        3.60070
C         -2.95540       -1.42090       -0.15780
C         -3.48250       -0.16370       -0.23180
S         -4.22520        0.32730        1.27670
C         -3.29810        0.74470       -1.31830
C         -2.40190        0.55850       -2.33180
C         -2.19120        1.70550       -3.12970
C         -1.22040        1.89160       -4.13460
C         -0.21090        0.85630       -4.37820
C          0.35580        0.16750       -3.30210
C          1.27740       -0.83150       -3.50310
C          1.71080       -1.17710       -4.78120
S          2.84020       -2.53430       -4.87680
C          3.94150       -2.14570       -6.28920
C          5.04910       -3.18050       -6.32250
C          1.16170       -0.47080       -5.84590
F          1.51870       -0.75210       -7.12050
C          0.22270        0.52600       -5.65820
C         -1.23490        3.12140       -4.77800
C         -2.15910        4.15080       -4.45890
C         -3.08130        3.97890       -3.41450
C         -3.99580        5.05430       -3.01010
C         -4.87570        5.62950       -3.92090
C         -5.74790        6.62940       -3.53500
C         -5.76740        7.08810       -2.22300
S         -6.80730        8.37410       -1.61110
C         -8.16640        8.45760       -2.82870
C         -9.03540        7.21480       -2.80490
C         -4.86700        6.51190       -1.32480
C         -3.99750        5.51080       -1.69450
F         -4.84340        6.95110       -0.05200
C         -3.05520        2.76240       -2.75550
S         -4.03850        2.32890       -1.38010
C         -1.92850        5.33040       -5.20840
C         -0.85600        5.25670       -6.05060
S         -0.08790        3.67430       -5.97390
C         -0.32250        6.27610       -6.88600
C          0.89200        6.25420       -7.51260
C          1.06300        7.49320       -8.17590
N          1.98500        8.16690       -8.89510
C          1.48810        9.41460       -9.18900
C          0.19930        9.51270       -8.66010
C         -0.05680        8.31090       -8.00320
C         -1.04260        7.58790       -7.14980
C          2.29000       10.40160       -9.87390
C          3.62590       10.48520       -9.75260
C          4.34150        9.68930       -8.76290
C          5.24310        8.68960       -8.94900
C          5.41390        8.01390       -7.70040
N          5.92960        6.86760       -7.20140
C          5.48110        6.71770       -5.90500
C          4.69420        7.83000       -5.57820
C          4.64320        8.62800       -6.70880
C          3.97490        9.81800       -7.29340
C          5.59980        5.53310       -5.13730
C          6.23140        4.38790       -5.48500
C          6.06550        3.16260       -4.77410
C          5.13210        2.84730       -3.82720
C          5.14530        1.48920       -3.42520
C          4.29990        0.84860       -2.49800
C          3.14050        1.54260       -1.92820
C          2.33460        2.36510       -2.72200
C          1.22960        2.99410       -2.19670
C          0.83690        2.81010       -0.86890
S         -0.64290        3.64730       -0.39590
C         -1.31950        2.78560        1.07660
C         -0.93310        3.45590        2.37920
C          1.65480        2.00360       -0.08480
F          1.38520        1.79070        1.22420
C          2.78190        1.38710       -0.59300
C          4.61040       -0.47520       -2.19990
C          5.67540       -1.18050       -2.81040
C          6.48570       -0.55280       -3.76880
C          7.61720       -1.24380       -4.39930
C          7.79230       -1.23370       -5.77950
C          8.85850       -1.88220       -6.37190
C          9.79440       -2.56330       -5.60280
S         11.20620       -3.41700       -6.22150
C         10.86480       -3.60760       -8.00500
C          9.74130       -4.59070       -8.27420
C          9.62170       -2.54270       -4.21740
C          8.56160       -1.90460       -3.61510
F         10.52410       -3.17000       -3.43600
C          6.18530        0.76750       -4.06260
S          7.05260        1.77360       -5.19350
C          5.74480       -2.53440       -2.36430
C          4.80290       -2.83780       -1.45120
S          3.75970       -1.51090       -1.07700
H         -2.12760      -10.13940       12.74140
H         -3.07930       -7.71780       12.62340
H         -1.79720       -5.64840       12.29120
H         -2.50790       -3.84140       13.80240
H         -5.27710        0.16130       13.44790
H         -5.94700       -0.86820       12.16820
H         -3.67160       -1.07710       11.14460
H         -4.10100        0.62880       11.30090
H         -2.98690       -0.11040       12.45560
H         -5.23620       -4.90320        9.84790
H          0.18570       -7.92800        6.54330
H          1.26180       -9.52440        5.01490
H         -0.39750      -14.23320        4.66260
H         -1.28010      -12.94090        3.80840
H          1.09270      -14.50690        2.66820
H          0.19450      -13.24360        1.82330
H         -0.60000      -14.77050        2.23150
H         -2.47470      -11.02680        7.83760
H         -1.96580       -7.19990        5.57360
H         -3.99580       -2.86590        5.89760
H         -6.13270       -2.25160        4.84070
H         -7.34640       -0.90160        6.45220
H         -8.44010        1.47290        9.03730
H         -8.53010        0.19480        7.81960
H         -6.28100        0.61060        9.86840
H         -6.26760       -0.65590        8.64130
H         -7.48380       -0.68560        9.91980
H         -3.61230        1.08680        3.92110
H         -0.45380       -2.57190        0.03520
H          0.71540       -3.88930       -1.62860
H          1.06040       -4.71720       -3.57660
H          1.65360       -6.20210       -4.32920
H          3.48580       -4.93370       -3.13670
H          3.25840       -6.57520       -2.50860
H          2.63100       -5.19460       -1.61000
H         -2.99180       -5.90660        0.92440
H         -2.49800       -1.91620       -0.99330
H         -1.89700       -0.37480       -2.49140
H          0.09760        0.43960       -2.29230
H          1.69030       -1.36120       -2.65990
H          4.33270       -1.14190       -6.12200
H          3.35680       -2.17250       -7.20620
H          5.62530       -3.15570       -5.40030
H          4.63080       -4.17750       -6.44380
H          5.71740       -2.97910       -7.15650
H         -0.18390        1.01380       -6.53010
H         -4.89010        5.27790       -4.94200
H         -6.41200        7.05420       -4.27050
H         -8.73300        9.33390       -2.51410
H         -7.74640        8.65400       -3.81450
H         -9.45000        7.06720       -1.81050
H         -9.85550        7.32190       -3.51240
H         -8.45960        6.33050       -3.07030
H         -3.31140        5.10770       -0.96640
H         -2.51870        6.22040       -5.08800
H          1.60090        5.44650       -7.47860
H          2.89990        7.84650       -9.16380
H         -0.43410       10.37530       -8.73120
H         -1.99550        7.41610       -7.65350
H         -1.24870        8.11910       -6.21920
H          1.75800       11.08630      -10.51980
H          4.18940       11.16980      -10.37210
H          5.68370        8.39980       -9.88690
H          6.51060        6.20400       -7.68480
H          4.20590        7.98380       -4.63640
H          2.90170        9.85420       -7.11850
H          4.39690       10.74980       -6.90660
H          5.04490        5.55730       -4.21020
H          6.86100        4.34260       -6.36340
H          4.45280        3.57120       -3.41900
H          2.54830        2.47870       -3.77330
H          0.62020        3.63080       -2.81850
H         -1.00370        1.74570        1.03150
H         -2.39930        2.83310        0.92850
H         -1.24620        4.49740        2.37440
H          0.14080        3.41290        2.53890
H         -1.42520        2.95090        3.20780
H          3.38300        0.80310        0.08580
H          7.07680       -0.72290       -6.40520
H          8.95680       -1.84480       -7.44450
H         10.67160       -2.62440       -8.43230
H         11.80820       -3.97880       -8.40500
H          9.98660       -5.56330       -7.85420
H          9.59470       -4.70160       -9.34690
H          8.80860       -4.25130       -7.82830
H          8.49070       -1.90470       -2.53860
H          6.46790       -3.24220       -2.72710
H          4.64670       -3.77100       -0.94740
