250

C         -9.82530        2.92160        7.48280
C         -9.58880        3.52880        6.30270
C         -8.66140        2.81470        5.48630
C         -8.18550        3.15850        4.21210
C         -8.53800        4.43540        3.57870
C         -8.36930        5.63190        4.27030
C         -8.66560        6.84670        3.68340
C         -9.14010        6.90840        2.37830
S         -9.57640        8.38330        1.51770
C         -8.79800        9.71670        2.49400
C         -7.28480        9.69980        2.38850
C         -9.31270        5.70030        1.69990
F         -9.78650        5.72310        0.43900
C         -9.01790        4.48310        2.27200
C         -7.32820        2.25290        3.60470
C         -6.88220        1.06740        4.23850
C         -7.32770        0.74160        5.52890
C         -6.84390       -0.45700        6.22530
C         -5.48110       -0.71800        6.34120
C         -5.01980       -1.84410        6.99640
C         -5.90690       -2.75400        7.56060
S         -5.47440       -4.24710        8.38630
C         -3.66440       -4.15340        8.60920
C         -3.26690       -3.17130        9.69490
C         -7.27080       -2.47700        7.43780
C         -7.74340       -1.35770        6.79220
F         -8.16110       -3.34080        7.96470
C         -8.23420        1.61770        6.10970
S         -8.95070        1.44330        7.69140
C         -5.99080        0.33250        3.41620
C         -5.73810        0.92560        2.21630
S         -6.61220        2.43110        2.02350
C         -4.81270        0.46960        1.22590
C         -3.76230       -0.36670        1.45250
C         -2.93390       -0.56620        0.32040
C         -1.72050       -1.27170        0.25670
C         -1.11910       -1.83990        1.46530
C         -1.07560       -1.09010        2.63840
C         -0.54060       -1.60160        3.80120
C         -0.02360       -2.89090        3.83880
S          0.63960       -3.66940        5.26950
C          0.80940       -2.30010        6.46420
C         -0.43870       -2.10760        7.30410
C         -0.04970       -3.62530        2.65180
F          0.45170       -4.87920        2.64430
C         -0.57840       -3.12430        1.48320
C         -1.11140       -1.33650       -0.98730
C         -1.64130       -0.70960       -2.13990
C         -2.82440        0.04180       -2.06430
C         -3.35040        0.75860       -3.23300
C         -2.53950        1.60240       -3.98720
C         -3.02730        2.26400       -5.09810
C         -4.34820        2.10120       -5.50130
S         -5.09240        2.85950       -6.90150
C         -3.72270        3.82650       -7.63780
C         -4.19000        4.43690       -8.94480
C         -5.15440        1.26230       -4.72660
C         -4.68240        0.60390       -3.61480
F         -6.43910        1.08110       -5.08790
C         -3.44730        0.08800       -0.82600
S         -4.88060        1.01000       -0.43920
C         -0.82070       -0.92340       -3.28080
C          0.31280       -1.62670       -3.02380
S          0.40310       -2.11660       -1.34220
C          1.39070       -2.01780       -3.91750
C          2.01500       -3.24510       -3.69310
C          3.06150       -3.69330       -4.47870
C          3.74500       -4.99680       -4.15720
N          4.32560       -4.92580       -2.82080
C          3.48510       -2.89340       -5.53280
C          2.88650       -1.66990       -5.75940
C          1.84990       -1.20400       -4.96120
C          1.34020        0.19250       -5.19930
N          0.43320        0.29080       -6.32140
C          0.35340        1.43500       -7.05200
C         -0.60640        1.74390       -7.93700
C         -0.57040        2.89760       -8.82740
C         -0.97930        2.68730      -10.14860
C         -0.95070        3.68350      -11.10700
C         -1.31980        3.38260      -12.53890
N         -0.18490        2.92990      -13.33600
C         -0.49180        4.94420      -10.74100
C         -0.13390        5.18880       -9.43040
C         -0.17940        4.19610       -8.45780
C          0.08940        4.61330       -7.03190
N          1.48600        4.53740       -6.64420
C          1.86730        3.89470       -5.51730
C          3.08840        3.40420       -5.22030
C          3.29920        2.60740       -4.05100
C          4.22450        1.62300       -3.86930
C          4.01450        0.83320       -2.70780
C          4.71200       -0.31630       -2.30900
C          5.88090       -0.80220       -3.05160
C          6.91340        0.06740       -3.39420
C          8.01880       -0.36980       -4.09860
C          8.12180       -1.69470       -4.50520
S          9.46590       -2.39290       -5.40920
C         10.41220       -0.94800       -5.99980
C          9.68470       -0.18810       -7.09290
C          7.08770       -2.55690       -4.13910
F          7.15930       -3.85180       -4.51660
C          5.99110       -2.14250       -3.41910
C          4.23610       -0.96850       -1.17990
C          3.16010       -0.49550       -0.38960
C          2.46200        0.66050       -0.78930
C          1.33340        1.18680       -0.01330
C          0.15560        1.59230       -0.63570
C         -0.91050        2.09100        0.08470
C         -0.84270        2.19840        1.46750
S         -2.17320        2.73230        2.50030
C         -3.17790        3.78990        1.40690
C         -2.43410        5.03880        0.97860
C          0.34250        1.79390        2.08290
C          1.41540        1.30480        1.37340
F          0.44630        1.87420        3.42790
C          2.89080        1.26620       -1.96190
S          2.15320        2.65920       -2.71730
C          2.90050       -1.35450        0.71600
C          3.73060       -2.42940        0.76970
S          4.90260       -2.43720       -0.53400
C          3.75550       -3.55750        1.65570
C          4.07250       -4.82030        1.26680
C          4.05180       -5.76710        2.32020
C          4.31590       -7.13990        2.22300
C          4.57650       -7.72910        0.90320
C          3.66090       -7.54500       -0.13270
C          3.94610       -7.98570       -1.40640
C          5.15120       -8.62280       -1.69860
S          5.43860       -9.07930       -3.38510
C          7.20340       -8.66420       -3.65000
C          7.50660       -7.20840       -3.35880
C          6.01840       -8.86870       -0.63860
F          7.17270       -9.54140       -0.83480
C          5.74980       -8.42510        0.64190
C          4.31920       -7.85610        3.40760
C          4.03780       -7.26080        4.66100
C          3.74720       -5.89060        4.75180
C          3.47520       -5.27380        6.05700
C          4.22580       -4.19210        6.50290
C          3.99870       -3.62510        7.74370
C          2.99040       -4.10750        8.57030
S          2.55530       -3.46940       10.15710
C          3.57350       -1.96630       10.34810
C          3.05550       -0.79920        9.52850
C          2.24040       -5.19070        8.10490
C          2.47270       -5.77870        6.88320
F          1.24310       -5.66900        8.87880
C          3.76550       -5.16640        3.56870
S          3.44320       -3.45790        3.37610
C          4.12890       -8.21460        5.71970
C          4.43490       -9.45410        5.28750
S          4.64290       -9.56150        3.57220
H        -10.47960        3.24260        8.26960
H        -10.06220        4.44370        5.99560
H         -7.98020        5.61310        5.27740
H         -8.52630        7.74850        4.25740
H         -9.14580        9.64810        3.52390
H         -9.20700       10.62490        2.05130
H         -6.86500       10.53030        2.95300
H         -6.87520        8.77070        2.77980
H         -6.98100        9.79640        1.34890
H         -9.18020        3.58270        1.70100
H         -4.76890       -0.01730        5.93090
H         -3.95660       -2.01000        7.06070
H         -3.20420       -3.93010        7.64790
H         -3.39280       -5.17000        8.89330
H         -2.19260       -3.21770        9.86120
H         -3.53610       -2.15280        9.42340
H         -3.77060       -3.42190       10.62540
H         -8.80850       -1.20700        6.71730
H         -5.57770       -0.61760        3.70000
H         -3.57660       -0.81650        2.40910
H         -1.45720       -0.08270        2.64530
H         -0.53740       -0.97650        4.67810
H          1.09450       -1.40540        5.91380
H          1.64560       -2.60460        7.09010
H         -0.29230       -1.28890        8.00610
H         -0.64590       -3.01530        7.86610
H         -1.30040       -1.88030        6.68020
H         -0.59150       -3.75050        0.60540
H         -1.51430        1.76580       -3.68900
H         -2.36760        2.90900       -5.65460
H         -2.88950        3.14900       -7.81420
H         -3.43530        4.60120       -6.92640
H         -3.37060        4.98880       -9.40060
H         -5.02470        5.11350       -8.77820
H         -4.50810        3.65890       -9.63440
H         -5.34860       -0.04320       -3.06670
H         -1.11370       -0.59480       -4.26050
H          1.65630       -3.85780       -2.87780
H          3.02140       -5.82360       -4.27180
H          4.56230       -5.16490       -4.86220
H          4.86780       -5.76030       -2.62890
H          3.59550       -4.85980       -2.11940
H          4.29930       -3.22090       -6.16140
H          3.23970       -1.04340       -6.56560
H          0.88070        0.57920       -4.27860
H          2.19700        0.82750       -5.43470
H         -0.36770       -0.32290       -6.32480
H          1.20400        2.08540       -6.92080
H         -1.39910        1.02870       -8.12060
H         -1.32180        1.69990      -10.42750
H         -2.07960        2.59760      -12.57600
H         -1.72230        4.27760      -13.02090
H          0.54320        3.63740      -13.33510
H          0.20870        2.08690      -12.92940
H         -0.44630        5.73700      -11.47360
H          0.17190        6.18580       -9.14300
H         -0.48260        3.98080       -6.34820
H         -0.25350        5.65070       -6.91010
H          2.16650        4.66800       -7.37740
H          1.06900        3.75940       -4.79780
H          3.90970        3.48060       -5.91880
H          4.99600        1.41250       -4.58810
H          6.86680        1.09930       -3.07910
H          8.80460        0.33410       -4.32070
H         10.65720       -0.31820       -5.14550
H         11.33420       -1.38630       -6.38180
H          9.48400       -0.84570       -7.93550
H          8.73660        0.20400       -6.73120
H         10.29720        0.64300       -7.43760
H          5.23630       -2.87180       -3.16790
H          0.05590        1.49350       -1.70450
H         -1.80510        2.38240       -0.44130
H         -4.04450        4.03890        2.01970
H         -3.51710        3.20030        0.55650
H         -2.12000        5.60970        1.84960
H         -3.08590        5.66130        0.36890
H         -1.55050        4.78490        0.39570
H          2.31760        1.04340        1.90310
H          2.09210       -1.21390        1.41150
H          4.32300       -5.06570        0.25050
H          2.72420       -7.04880        0.07210
H          3.24100       -7.83850       -2.21050
H          7.35440       -8.89360       -4.70490
H          7.81380       -9.33640       -3.05070
H          8.54960       -7.00190       -3.58840
H          7.33830       -6.97520       -2.30860
H          6.88930       -6.54930       -3.96470
H          6.47160       -8.61420        1.42100
H          5.01150       -3.79490        5.87840
H          4.61640       -2.79960        8.05780
H          3.50260       -1.74780       11.41380
H          4.60760       -2.21560       10.11450
H          3.65890        0.08510        9.72440
H          2.02450       -0.58160        9.79770
H          3.09370       -1.01470        8.46310
H          1.85100       -6.59960        6.56340
H          3.97960       -7.96590        6.75470
H          4.56220      -10.34340        5.87330
