
  xtb     03082206243D
 energy: -411.118556328280 gnorm: 0.000524780274 xtb: 6.4.1 (unknown)
234257  0     0  0            999 V2000
   11.2868  -11.4435    2.9038 C   0  0  0  0  0  0  0  0  0  0  0  0
   10.3540  -11.7318    1.9737 C   0  0  0  0  0  0  0  0  0  0  0  0
    9.5069  -10.6236    1.6735 C   0  0  0  0  0  0  0  0  0  0  0  0
    8.4578  -10.5585    0.7443 C   0  0  0  0  0  0  0  0  0  0  0  0
    8.0189  -11.7266   -0.0294 C   0  0  0  0  0  0  0  0  0  0  0  0
    7.7023  -12.9297    0.5989 C   0  0  0  0  0  0  0  0  0  0  0  0
    7.2155  -13.9937   -0.1302 C   0  0  0  0  0  0  0  0  0  0  0  0
    7.0424  -13.9086   -1.5102 C   0  0  0  0  0  0  0  0  0  0  0  0
    6.4179  -15.3358   -2.3480 S   0  0  0  0  0  0  0  0  0  0  0  0
    5.2388  -14.6390   -3.5647 C   0  0  0  0  0  0  0  0  0  0  0  0
    4.1682  -13.7960   -2.9021 C   0  0  0  0  0  0  0  0  0  0  0  0
    7.4087  -12.7174   -2.1295 C   0  0  0  0  0  0  0  0  0  0  0  0
    7.3265  -12.5807   -3.4704 F   0  0  0  0  0  0  0  0  0  0  0  0
    7.8687  -11.6345   -1.4088 C   0  0  0  0  0  0  0  0  0  0  0  0
    7.8187   -9.3342    0.6096 C   0  0  0  0  0  0  0  0  0  0  0  0
    8.1795   -8.1958    1.3676 C   0  0  0  0  0  0  0  0  0  0  0  0
    9.2386   -8.2541    2.2843 C   0  0  0  0  0  0  0  0  0  0  0  0
    9.6173   -7.0396    3.0211 C   0  0  0  0  0  0  0  0  0  0  0  0
    9.9559   -5.8858    2.3161 C   0  0  0  0  0  0  0  0  0  0  0  0
   10.2251   -4.7089    2.9828 C   0  0  0  0  0  0  0  0  0  0  0  0
   10.1495   -4.6426    4.3689 C   0  0  0  0  0  0  0  0  0  0  0  0
   10.4538   -3.0883    5.1750 S   0  0  0  0  0  0  0  0  0  0  0  0
    8.8425   -2.8326    6.0081 C   0  0  0  0  0  0  0  0  0  0  0  0
    7.7130   -2.6640    5.0108 C   0  0  0  0  0  0  0  0  0  0  0  0
    9.8537   -5.8109    5.0628 C   0  0  0  0  0  0  0  0  0  0  0  0
    9.5902   -6.9997    4.4099 C   0  0  0  0  0  0  0  0  0  0  0  0
    9.7944   -5.8029    6.4100 F   0  0  0  0  0  0  0  0  0  0  0  0
    9.8706   -9.4780    2.4254 C   0  0  0  0  0  0  0  0  0  0  0  0
   11.2157   -9.8137    3.4825 S   0  0  0  0  0  0  0  0  0  0  0  0
    7.3204   -7.0976    1.1185 C   0  0  0  0  0  0  0  0  0  0  0  0
    6.3498   -7.3603    0.2008 C   0  0  0  0  0  0  0  0  0  0  0  0
    6.4491   -8.9959   -0.4227 S   0  0  0  0  0  0  0  0  0  0  0  0
    5.3367   -6.4519   -0.2265 C   0  0  0  0  0  0  0  0  0  0  0  0
    4.4510   -6.5621   -1.2546 C   0  0  0  0  0  0  0  0  0  0  0  0
    3.5924   -5.4384   -1.3848 C   0  0  0  0  0  0  0  0  0  0  0  0
    2.5862   -5.2176   -2.3402 C   0  0  0  0  0  0  0  0  0  0  0  0
    2.2542   -6.2317   -3.3485 C   0  0  0  0  0  0  0  0  0  0  0  0
    2.1863   -5.9080   -4.7022 C   0  0  0  0  0  0  0  0  0  0  0  0
    1.8619   -6.8673   -5.6373 C   0  0  0  0  0  0  0  0  0  0  0  0
    1.5978   -8.1838   -5.2658 C   0  0  0  0  0  0  0  0  0  0  0  0
    1.2402   -9.3387   -6.5577 S   0  0  0  0  0  0  0  0  0  0  0  0
   -0.1200  -10.3560   -5.8728 C   0  0  0  0  0  0  0  0  0  0  0  0
   -1.3203   -9.5132   -5.4919 C   0  0  0  0  0  0  0  0  0  0  0  0
    1.6912   -8.4977   -3.9133 C   0  0  0  0  0  0  0  0  0  0  0  0
    1.4830   -9.7606   -3.4782 F   0  0  0  0  0  0  0  0  0  0  0  0
    1.9985   -7.5444   -2.9641 C   0  0  0  0  0  0  0  0  0  0  0  0
    1.9222   -4.0012   -2.2743 C   0  0  0  0  0  0  0  0  0  0  0  0
    2.1775   -3.0301   -1.2735 C   0  0  0  0  0  0  0  0  0  0  0  0
    3.1775   -3.2506   -0.3128 C   0  0  0  0  0  0  0  0  0  0  0  0
    3.4835   -2.2824    0.7477 C   0  0  0  0  0  0  0  0  0  0  0  0
    2.4875   -1.7433    1.5567 C   0  0  0  0  0  0  0  0  0  0  0  0
    2.7902   -0.8641    2.5804 C   0  0  0  0  0  0  0  0  0  0  0  0
    4.1056   -0.4929    2.8384 C   0  0  0  0  0  0  0  0  0  0  0  0
    4.6541    0.6130    4.0914 S   0  0  0  0  0  0  0  0  0  0  0  0
    3.1366    1.1299    4.9603 C   0  0  0  0  0  0  0  0  0  0  0  0
    2.6604    0.0990    5.9659 C   0  0  0  0  0  0  0  0  0  0  0  0
    5.0934   -1.0401    2.0153 C   0  0  0  0  0  0  0  0  0  0  0  0
    4.8056   -1.9095    0.9905 C   0  0  0  0  0  0  0  0  0  0  0  0
    6.3806   -0.7006    2.2293 F   0  0  0  0  0  0  0  0  0  0  0  0
    3.8731   -4.4460   -0.4130 C   0  0  0  0  0  0  0  0  0  0  0  0
    5.1590   -4.9446    0.6505 S   0  0  0  0  0  0  0  0  0  0  0  0
    1.3514   -1.8888   -1.4232 C   0  0  0  0  0  0  0  0  0  0  0  0
    0.4898   -1.9708   -2.4765 C   0  0  0  0  0  0  0  0  0  0  0  0
    0.6563   -3.4749   -3.3551 S   0  0  0  0  0  0  0  0  0  0  0  0
   -0.4523   -0.9665   -2.8660 C   0  0  0  0  0  0  0  0  0  0  0  0
   -0.9883   -0.0163   -2.0496 C   0  0  0  0  0  0  0  0  0  0  0  0
   -1.8325    0.9011   -2.7212 C   0  0  0  0  0  0  0  0  0  0  0  0
   -2.5233    1.9923   -2.1670 C   0  0  0  0  0  0  0  0  0  0  0  0
   -2.5897    2.1928   -0.7159 C   0  0  0  0  0  0  0  0  0  0  0  0
   -2.3758    3.4374   -0.1253 C   0  0  0  0  0  0  0  0  0  0  0  0
   -2.4590    3.5874    1.2420 C   0  0  0  0  0  0  0  0  0  0  0  0
   -2.7592    2.5115    2.0751 C   0  0  0  0  0  0  0  0  0  0  0  0
   -2.8758    2.8477    3.8055 S   0  0  0  0  0  0  0  0  0  0  0  0
   -2.1897    1.3655    4.6301 C   0  0  0  0  0  0  0  0  0  0  0  0
   -0.7464    1.1133    4.2429 C   0  0  0  0  0  0  0  0  0  0  0  0
   -3.0015    1.2824    1.4712 C   0  0  0  0  0  0  0  0  0  0  0  0
   -3.3395    0.2005    2.2074 F   0  0  0  0  0  0  0  0  0  0  0  0
   -2.9096    1.1149    0.1056 C   0  0  0  0  0  0  0  0  0  0  0  0
   -3.1514    2.8407   -3.0626 C   0  0  0  0  0  0  0  0  0  0  0  0
   -3.1939    2.6066   -4.4602 C   0  0  0  0  0  0  0  0  0  0  0  0
   -2.5910    1.4555   -4.9992 C   0  0  0  0  0  0  0  0  0  0  0  0
   -2.7015    1.1466   -6.4281 C   0  0  0  0  0  0  0  0  0  0  0  0
   -1.5889    0.8033   -7.1899 C   0  0  0  0  0  0  0  0  0  0  0  0
   -1.7038    0.5153   -8.5360 C   0  0  0  0  0  0  0  0  0  0  0  0
   -2.9400    0.5507   -9.1716 C   0  0  0  0  0  0  0  0  0  0  0  0
   -3.2295    0.2277  -10.8773 S   0  0  0  0  0  0  0  0  0  0  0  0
   -1.6872   -0.5607  -11.4536 C   0  0  0  0  0  0  0  0  0  0  0  0
   -1.5140   -1.9622  -10.9001 C   0  0  0  0  0  0  0  0  0  0  0  0
   -4.0472    0.9021   -8.3957 C   0  0  0  0  0  0  0  0  0  0  0  0
   -3.9464    1.1957   -7.0558 C   0  0  0  0  0  0  0  0  0  0  0  0
   -5.2636    0.9611   -8.9763 F   0  0  0  0  0  0  0  0  0  0  0  0
   -1.8920    0.6468   -4.1131 C   0  0  0  0  0  0  0  0  0  0  0  0
   -0.9870   -0.7899   -4.5236 S   0  0  0  0  0  0  0  0  0  0  0  0
   -3.8173    3.6742   -5.1577 C   0  0  0  0  0  0  0  0  0  0  0  0
   -4.2477    4.6809   -4.3405 C   0  0  0  0  0  0  0  0  0  0  0  0
   -3.9660    4.3202   -2.6464 S   0  0  0  0  0  0  0  0  0  0  0  0
   -4.7537    5.9694   -4.6552 C   0  0  0  0  0  0  0  0  0  0  0  0
   -4.7267    7.1864   -3.3999 S   0  0  0  0  0  0  0  0  0  0  0  0
   -5.2633    8.4695   -4.4411 C   0  0  0  0  0  0  0  0  0  0  0  0
   -5.4939    7.9481   -5.7131 C   0  0  0  0  0  0  0  0  0  0  0  0
   -5.2031    6.5504   -5.8239 C   0  0  0  0  0  0  0  0  0  0  0  0
   -5.4505    6.1653   -7.1051 N   0  0  0  0  0  0  0  0  0  0  0  0
   -5.8946    7.2707   -7.8074 C   0  0  0  0  0  0  0  0  0  0  0  0
   -6.2375    7.1981   -9.1638 C   0  0  0  0  0  0  0  0  0  0  0  0
   -6.5157    7.1543  -10.2764 N   0  0  0  0  0  0  0  0  0  0  0  0
   -5.9261    8.3789   -6.9896 C   0  0  0  0  0  0  0  0  0  0  0  0
   -5.2736    9.8413   -4.0643 C   0  0  0  0  0  0  0  0  0  0  0  0
   -4.9504   10.3680   -2.8652 C   0  0  0  0  0  0  0  0  0  0  0  0
   -4.7168    9.6116   -1.6565 C   0  0  0  0  0  0  0  0  0  0  0  0
   -5.5429    8.7038   -1.0723 C   0  0  0  0  0  0  0  0  0  0  0  0
   -5.0305    8.1408    0.1260 C   0  0  0  0  0  0  0  0  0  0  0  0
   -5.6379    7.1827    0.9520 C   0  0  0  0  0  0  0  0  0  0  0  0
   -6.8994    6.5440    0.5589 C   0  0  0  0  0  0  0  0  0  0  0  0
   -8.0021    6.4977    1.4079 C   0  0  0  0  0  0  0  0  0  0  0  0
   -9.1796    5.9130    0.9915 C   0  0  0  0  0  0  0  0  0  0  0  0
   -9.2993    5.3370   -0.2719 C   0  0  0  0  0  0  0  0  0  0  0  0
  -10.8521    4.5953   -0.6826 S   0  0  0  0  0  0  0  0  0  0  0  0
  -11.1061    5.0504   -2.4386 C   0  0  0  0  0  0  0  0  0  0  0  0
  -11.0736    6.5511   -2.6484 C   0  0  0  0  0  0  0  0  0  0  0  0
   -8.1730    5.3485   -1.0896 C   0  0  0  0  0  0  0  0  0  0  0  0
   -8.1905    4.7641   -2.3098 F   0  0  0  0  0  0  0  0  0  0  0  0
   -6.9972    5.9529   -0.6972 C   0  0  0  0  0  0  0  0  0  0  0  0
   -4.9690    6.8520    2.1192 C   0  0  0  0  0  0  0  0  0  0  0  0
   -3.6829    7.3548    2.4372 C   0  0  0  0  0  0  0  0  0  0  0  0
   -3.0492    8.2707    1.5794 C   0  0  0  0  0  0  0  0  0  0  0  0
   -1.6905    8.7493    1.8581 C   0  0  0  0  0  0  0  0  0  0  0  0
   -0.6617    7.8465    2.1289 C   0  0  0  0  0  0  0  0  0  0  0  0
    0.6180    8.2900    2.3771 C   0  0  0  0  0  0  0  0  0  0  0  0
    0.9279    9.6507    2.3791 C   0  0  0  0  0  0  0  0  0  0  0  0
    2.5939   10.0864    2.7591 S   0  0  0  0  0  0  0  0  0  0  0  0
    2.8746   11.6556    1.8458 C   0  0  0  0  0  0  0  0  0  0  0  0
    4.3654   11.8339    1.6363 C   0  0  0  0  0  0  0  0  0  0  0  0
   -0.1121   10.5408    2.1266 C   0  0  0  0  0  0  0  0  0  0  0  0
   -1.3942   10.1073    1.8547 C   0  0  0  0  0  0  0  0  0  0  0  0
    0.0947   11.8764    2.1549 F   0  0  0  0  0  0  0  0  0  0  0  0
   -3.7665    8.6801    0.4641 C   0  0  0  0  0  0  0  0  0  0  0  0
   -3.2492    9.8515   -0.7223 S   0  0  0  0  0  0  0  0  0  0  0  0
   -3.2167    6.8590    3.6823 C   0  0  0  0  0  0  0  0  0  0  0  0
   -4.0979    6.0198    4.3011 C   0  0  0  0  0  0  0  0  0  0  0  0
   -5.5509    5.7683    3.3543 S   0  0  0  0  0  0  0  0  0  0  0  0
   -3.9303    5.3511    5.5473 C   0  0  0  0  0  0  0  0  0  0  0  0
   -5.2740    4.8414    6.5301 S   0  0  0  0  0  0  0  0  0  0  0  0
   -4.2753    4.0728    7.7293 C   0  0  0  0  0  0  0  0  0  0  0  0
   -2.9381    4.1909    7.3638 C   0  0  0  0  0  0  0  0  0  0  0  0
   -2.7626    4.9263    6.1484 C   0  0  0  0  0  0  0  0  0  0  0  0
   -1.4390    4.9359    5.8354 N   0  0  0  0  0  0  0  0  0  0  0  0
   -0.7717    4.1868    6.7860 C   0  0  0  0  0  0  0  0  0  0  0  0
    0.5917    3.8968    6.6745 C   0  0  0  0  0  0  0  0  0  0  0  0
    1.6973    3.6055    6.5610 N   0  0  0  0  0  0  0  0  0  0  0  0
   -1.6511    3.7374    7.7477 C   0  0  0  0  0  0  0  0  0  0  0  0
   -4.9029    3.4583    8.8575 C   0  0  0  0  0  0  0  0  0  0  0  0
   -4.2708    2.9004    9.8914 C   0  0  0  0  0  0  0  0  0  0  0  0
   12.0399  -12.0942    3.3036 H   0  0  0  0  0  0  0  0  0  0  0  0
   10.2657  -12.6892    1.4931 H   0  0  0  0  0  0  0  0  0  0  0  0
    7.8014  -13.0143    1.6704 H   0  0  0  0  0  0  0  0  0  0  0  0
    6.9484  -14.9163    0.3612 H   0  0  0  0  0  0  0  0  0  0  0  0
    5.7931  -14.0791   -4.3145 H   0  0  0  0  0  0  0  0  0  0  0  0
    4.8097  -15.5266   -4.0297 H   0  0  0  0  0  0  0  0  0  0  0  0
    3.4497  -13.4645   -3.6489 H   0  0  0  0  0  0  0  0  0  0  0  0
    4.6009  -12.9152   -2.4310 H   0  0  0  0  0  0  0  0  0  0  0  0
    3.6434  -14.3715   -2.1423 H   0  0  0  0  0  0  0  0  0  0  0  0
    8.1330  -10.7335   -1.9401 H   0  0  0  0  0  0  0  0  0  0  0  0
   10.0040   -5.9177    1.2380 H   0  0  0  0  0  0  0  0  0  0  0  0
   10.4784   -3.8130    2.4379 H   0  0  0  0  0  0  0  0  0  0  0  0
    8.9904   -1.9251    6.5922 H   0  0  0  0  0  0  0  0  0  0  0  0
    8.6709   -3.6681    6.6847 H   0  0  0  0  0  0  0  0  0  0  0  0
    7.9175   -1.8379    4.3336 H   0  0  0  0  0  0  0  0  0  0  0  0
    7.5776   -3.5695    4.4204 H   0  0  0  0  0  0  0  0  0  0  0  0
    6.7846   -2.4546    5.5387 H   0  0  0  0  0  0  0  0  0  0  0  0
    9.3472   -7.8772    4.9887 H   0  0  0  0  0  0  0  0  0  0  0  0
    7.4101   -6.1483    1.6160 H   0  0  0  0  0  0  0  0  0  0  0  0
    4.4335   -7.4107   -1.9147 H   0  0  0  0  0  0  0  0  0  0  0  0
    2.4007   -4.9007   -5.0237 H   0  0  0  0  0  0  0  0  0  0  0  0
    1.8090   -6.6128   -6.6843 H   0  0  0  0  0  0  0  0  0  0  0  0
   -0.3594  -11.0350   -6.6913 H   0  0  0  0  0  0  0  0  0  0  0  0
    0.2568  -10.9339   -5.0319 H   0  0  0  0  0  0  0  0  0  0  0  0
   -2.1318  -10.1593   -5.1632 H   0  0  0  0  0  0  0  0  0  0  0  0
   -1.6616   -8.9277   -6.3431 H   0  0  0  0  0  0  0  0  0  0  0  0
   -1.0740   -8.8307   -4.6803 H   0  0  0  0  0  0  0  0  0  0  0  0
    2.0275   -7.8366   -1.9256 H   0  0  0  0  0  0  0  0  0  0  0  0
    1.4600   -2.0387    1.4041 H   0  0  0  0  0  0  0  0  0  0  0  0
    1.9858   -0.4729    3.1820 H   0  0  0  0  0  0  0  0  0  0  0  0
    3.4202    2.0504    5.4691 H   0  0  0  0  0  0  0  0  0  0  0  0
    2.3803    1.3681    4.2143 H   0  0  0  0  0  0  0  0  0  0  0  0
    3.4476   -0.1094    6.6864 H   0  0  0  0  0  0  0  0  0  0  0  0
    1.7975    0.4889    6.5024 H   0  0  0  0  0  0  0  0  0  0  0  0
    2.3852   -0.8358    5.4811 H   0  0  0  0  0  0  0  0  0  0  0  0
    5.6122   -2.2756    0.3759 H   0  0  0  0  0  0  0  0  0  0  0  0
    1.4277   -1.0206   -0.7950 H   0  0  0  0  0  0  0  0  0  0  0  0
   -0.7740    0.0386   -0.9982 H   0  0  0  0  0  0  0  0  0  0  0  0
   -2.1146    4.2876   -0.7352 H   0  0  0  0  0  0  0  0  0  0  0  0
   -2.2945    4.5535    1.6944 H   0  0  0  0  0  0  0  0  0  0  0  0
   -2.2770    1.6073    5.6900 H   0  0  0  0  0  0  0  0  0  0  0  0
   -2.8267    0.5120    4.4105 H   0  0  0  0  0  0  0  0  0  0  0  0
   -0.3735    0.2444    4.7817 H   0  0  0  0  0  0  0  0  0  0  0  0
   -0.1251    1.9718    4.4932 H   0  0  0  0  0  0  0  0  0  0  0  0
   -0.6618    0.9213    3.1741 H   0  0  0  0  0  0  0  0  0  0  0  0
   -3.1279    0.1441   -0.3118 H   0  0  0  0  0  0  0  0  0  0  0  0
   -0.6120    0.7851   -6.7321 H   0  0  0  0  0  0  0  0  0  0  0  0
   -0.8124    0.2718   -9.0904 H   0  0  0  0  0  0  0  0  0  0  0  0
   -0.8492    0.0919  -11.2117 H   0  0  0  0  0  0  0  0  0  0  0  0
   -1.8055   -0.5837  -12.5370 H   0  0  0  0  0  0  0  0  0  0  0  0
   -2.3587   -2.5845  -11.1861 H   0  0  0  0  0  0  0  0  0  0  0  0
   -0.6040   -2.4066  -11.2983 H   0  0  0  0  0  0  0  0  0  0  0  0
   -1.4493   -1.9509   -9.8140 H   0  0  0  0  0  0  0  0  0  0  0  0
   -4.8401    1.4326   -6.4994 H   0  0  0  0  0  0  0  0  0  0  0  0
   -3.8710    3.7192   -6.2303 H   0  0  0  0  0  0  0  0  0  0  0  0
   -5.3829    5.2356   -7.4822 H   0  0  0  0  0  0  0  0  0  0  0  0
   -6.2291    9.3645   -7.2803 H   0  0  0  0  0  0  0  0  0  0  0  0
   -5.4895   10.5189   -4.8803 H   0  0  0  0  0  0  0  0  0  0  0  0
   -4.8343   11.4404   -2.7834 H   0  0  0  0  0  0  0  0  0  0  0  0
   -6.5149    8.4656   -1.4655 H   0  0  0  0  0  0  0  0  0  0  0  0
   -7.9459    6.9495    2.3860 H   0  0  0  0  0  0  0  0  0  0  0  0
  -10.0399    5.8958    1.6421 H   0  0  0  0  0  0  0  0  0  0  0  0
  -10.3669    4.5366   -3.0493 H   0  0  0  0  0  0  0  0  0  0  0  0
  -12.0932    4.6444   -2.6601 H   0  0  0  0  0  0  0  0  0  0  0  0
  -10.0868    6.9534   -2.4257 H   0  0  0  0  0  0  0  0  0  0  0  0
  -11.3122    6.7814   -3.6849 H   0  0  0  0  0  0  0  0  0  0  0  0
  -11.7999    7.0426   -2.0044 H   0  0  0  0  0  0  0  0  0  0  0  0
   -6.1483    5.9279   -1.3631 H   0  0  0  0  0  0  0  0  0  0  0  0
   -0.8655    6.7862    2.1067 H   0  0  0  0  0  0  0  0  0  0  0  0
    1.4142    7.5880    2.5722 H   0  0  0  0  0  0  0  0  0  0  0  0
    2.4583   12.4746    2.4299 H   0  0  0  0  0  0  0  0  0  0  0  0
    2.3494   11.5736    0.8956 H   0  0  0  0  0  0  0  0  0  0  0  0
    4.5509   12.7566    1.0909 H   0  0  0  0  0  0  0  0  0  0  0  0
    4.8820   11.8841    2.5921 H   0  0  0  0  0  0  0  0  0  0  0  0
    4.7742   11.0019    1.0673 H   0  0  0  0  0  0  0  0  0  0  0  0
   -2.1606   10.8447    1.6749 H   0  0  0  0  0  0  0  0  0  0  0  0
   -2.2916    7.1745    4.1308 H   0  0  0  0  0  0  0  0  0  0  0  0
   -1.0338    5.2848    4.9844 H   0  0  0  0  0  0  0  0  0  0  0  0
   -1.3853    3.1424    8.5978 H   0  0  0  0  0  0  0  0  0  0  0  0
   -5.9850    3.4735    8.8352 H   0  0  0  0  0  0  0  0  0  0  0  0
   -4.8183    2.4557   10.7029 H   0  0  0  0  0  0  0  0  0  0  0  0
   -3.1986    2.8747    9.9613 H   0  0  0  0  0  0  0  0  0  0  0  0
  1  2  2  0  0  0  0
  2  3  1  0  0  0  0
  3  4  2  0  0  0  0
  4  5  1  0  0  0  0
  5  6  2  0  0  0  0
  6  7  1  0  0  0  0
  7  8  2  0  0  0  0
  8  9  1  0  0  0  0
  9 10  1  0  0  0  0
 10 11  1  0  0  0  0
  8 12  1  0  0  0  0
 12 13  1  0  0  0  0
 12 14  2  0  0  0  0
  4 15  1  0  0  0  0
 15 16  2  0  0  0  0
 16 17  1  0  0  0  0
 17 18  1  0  0  0  0
 18 19  2  0  0  0  0
 19 20  1  0  0  0  0
 20 21  2  0  0  0  0
 21 22  1  0  0  0  0
 22 23  1  0  0  0  0
 23 24  1  0  0  0  0
 21 25  1  0  0  0  0
 25 26  2  0  0  0  0
 25 27  1  0  0  0  0
 17 28  2  0  0  0  0
 28 29  1  0  0  0  0
 16 30  1  0  0  0  0
 30 31  2  0  0  0  0
 31 32  1  0  0  0  0
 31 33  1  0  0  0  0
 33 34  2  0  0  0  0
 34 35  1  0  0  0  0
 35 36  2  0  0  0  0
 36 37  1  0  0  0  0
 37 38  2  0  0  0  0
 38 39  1  0  0  0  0
 39 40  2  0  0  0  0
 40 41  1  0  0  0  0
 41 42  1  0  0  0  0
 42 43  1  0  0  0  0
 40 44  1  0  0  0  0
 44 45  1  0  0  0  0
 44 46  2  0  0  0  0
 36 47  1  0  0  0  0
 47 48  2  0  0  0  0
 48 49  1  0  0  0  0
 49 50  1  0  0  0  0
 50 51  2  0  0  0  0
 51 52  1  0  0  0  0
 52 53  2  0  0  0  0
 53 54  1  0  0  0  0
 54 55  1  0  0  0  0
 55 56  1  0  0  0  0
 53 57  1  0  0  0  0
 57 58  2  0  0  0  0
 57 59  1  0  0  0  0
 49 60  2  0  0  0  0
 60 61  1  0  0  0  0
 48 62  1  0  0  0  0
 62 63  2  0  0  0  0
 63 64  1  0  0  0  0
 63 65  1  0  0  0  0
 65 66  2  0  0  0  0
 66 67  1  0  0  0  0
 67 68  2  0  0  0  0
 68 69  1  0  0  0  0
 69 70  2  0  0  0  0
 70 71  1  0  0  0  0
 71 72  2  0  0  0  0
 72 73  1  0  0  0  0
 73 74  1  0  0  0  0
 74 75  1  0  0  0  0
 72 76  1  0  0  0  0
 76 77  1  0  0  0  0
 76 78  2  0  0  0  0
 68 79  1  0  0  0  0
 79 80  2  0  0  0  0
 80 81  1  0  0  0  0
 81 82  1  0  0  0  0
 82 83  2  0  0  0  0
 83 84  1  0  0  0  0
 84 85  2  0  0  0  0
 85 86  1  0  0  0  0
 86 87  1  0  0  0  0
 87 88  1  0  0  0  0
 85 89  1  0  0  0  0
 89 90  2  0  0  0  0
 89 91  1  0  0  0  0
 81 92  2  0  0  0  0
 92 93  1  0  0  0  0
 80 94  1  0  0  0  0
 94 95  2  0  0  0  0
 95 96  1  0  0  0  0
 95 97  1  0  0  0  0
 97 98  1  0  0  0  0
 98 99  1  0  0  0  0
 99100  2  0  0  0  0
100101  1  0  0  0  0
101102  1  0  0  0  0
102103  1  0  0  0  0
103104  1  0  0  0  0
104105  3  0  0  0  0
103106  2  0  0  0  0
 99107  1  0  0  0  0
107108  2  0  0  0  0
108109  1  0  0  0  0
109110  2  0  0  0  0
110111  1  0  0  0  0
111112  2  0  0  0  0
112113  1  0  0  0  0
113114  2  0  0  0  0
114115  1  0  0  0  0
115116  2  0  0  0  0
116117  1  0  0  0  0
117118  1  0  0  0  0
118119  1  0  0  0  0
116120  1  0  0  0  0
120121  1  0  0  0  0
120122  2  0  0  0  0
112123  1  0  0  0  0
123124  2  0  0  0  0
124125  1  0  0  0  0
125126  1  0  0  0  0
126127  2  0  0  0  0
127128  1  0  0  0  0
128129  2  0  0  0  0
129130  1  0  0  0  0
130131  1  0  0  0  0
131132  1  0  0  0  0
129133  1  0  0  0  0
133134  2  0  0  0  0
133135  1  0  0  0  0
125136  2  0  0  0  0
136137  1  0  0  0  0
124138  1  0  0  0  0
138139  2  0  0  0  0
139140  1  0  0  0  0
139141  1  0  0  0  0
141142  1  0  0  0  0
142143  1  0  0  0  0
143144  2  0  0  0  0
144145  1  0  0  0  0
145146  1  0  0  0  0
146147  1  0  0  0  0
147148  1  0  0  0  0
148149  3  0  0  0  0
147150  2  0  0  0  0
143151  1  0  0  0  0
151152  2  0  0  0  0
 29  1  1  0  0  0  0
 61 33  1  0  0  0  0
 93 65  1  0  0  0  0
101 97  2  0  0  0  0
137109  1  0  0  0  0
145141  2  0  0  0  0
 28  3  1  0  0  0  0
 60 35  1  0  0  0  0
 92 67  1  0  0  0  0
106100  1  0  0  0  0
136111  1  0  0  0  0
150144  1  0  0  0  0
 14  5  1  0  0  0  0
 32 15  1  0  0  0  0
 46 37  1  0  0  0  0
 64 47  1  0  0  0  0
 78 69  1  0  0  0  0
 96 79  1  0  0  0  0
122113  1  0  0  0  0
140123  1  0  0  0  0
 26 18  1  0  0  0  0
 58 50  1  0  0  0  0
 90 82  1  0  0  0  0
134126  1  0  0  0  0
  1153  1  0  0  0  0
  2154  1  0  0  0  0
  6155  1  0  0  0  0
  7156  1  0  0  0  0
 10157  1  0  0  0  0
 10158  1  0  0  0  0
 11159  1  0  0  0  0
 11160  1  0  0  0  0
 11161  1  0  0  0  0
 14162  1  0  0  0  0
 19163  1  0  0  0  0
 20164  1  0  0  0  0
 23165  1  0  0  0  0
 23166  1  0  0  0  0
 24167  1  0  0  0  0
 24168  1  0  0  0  0
 24169  1  0  0  0  0
 26170  1  0  0  0  0
 30171  1  0  0  0  0
 34172  1  0  0  0  0
 38173  1  0  0  0  0
 39174  1  0  0  0  0
 42175  1  0  0  0  0
 42176  1  0  0  0  0
 43177  1  0  0  0  0
 43178  1  0  0  0  0
 43179  1  0  0  0  0
 46180  1  0  0  0  0
 51181  1  0  0  0  0
 52182  1  0  0  0  0
 55183  1  0  0  0  0
 55184  1  0  0  0  0
 56185  1  0  0  0  0
 56186  1  0  0  0  0
 56187  1  0  0  0  0
 58188  1  0  0  0  0
 62189  1  0  0  0  0
 66190  1  0  0  0  0
 70191  1  0  0  0  0
 71192  1  0  0  0  0
 74193  1  0  0  0  0
 74194  1  0  0  0  0
 75195  1  0  0  0  0
 75196  1  0  0  0  0
 75197  1  0  0  0  0
 78198  1  0  0  0  0
 83199  1  0  0  0  0
 84200  1  0  0  0  0
 87201  1  0  0  0  0
 87202  1  0  0  0  0
 88203  1  0  0  0  0
 88204  1  0  0  0  0
 88205  1  0  0  0  0
 90206  1  0  0  0  0
 94207  1  0  0  0  0
102208  1  0  0  0  0
106209  1  0  0  0  0
107210  1  0  0  0  0
108211  1  0  0  0  0
110212  1  0  0  0  0
114213  1  0  0  0  0
115214  1  0  0  0  0
118215  1  0  0  0  0
118216  1  0  0  0  0
119217  1  0  0  0  0
119218  1  0  0  0  0
119219  1  0  0  0  0
122220  1  0  0  0  0
127221  1  0  0  0  0
128222  1  0  0  0  0
131223  1  0  0  0  0
131224  1  0  0  0  0
132225  1  0  0  0  0
132226  1  0  0  0  0
132227  1  0  0  0  0
134228  1  0  0  0  0
138229  1  0  0  0  0
146230  1  0  0  0  0
150231  1  0  0  0  0
151232  1  0  0  0  0
152233  1  0  0  0  0
152234  1  0  0  0  0
M  END
