
  xtb     03042216043D
 energy: -448.218770705651 gnorm: 0.000396362091 xtb: 6.4.1 (unknown)
256281  0     0  0            999 V2000
    2.6599   -4.1265    5.8857 C   0  0  0  0  0  0  0  0  0  0  0  0
    1.5698   -3.9065    6.6448 C   0  0  0  0  0  0  0  0  0  0  0  0
    0.4820   -3.3489    5.9067 C   0  0  0  0  0  0  0  0  0  0  0  0
   -0.7793   -2.9689    6.3866 C   0  0  0  0  0  0  0  0  0  0  0  0
   -1.1272   -3.0461    7.8105 C   0  0  0  0  0  0  0  0  0  0  0  0
   -0.3112   -2.4698    8.7790 C   0  0  0  0  0  0  0  0  0  0  0  0
   -0.6532   -2.5105   10.1168 C   0  0  0  0  0  0  0  0  0  0  0  0
   -1.8251   -3.1320   10.5330 C   0  0  0  0  0  0  0  0  0  0  0  0
   -2.3703   -3.2762   12.2013 S   0  0  0  0  0  0  0  0  0  0  0  0
   -1.3647   -2.0509   13.1087 C   0  0  0  0  0  0  0  0  0  0  0  0
   -1.7430   -0.6240   12.7602 C   0  0  0  0  0  0  0  0  0  0  0  0
   -2.6274   -3.7163    9.5500 C   0  0  0  0  0  0  0  0  0  0  0  0
   -3.7604   -4.3417    9.9217 F   0  0  0  0  0  0  0  0  0  0  0  0
   -2.3028   -3.6765    8.2131 C   0  0  0  0  0  0  0  0  0  0  0  0
   -1.6778   -2.4736    5.4516 C   0  0  0  0  0  0  0  0  0  0  0  0
   -1.3789   -2.3947    4.0712 C   0  0  0  0  0  0  0  0  0  0  0  0
   -0.1145   -2.7698    3.5862 C   0  0  0  0  0  0  0  0  0  0  0  0
    0.1953   -2.6700    2.1548 C   0  0  0  0  0  0  0  0  0  0  0  0
    1.3658   -2.0630    1.7032 C   0  0  0  0  0  0  0  0  0  0  0  0
    1.6069   -1.9109    0.3524 C   0  0  0  0  0  0  0  0  0  0  0  0
    0.6930   -2.3600   -0.5939 C   0  0  0  0  0  0  0  0  0  0  0  0
    1.0620   -2.1607   -2.3205 S   0  0  0  0  0  0  0  0  0  0  0  0
   -0.4116   -1.2626   -2.9281 C   0  0  0  0  0  0  0  0  0  0  0  0
   -0.4756    0.1422   -2.3621 C   0  0  0  0  0  0  0  0  0  0  0  0
   -0.4464   -3.0115   -0.1348 C   0  0  0  0  0  0  0  0  0  0  0  0
   -0.7046   -3.1623    1.2112 C   0  0  0  0  0  0  0  0  0  0  0  0
   -1.3401   -3.5136   -1.0122 F   0  0  0  0  0  0  0  0  0  0  0  0
    0.8036   -3.2033    4.5342 C   0  0  0  0  0  0  0  0  0  0  0  0
    2.4505   -3.6904    4.2239 S   0  0  0  0  0  0  0  0  0  0  0  0
   -2.4490   -1.8059    3.3493 C   0  0  0  0  0  0  0  0  0  0  0  0
   -3.4886   -1.4108    4.1303 C   0  0  0  0  0  0  0  0  0  0  0  0
   -3.2464   -1.7924    5.8127 S   0  0  0  0  0  0  0  0  0  0  0  0
   -4.6131   -0.6998    3.5582 C   0  0  0  0  0  0  0  0  0  0  0  0
   -4.9070    0.6243    3.6256 C   0  0  0  0  0  0  0  0  0  0  0  0
   -5.7292    1.0731    2.5499 C   0  0  0  0  0  0  0  0  0  0  0  0
   -5.9476    2.3927    2.1152 C   0  0  0  0  0  0  0  0  0  0  0  0
   -5.5173    3.5707    2.8810 C   0  0  0  0  0  0  0  0  0  0  0  0
   -6.4229    4.5956    3.1364 C   0  0  0  0  0  0  0  0  0  0  0  0
   -6.0496    5.7235    3.8410 C   0  0  0  0  0  0  0  0  0  0  0  0
   -4.7496    5.8696    4.3116 C   0  0  0  0  0  0  0  0  0  0  0  0
   -4.1298    7.2571    5.2019 S   0  0  0  0  0  0  0  0  0  0  0  0
   -5.6262    8.1715    5.7104 C   0  0  0  0  0  0  0  0  0  0  0  0
   -6.4078    7.4450    6.7884 C   0  0  0  0  0  0  0  0  0  0  0  0
   -3.8456    4.8451    4.0243 C   0  0  0  0  0  0  0  0  0  0  0  0
   -2.5673    4.9639    4.4388 F   0  0  0  0  0  0  0  0  0  0  0  0
   -4.2057    3.7141    3.3268 C   0  0  0  0  0  0  0  0  0  0  0  0
   -6.4759    2.5473    0.8416 C   0  0  0  0  0  0  0  0  0  0  0  0
   -6.8957    1.4616    0.0345 C   0  0  0  0  0  0  0  0  0  0  0  0
   -6.7525    0.1467    0.4957 C   0  0  0  0  0  0  0  0  0  0  0  0
   -7.0122   -1.0289   -0.3478 C   0  0  0  0  0  0  0  0  0  0  0  0
   -6.4042   -1.1685   -1.5929 C   0  0  0  0  0  0  0  0  0  0  0  0
   -6.6067   -2.2954   -2.3652 C   0  0  0  0  0  0  0  0  0  0  0  0
   -7.4316   -3.3236   -1.9210 C   0  0  0  0  0  0  0  0  0  0  0  0
   -7.7647   -4.8098   -2.8001 S   0  0  0  0  0  0  0  0  0  0  0  0
   -7.2774   -4.4239   -4.5156 C   0  0  0  0  0  0  0  0  0  0  0  0
   -8.1873   -3.3949   -5.1572 C   0  0  0  0  0  0  0  0  0  0  0  0
   -8.0110   -3.1818   -0.6578 C   0  0  0  0  0  0  0  0  0  0  0  0
   -7.8108   -2.0673    0.1252 C   0  0  0  0  0  0  0  0  0  0  0  0
   -8.7946   -4.1686   -0.1827 F   0  0  0  0  0  0  0  0  0  0  0  0
   -6.1350   -0.0048    1.7263 C   0  0  0  0  0  0  0  0  0  0  0  0
   -5.4905   -1.5208    2.2846 S   0  0  0  0  0  0  0  0  0  0  0  0
   -7.1375    1.8524   -1.3032 C   0  0  0  0  0  0  0  0  0  0  0  0
   -6.7563    3.1363   -1.5731 C   0  0  0  0  0  0  0  0  0  0  0  0
   -6.3887    4.0265   -0.0966 S   0  0  0  0  0  0  0  0  0  0  0  0
   -6.2127    3.5322   -2.8337 C   0  0  0  0  0  0  0  0  0  0  0  0
   -5.3240    4.5385   -3.0834 C   0  0  0  0  0  0  0  0  0  0  0  0
   -4.4286    4.2549   -4.1511 C   0  0  0  0  0  0  0  0  0  0  0  0
   -3.2267    4.9267   -4.4493 C   0  0  0  0  0  0  0  0  0  0  0  0
   -3.0025    6.2819   -3.9391 C   0  0  0  0  0  0  0  0  0  0  0  0
   -4.0061    7.2442   -4.0729 C   0  0  0  0  0  0  0  0  0  0  0  0
   -3.8228    8.5224   -3.5989 C   0  0  0  0  0  0  0  0  0  0  0  0
   -2.6375    8.9059   -2.9657 C   0  0  0  0  0  0  0  0  0  0  0  0
   -2.5496   10.5846   -2.4420 S   0  0  0  0  0  0  0  0  0  0  0  0
   -1.2649   10.6261   -1.1298 C   0  0  0  0  0  0  0  0  0  0  0  0
   -1.4180   11.9173   -0.3500 C   0  0  0  0  0  0  0  0  0  0  0  0
   -1.6422    7.9396   -2.8505 C   0  0  0  0  0  0  0  0  0  0  0  0
   -0.4537    8.2216   -2.2705 F   0  0  0  0  0  0  0  0  0  0  0  0
   -1.8158    6.6518   -3.3168 C   0  0  0  0  0  0  0  0  0  0  0  0
   -2.2817    4.2045   -5.1675 C   0  0  0  0  0  0  0  0  0  0  0  0
   -2.5152    2.8916   -5.6545 C   0  0  0  0  0  0  0  0  0  0  0  0
   -3.7736    2.2889   -5.4887 C   0  0  0  0  0  0  0  0  0  0  0  0
   -4.0628    0.9119   -5.9117 C   0  0  0  0  0  0  0  0  0  0  0  0
   -3.2455   -0.1467   -5.5183 C   0  0  0  0  0  0  0  0  0  0  0  0
   -3.5470   -1.4411   -5.8838 C   0  0  0  0  0  0  0  0  0  0  0  0
   -4.6765   -1.7322   -6.6453 C   0  0  0  0  0  0  0  0  0  0  0  0
   -4.9792   -3.4323   -7.0407 S   0  0  0  0  0  0  0  0  0  0  0  0
   -5.5242   -3.3843   -8.7868 C   0  0  0  0  0  0  0  0  0  0  0  0
   -4.4853   -2.7469   -9.6868 C   0  0  0  0  0  0  0  0  0  0  0  0
   -5.5092   -0.6721   -6.9899 C   0  0  0  0  0  0  0  0  0  0  0  0
   -5.2111    0.6307   -6.6438 C   0  0  0  0  0  0  0  0  0  0  0  0
   -6.6501   -0.8906   -7.6782 F   0  0  0  0  0  0  0  0  0  0  0  0
   -4.6931    2.9911   -4.7317 C   0  0  0  0  0  0  0  0  0  0  0  0
   -6.1507    2.2859   -4.0834 S   0  0  0  0  0  0  0  0  0  0  0  0
   -1.3403    2.2942   -6.1610 C   0  0  0  0  0  0  0  0  0  0  0  0
   -0.2284    3.0843   -6.0589 C   0  0  0  0  0  0  0  0  0  0  0  0
   -0.6261    4.6877   -5.4584 S   0  0  0  0  0  0  0  0  0  0  0  0
    1.1129    2.6173   -6.1369 C   0  0  0  0  0  0  0  0  0  0  0  0
    1.3923    0.9556   -5.7352 S   0  0  0  0  0  0  0  0  0  0  0  0
    3.1220    1.1476   -5.6764 C   0  0  0  0  0  0  0  0  0  0  0  0
    3.4736    2.4541   -6.0617 C   0  0  0  0  0  0  0  0  0  0  0  0
    2.3247    3.2918   -6.2964 C   0  0  0  0  0  0  0  0  0  0  0  0
    2.4755    4.6481   -6.6672 C   0  0  0  0  0  0  0  0  0  0  0  0
    3.7444    5.1246   -6.7966 C   0  0  0  0  0  0  0  0  0  0  0  0
    4.2309    6.4682   -7.1802 C   0  0  0  0  0  0  0  0  0  0  0  0
    3.6052    7.4587   -7.4644 O   0  0  0  0  0  0  0  0  0  0  0  0
    5.6153    6.3774   -7.1682 N   0  0  0  0  0  0  0  0  0  0  0  0
    6.4862    7.4961   -7.4564 C   0  0  0  0  0  0  0  0  0  0  0  0
    6.8297    8.2683   -6.1873 C   0  0  0  0  0  0  0  0  0  0  0  0
    6.0854    5.1191   -6.8179 C   0  0  0  0  0  0  0  0  0  0  0  0
    7.2488    4.8092   -6.7492 O   0  0  0  0  0  0  0  0  0  0  0  0
    4.8794    4.3004   -6.5763 C   0  0  0  0  0  0  0  0  0  0  0  0
    4.7696    2.9889   -6.2169 C   0  0  0  0  0  0  0  0  0  0  0  0
    3.8144    0.0599   -5.1118 C   0  0  0  0  0  0  0  0  0  0  0  0
    5.1256   -0.0831   -4.7592 C   0  0  0  0  0  0  0  0  0  0  0  0
    5.5458   -1.1372   -3.9232 C   0  0  0  0  0  0  0  0  0  0  0  0
    4.3743   -2.1860   -3.1774 S   0  0  0  0  0  0  0  0  0  0  0  0
    5.5568   -2.9701   -2.1902 C   0  0  0  0  0  0  0  0  0  0  0  0
    6.8425   -2.4755   -2.4678 C   0  0  0  0  0  0  0  0  0  0  0  0
    6.8385   -1.4316   -3.4531 C   0  0  0  0  0  0  0  0  0  0  0  0
    8.0475   -0.8193   -3.8473 C   0  0  0  0  0  0  0  0  0  0  0  0
    9.1981   -1.2557   -3.2563 C   0  0  0  0  0  0  0  0  0  0  0  0
   10.5988   -0.8294   -3.4569 C   0  0  0  0  0  0  0  0  0  0  0  0
   11.0510    0.0074   -4.1969 O   0  0  0  0  0  0  0  0  0  0  0  0
   11.3522   -1.6045   -2.5815 N   0  0  0  0  0  0  0  0  0  0  0  0
   12.7932   -1.5156   -2.4872 C   0  0  0  0  0  0  0  0  0  0  0  0
   13.4698   -2.4463   -3.4876 C   0  0  0  0  0  0  0  0  0  0  0  0
   10.5931   -2.4936   -1.8406 C   0  0  0  0  0  0  0  0  0  0  0  0
   11.0295   -3.2570   -1.0112 O   0  0  0  0  0  0  0  0  0  0  0  0
    9.1979   -2.2798   -2.2728 C   0  0  0  0  0  0  0  0  0  0  0  0
    8.0494   -2.8943   -1.8700 C   0  0  0  0  0  0  0  0  0  0  0  0
    5.1874   -3.8878   -1.1844 C   0  0  0  0  0  0  0  0  0  0  0  0
    3.9079   -4.2583   -0.9183 C   0  0  0  0  0  0  0  0  0  0  0  0
    3.5191   -5.0373    0.2028 C   0  0  0  0  0  0  0  0  0  0  0  0
    4.2959   -5.5086    1.2270 C   0  0  0  0  0  0  0  0  0  0  0  0
    3.5677   -6.1474    2.2551 C   0  0  0  0  0  0  0  0  0  0  0  0
    4.0688   -6.6600    3.4660 C   0  0  0  0  0  0  0  0  0  0  0  0
    5.5179   -6.7062    3.6840 C   0  0  0  0  0  0  0  0  0  0  0  0
    6.1171   -6.1980    4.8345 C   0  0  0  0  0  0  0  0  0  0  0  0
    7.4902   -6.1418    4.9459 C   0  0  0  0  0  0  0  0  0  0  0  0
    8.3232   -6.6081    3.9302 C   0  0  0  0  0  0  0  0  0  0  0  0
   10.0684   -6.4408    4.1475 S   0  0  0  0  0  0  0  0  0  0  0  0
   10.6665   -5.9451    2.4849 C   0  0  0  0  0  0  0  0  0  0  0  0
    9.9820   -4.6935    1.9761 C   0  0  0  0  0  0  0  0  0  0  0  0
    7.7109   -7.1963    2.8263 C   0  0  0  0  0  0  0  0  0  0  0  0
    8.4465   -7.7484    1.8369 F   0  0  0  0  0  0  0  0  0  0  0  0
    6.3397   -7.2308    2.6885 C   0  0  0  0  0  0  0  0  0  0  0  0
    3.1286   -7.0812    4.3934 C   0  0  0  0  0  0  0  0  0  0  0  0
    1.7323   -7.0533    4.1474 C   0  0  0  0  0  0  0  0  0  0  0  0
    1.2372   -6.5844    2.9211 C   0  0  0  0  0  0  0  0  0  0  0  0
   -0.2016   -6.5397    2.6274 C   0  0  0  0  0  0  0  0  0  0  0  0
   -0.7005   -7.1204    1.4639 C   0  0  0  0  0  0  0  0  0  0  0  0
   -2.0535   -7.0989    1.1924 C   0  0  0  0  0  0  0  0  0  0  0  0
   -2.9485   -6.4743    2.0530 C   0  0  0  0  0  0  0  0  0  0  0  0
   -4.6917   -6.5576    1.7064 S   0  0  0  0  0  0  0  0  0  0  0  0
   -5.0736   -4.7847    1.4747 C   0  0  0  0  0  0  0  0  0  0  0  0
   -4.5900   -4.2944    0.1249 C   0  0  0  0  0  0  0  0  0  0  0  0
   -2.4348   -5.8772    3.1997 C   0  0  0  0  0  0  0  0  0  0  0  0
   -1.0875   -5.9131    3.4989 C   0  0  0  0  0  0  0  0  0  0  0  0
   -3.2529   -5.2400    4.0651 F   0  0  0  0  0  0  0  0  0  0  0  0
    2.1738   -6.1426    1.9990 C   0  0  0  0  0  0  0  0  0  0  0  0
    1.8223   -5.4112    0.4575 S   0  0  0  0  0  0  0  0  0  0  0  0
    0.9963   -7.5721    5.2533 C   0  0  0  0  0  0  0  0  0  0  0  0
    1.7847   -7.9575    6.2767 C   0  0  0  0  0  0  0  0  0  0  0  0
    3.4730   -7.7303    5.9764 S   0  0  0  0  0  0  0  0  0  0  0  0
    3.6079   -4.5208    6.1937 H   0  0  0  0  0  0  0  0  0  0  0  0
    1.5139   -4.1357    7.6932 H   0  0  0  0  0  0  0  0  0  0  0  0
    0.5927   -1.9605    8.4795 H   0  0  0  0  0  0  0  0  0  0  0  0
    0.0077   -2.0537   10.8355 H   0  0  0  0  0  0  0  0  0  0  0  0
   -0.3106   -2.2598   12.9304 H   0  0  0  0  0  0  0  0  0  0  0  0
   -1.5872   -2.2664   14.1537 H   0  0  0  0  0  0  0  0  0  0  0  0
   -2.7942   -0.4515   12.9789 H   0  0  0  0  0  0  0  0  0  0  0  0
   -1.1465    0.0713   13.3479 H   0  0  0  0  0  0  0  0  0  0  0  0
   -1.5755   -0.4203   11.7047 H   0  0  0  0  0  0  0  0  0  0  0  0
   -2.9579   -4.1482    7.4974 H   0  0  0  0  0  0  0  0  0  0  0  0
    2.0787   -1.6780    2.4153 H   0  0  0  0  0  0  0  0  0  0  0  0
    2.5097   -1.4293    0.0098 H   0  0  0  0  0  0  0  0  0  0  0  0
   -1.2989   -1.8437   -2.6853 H   0  0  0  0  0  0  0  0  0  0  0  0
   -0.2766   -1.2466   -4.0098 H   0  0  0  0  0  0  0  0  0  0  0  0
    0.4194    0.6999   -2.6302 H   0  0  0  0  0  0  0  0  0  0  0  0
   -1.3440    0.6681   -2.7563 H   0  0  0  0  0  0  0  0  0  0  0  0
   -0.5546    0.1162   -1.2763 H   0  0  0  0  0  0  0  0  0  0  0  0
   -1.5920   -3.6942    1.5158 H   0  0  0  0  0  0  0  0  0  0  0  0
   -2.4272   -1.6230    2.2900 H   0  0  0  0  0  0  0  0  0  0  0  0
   -4.4814    1.2785    4.3645 H   0  0  0  0  0  0  0  0  0  0  0  0
   -7.4404    4.5038    2.7871 H   0  0  0  0  0  0  0  0  0  0  0  0
   -6.7831    6.4939    4.0127 H   0  0  0  0  0  0  0  0  0  0  0  0
   -6.2264    8.3793    4.8256 H   0  0  0  0  0  0  0  0  0  0  0  0
   -5.2301    9.1141    6.0884 H   0  0  0  0  0  0  0  0  0  0  0  0
   -5.7808    7.2851    7.6623 H   0  0  0  0  0  0  0  0  0  0  0  0
   -6.7563    6.4766    6.4355 H   0  0  0  0  0  0  0  0  0  0  0  0
   -7.2708    8.0389    7.0832 H   0  0  0  0  0  0  0  0  0  0  0  0
   -3.4557    2.9695    3.1111 H   0  0  0  0  0  0  0  0  0  0  0  0
   -5.7356   -0.4006   -1.9531 H   0  0  0  0  0  0  0  0  0  0  0  0
   -6.1004   -2.3716   -3.3141 H   0  0  0  0  0  0  0  0  0  0  0  0
   -7.3601   -5.3840   -5.0244 H   0  0  0  0  0  0  0  0  0  0  0  0
   -6.2317   -4.1201   -4.5276 H   0  0  0  0  0  0  0  0  0  0  0  0
   -8.1501   -2.4483   -4.6217 H   0  0  0  0  0  0  0  0  0  0  0  0
   -7.8763   -3.2221   -6.1849 H   0  0  0  0  0  0  0  0  0  0  0  0
   -9.2156   -3.7486   -5.1599 H   0  0  0  0  0  0  0  0  0  0  0  0
   -8.2899   -2.0062    1.0898 H   0  0  0  0  0  0  0  0  0  0  0  0
   -7.4449    1.1641   -2.0694 H   0  0  0  0  0  0  0  0  0  0  0  0
   -5.2068    5.3847   -2.4292 H   0  0  0  0  0  0  0  0  0  0  0  0
   -4.9304    6.9836   -4.5656 H   0  0  0  0  0  0  0  0  0  0  0  0
   -4.6008    9.2620   -3.7085 H   0  0  0  0  0  0  0  0  0  0  0  0
   -0.2864   10.5663   -1.6032 H   0  0  0  0  0  0  0  0  0  0  0  0
   -1.4223    9.7592   -0.4901 H   0  0  0  0  0  0  0  0  0  0  0  0
   -2.4038   11.9747    0.1062 H   0  0  0  0  0  0  0  0  0  0  0  0
   -1.2904   12.7765   -1.0047 H   0  0  0  0  0  0  0  0  0  0  0  0
   -0.6658   11.9615    0.4345 H   0  0  0  0  0  0  0  0  0  0  0  0
   -1.0141    5.9464   -3.1670 H   0  0  0  0  0  0  0  0  0  0  0  0
   -2.3779    0.0450   -4.9065 H   0  0  0  0  0  0  0  0  0  0  0  0
   -2.9094   -2.2573   -5.5810 H   0  0  0  0  0  0  0  0  0  0  0  0
   -6.4833   -2.8743   -8.8468 H   0  0  0  0  0  0  0  0  0  0  0  0
   -5.6656   -4.4370   -9.0316 H   0  0  0  0  0  0  0  0  0  0  0  0
   -4.3436   -1.6973   -9.4340 H   0  0  0  0  0  0  0  0  0  0  0  0
   -3.5298   -3.2583   -9.5901 H   0  0  0  0  0  0  0  0  0  0  0  0
   -4.8122   -2.8090  -10.7226 H   0  0  0  0  0  0  0  0  0  0  0  0
   -5.8837    1.4173   -6.9484 H   0  0  0  0  0  0  0  0  0  0  0  0
   -1.3023    1.2955   -6.5571 H   0  0  0  0  0  0  0  0  0  0  0  0
    1.6158    5.2726   -6.8513 H   0  0  0  0  0  0  0  0  0  0  0  0
    7.3937    7.0951   -7.9144 H   0  0  0  0  0  0  0  0  0  0  0  0
    5.9630    8.1421   -8.1656 H   0  0  0  0  0  0  0  0  0  0  0  0
    7.4806    9.1035   -6.4296 H   0  0  0  0  0  0  0  0  0  0  0  0
    7.3412    7.6189   -5.4804 H   0  0  0  0  0  0  0  0  0  0  0  0
    5.9233    8.6525   -5.7248 H   0  0  0  0  0  0  0  0  0  0  0  0
    5.6507    2.3862   -6.0796 H   0  0  0  0  0  0  0  0  0  0  0  0
    3.1588   -0.7563   -4.8239 H   0  0  0  0  0  0  0  0  0  0  0  0
    5.8751    0.6366   -5.0464 H   0  0  0  0  0  0  0  0  0  0  0  0
    8.0675   -0.0405   -4.5928 H   0  0  0  0  0  0  0  0  0  0  0  0
   13.0708   -0.4778   -2.6866 H   0  0  0  0  0  0  0  0  0  0  0  0
   13.0704   -1.7871   -1.4657 H   0  0  0  0  0  0  0  0  0  0  0  0
   13.1811   -3.4774   -3.2966 H   0  0  0  0  0  0  0  0  0  0  0  0
   14.5489   -2.3620   -3.3969 H   0  0  0  0  0  0  0  0  0  0  0  0
   13.1814   -2.1791   -4.5017 H   0  0  0  0  0  0  0  0  0  0  0  0
    8.0693   -3.6763   -1.1280 H   0  0  0  0  0  0  0  0  0  0  0  0
    5.9904   -4.2637   -0.5677 H   0  0  0  0  0  0  0  0  0  0  0  0
    3.1125   -3.9051   -1.5616 H   0  0  0  0  0  0  0  0  0  0  0  0
    5.3580   -5.3576    1.2753 H   0  0  0  0  0  0  0  0  0  0  0  0
    5.5044   -5.8064    5.6307 H   0  0  0  0  0  0  0  0  0  0  0  0
    7.9490   -5.7135    5.8233 H   0  0  0  0  0  0  0  0  0  0  0  0
   10.5472   -6.7835    1.8024 H   0  0  0  0  0  0  0  0  0  0  0  0
   11.7295   -5.7708    2.6492 H   0  0  0  0  0  0  0  0  0  0  0  0
    8.9187   -4.8697    1.8187 H   0  0  0  0  0  0  0  0  0  0  0  0
   10.0924   -3.8802    2.6908 H   0  0  0  0  0  0  0  0  0  0  0  0
   10.4275   -4.3901    1.0304 H   0  0  0  0  0  0  0  0  0  0  0  0
    5.9178   -7.6938    1.8095 H   0  0  0  0  0  0  0  0  0  0  0  0
   -0.0251   -7.6133    0.7818 H   0  0  0  0  0  0  0  0  0  0  0  0
   -2.4415   -7.5720    0.3041 H   0  0  0  0  0  0  0  0  0  0  0  0
   -4.6300   -4.2300    2.2994 H   0  0  0  0  0  0  0  0  0  0  0  0
   -6.1581   -4.7218    1.5492 H   0  0  0  0  0  0  0  0  0  0  0  0
   -3.5168   -4.4369    0.0185 H   0  0  0  0  0  0  0  0  0  0  0  0
   -5.0864   -4.8427   -0.6721 H   0  0  0  0  0  0  0  0  0  0  0  0
   -4.8169   -3.2357    0.0111 H   0  0  0  0  0  0  0  0  0  0  0  0
   -0.7412   -5.4455    4.4073 H   0  0  0  0  0  0  0  0  0  0  0  0
   -0.0746   -7.6618    5.2610 H   0  0  0  0  0  0  0  0  0  0  0  0
    1.4854   -8.3760    7.2177 H   0  0  0  0  0  0  0  0  0  0  0  0
  1  2  2  0  0  0  0
  2  3  1  0  0  0  0
  3  4  2  0  0  0  0
  4  5  1  0  0  0  0
  5  6  2  0  0  0  0
  6  7  1  0  0  0  0
  7  8  2  0  0  0  0
  8  9  1  0  0  0  0
  9 10  1  0  0  0  0
 10 11  1  0  0  0  0
  8 12  1  0  0  0  0
 12 13  1  0  0  0  0
 12 14  2  0  0  0  0
  4 15  1  0  0  0  0
 15 16  2  0  0  0  0
 16 17  1  0  0  0  0
 17 18  1  0  0  0  0
 18 19  2  0  0  0  0
 19 20  1  0  0  0  0
 20 21  2  0  0  0  0
 21 22  1  0  0  0  0
 22 23  1  0  0  0  0
 23 24  1  0  0  0  0
 21 25  1  0  0  0  0
 25 26  2  0  0  0  0
 25 27  1  0  0  0  0
 17 28  2  0  0  0  0
 28 29  1  0  0  0  0
 16 30  1  0  0  0  0
 30 31  2  0  0  0  0
 31 32  1  0  0  0  0
 31 33  1  0  0  0  0
 33 34  2  0  0  0  0
 34 35  1  0  0  0  0
 35 36  2  0  0  0  0
 36 37  1  0  0  0  0
 37 38  2  0  0  0  0
 38 39  1  0  0  0  0
 39 40  2  0  0  0  0
 40 41  1  0  0  0  0
 41 42  1  0  0  0  0
 42 43  1  0  0  0  0
 40 44  1  0  0  0  0
 44 45  1  0  0  0  0
 44 46  2  0  0  0  0
 36 47  1  0  0  0  0
 47 48  2  0  0  0  0
 48 49  1  0  0  0  0
 49 50  1  0  0  0  0
 50 51  2  0  0  0  0
 51 52  1  0  0  0  0
 52 53  2  0  0  0  0
 53 54  1  0  0  0  0
 54 55  1  0  0  0  0
 55 56  1  0  0  0  0
 53 57  1  0  0  0  0
 57 58  2  0  0  0  0
 57 59  1  0  0  0  0
 49 60  2  0  0  0  0
 60 61  1  0  0  0  0
 48 62  1  0  0  0  0
 62 63  2  0  0  0  0
 63 64  1  0  0  0  0
 63 65  1  0  0  0  0
 65 66  2  0  0  0  0
 66 67  1  0  0  0  0
 67 68  2  0  0  0  0
 68 69  1  0  0  0  0
 69 70  2  0  0  0  0
 70 71  1  0  0  0  0
 71 72  2  0  0  0  0
 72 73  1  0  0  0  0
 73 74  1  0  0  0  0
 74 75  1  0  0  0  0
 72 76  1  0  0  0  0
 76 77  1  0  0  0  0
 76 78  2  0  0  0  0
 68 79  1  0  0  0  0
 79 80  2  0  0  0  0
 80 81  1  0  0  0  0
 81 82  1  0  0  0  0
 82 83  2  0  0  0  0
 83 84  1  0  0  0  0
 84 85  2  0  0  0  0
 85 86  1  0  0  0  0
 86 87  1  0  0  0  0
 87 88  1  0  0  0  0
 85 89  1  0  0  0  0
 89 90  2  0  0  0  0
 89 91  1  0  0  0  0
 81 92  2  0  0  0  0
 92 93  1  0  0  0  0
 80 94  1  0  0  0  0
 94 95  2  0  0  0  0
 95 96  1  0  0  0  0
 95 97  1  0  0  0  0
 97 98  1  0  0  0  0
 98 99  1  0  0  0  0
 99100  2  0  0  0  0
100101  1  0  0  0  0
101102  1  0  0  0  0
102103  2  0  0  0  0
103104  1  0  0  0  0
104105  2  0  0  0  0
104106  1  0  0  0  0
106107  1  0  0  0  0
107108  1  0  0  0  0
106109  1  0  0  0  0
109110  2  0  0  0  0
109111  1  0  0  0  0
111112  2  0  0  0  0
 99113  1  0  0  0  0
113114  2  0  0  0  0
114115  1  0  0  0  0
115116  1  0  0  0  0
116117  1  0  0  0  0
117118  2  0  0  0  0
118119  1  0  0  0  0
119120  1  0  0  0  0
120121  2  0  0  0  0
121122  1  0  0  0  0
122123  2  0  0  0  0
122124  1  0  0  0  0
124125  1  0  0  0  0
125126  1  0  0  0  0
124127  1  0  0  0  0
127128  2  0  0  0  0
127129  1  0  0  0  0
129130  2  0  0  0  0
117131  1  0  0  0  0
131132  2  0  0  0  0
132133  1  0  0  0  0
133134  2  0  0  0  0
134135  1  0  0  0  0
135136  2  0  0  0  0
136137  1  0  0  0  0
137138  2  0  0  0  0
138139  1  0  0  0  0
139140  2  0  0  0  0
140141  1  0  0  0  0
141142  1  0  0  0  0
142143  1  0  0  0  0
140144  1  0  0  0  0
144145  1  0  0  0  0
144146  2  0  0  0  0
136147  1  0  0  0  0
147148  2  0  0  0  0
148149  1  0  0  0  0
149150  1  0  0  0  0
150151  2  0  0  0  0
151152  1  0  0  0  0
152153  2  0  0  0  0
153154  1  0  0  0  0
154155  1  0  0  0  0
155156  1  0  0  0  0
153157  1  0  0  0  0
157158  2  0  0  0  0
157159  1  0  0  0  0
149160  2  0  0  0  0
160161  1  0  0  0  0
148162  1  0  0  0  0
162163  2  0  0  0  0
163164  1  0  0  0  0
 29  1  1  0  0  0  0
 61 33  1  0  0  0  0
 93 65  1  0  0  0  0
101 97  2  0  0  0  0
111103  1  0  0  0  0
119115  2  0  0  0  0
129121  1  0  0  0  0
161133  1  0  0  0  0
 28  3  1  0  0  0  0
 60 35  1  0  0  0  0
 92 67  1  0  0  0  0
112100  1  0  0  0  0
130118  1  0  0  0  0
160135  1  0  0  0  0
 14  5  1  0  0  0  0
 32 15  1  0  0  0  0
 46 37  1  0  0  0  0
 64 47  1  0  0  0  0
 78 69  1  0  0  0  0
 96 79  1  0  0  0  0
146137  1  0  0  0  0
164147  1  0  0  0  0
 26 18  1  0  0  0  0
 58 50  1  0  0  0  0
 90 82  1  0  0  0  0
158150  1  0  0  0  0
  1165  1  0  0  0  0
  2166  1  0  0  0  0
  6167  1  0  0  0  0
  7168  1  0  0  0  0
 10169  1  0  0  0  0
 10170  1  0  0  0  0
 11171  1  0  0  0  0
 11172  1  0  0  0  0
 11173  1  0  0  0  0
 14174  1  0  0  0  0
 19175  1  0  0  0  0
 20176  1  0  0  0  0
 23177  1  0  0  0  0
 23178  1  0  0  0  0
 24179  1  0  0  0  0
 24180  1  0  0  0  0
 24181  1  0  0  0  0
 26182  1  0  0  0  0
 30183  1  0  0  0  0
 34184  1  0  0  0  0
 38185  1  0  0  0  0
 39186  1  0  0  0  0
 42187  1  0  0  0  0
 42188  1  0  0  0  0
 43189  1  0  0  0  0
 43190  1  0  0  0  0
 43191  1  0  0  0  0
 46192  1  0  0  0  0
 51193  1  0  0  0  0
 52194  1  0  0  0  0
 55195  1  0  0  0  0
 55196  1  0  0  0  0
 56197  1  0  0  0  0
 56198  1  0  0  0  0
 56199  1  0  0  0  0
 58200  1  0  0  0  0
 62201  1  0  0  0  0
 66202  1  0  0  0  0
 70203  1  0  0  0  0
 71204  1  0  0  0  0
 74205  1  0  0  0  0
 74206  1  0  0  0  0
 75207  1  0  0  0  0
 75208  1  0  0  0  0
 75209  1  0  0  0  0
 78210  1  0  0  0  0
 83211  1  0  0  0  0
 84212  1  0  0  0  0
 87213  1  0  0  0  0
 87214  1  0  0  0  0
 88215  1  0  0  0  0
 88216  1  0  0  0  0
 88217  1  0  0  0  0
 90218  1  0  0  0  0
 94219  1  0  0  0  0
102220  1  0  0  0  0
107221  1  0  0  0  0
107222  1  0  0  0  0
108223  1  0  0  0  0
108224  1  0  0  0  0
108225  1  0  0  0  0
112226  1  0  0  0  0
113227  1  0  0  0  0
114228  1  0  0  0  0
120229  1  0  0  0  0
125230  1  0  0  0  0
125231  1  0  0  0  0
126232  1  0  0  0  0
126233  1  0  0  0  0
126234  1  0  0  0  0
130235  1  0  0  0  0
131236  1  0  0  0  0
132237  1  0  0  0  0
134238  1  0  0  0  0
138239  1  0  0  0  0
139240  1  0  0  0  0
142241  1  0  0  0  0
142242  1  0  0  0  0
143243  1  0  0  0  0
143244  1  0  0  0  0
143245  1  0  0  0  0
146246  1  0  0  0  0
151247  1  0  0  0  0
152248  1  0  0  0  0
155249  1  0  0  0  0
155250  1  0  0  0  0
156251  1  0  0  0  0
156252  1  0  0  0  0
156253  1  0  0  0  0
158254  1  0  0  0  0
162255  1  0  0  0  0
163256  1  0  0  0  0
M  END
