256

C          2.65990       -4.12650        5.88570
C          1.56980       -3.90650        6.64480
C          0.48200       -3.34890        5.90670
C         -0.77930       -2.96890        6.38660
C         -1.12720       -3.04610        7.81050
C         -0.31120       -2.46980        8.77900
C         -0.65320       -2.51050       10.11680
C         -1.82510       -3.13200       10.53300
S         -2.37030       -3.27620       12.20130
C         -1.36470       -2.05090       13.10870
C         -1.74300       -0.62400       12.76020
C         -2.62740       -3.71630        9.55000
F         -3.76040       -4.34170        9.92170
C         -2.30280       -3.67650        8.21310
C         -1.67780       -2.47360        5.45160
C         -1.37890       -2.39470        4.07120
C         -0.11450       -2.76980        3.58620
C          0.19530       -2.67000        2.15480
C          1.36580       -2.06300        1.70320
C          1.60690       -1.91090        0.35240
C          0.69300       -2.36000       -0.59390
S          1.06200       -2.16070       -2.32050
C         -0.41160       -1.26260       -2.92810
C         -0.47560        0.14220       -2.36210
C         -0.44640       -3.01150       -0.13480
C         -0.70460       -3.16230        1.21120
F         -1.34010       -3.51360       -1.01220
C          0.80360       -3.20330        4.53420
S          2.45050       -3.69040        4.22390
C         -2.44900       -1.80590        3.34930
C         -3.48860       -1.41080        4.13030
S         -3.24640       -1.79240        5.81270
C         -4.61310       -0.69980        3.55820
C         -4.90700        0.62430        3.62560
C         -5.72920        1.07310        2.54990
C         -5.94760        2.39270        2.11520
C         -5.51730        3.57070        2.88100
C         -6.42290        4.59560        3.13640
C         -6.04960        5.72350        3.84100
C         -4.74960        5.86960        4.31160
S         -4.12980        7.25710        5.20190
C         -5.62620        8.17150        5.71040
C         -6.40780        7.44500        6.78840
C         -3.84560        4.84510        4.02430
F         -2.56730        4.96390        4.43880
C         -4.20570        3.71410        3.32680
C         -6.47590        2.54730        0.84160
C         -6.89570        1.46160        0.03450
C         -6.75250        0.14670        0.49570
C         -7.01220       -1.02890       -0.34780
C         -6.40420       -1.16850       -1.59290
C         -6.60670       -2.29540       -2.36520
C         -7.43160       -3.32360       -1.92100
S         -7.76470       -4.80980       -2.80010
C         -7.27740       -4.42390       -4.51560
C         -8.18730       -3.39490       -5.15720
C         -8.01100       -3.18180       -0.65780
C         -7.81080       -2.06730        0.12520
F         -8.79460       -4.16860       -0.18270
C         -6.13500       -0.00480        1.72630
S         -5.49050       -1.52080        2.28460
C         -7.13750        1.85240       -1.30320
C         -6.75630        3.13630       -1.57310
S         -6.38870        4.02650       -0.09660
C         -6.21270        3.53220       -2.83370
C         -5.32400        4.53850       -3.08340
C         -4.42860        4.25490       -4.15110
C         -3.22670        4.92670       -4.44930
C         -3.00250        6.28190       -3.93910
C         -4.00610        7.24420       -4.07290
C         -3.82280        8.52240       -3.59890
C         -2.63750        8.90590       -2.96570
S         -2.54960       10.58460       -2.44200
C         -1.26490       10.62610       -1.12980
C         -1.41800       11.91730       -0.35000
C         -1.64220        7.93960       -2.85050
F         -0.45370        8.22160       -2.27050
C         -1.81580        6.65180       -3.31680
C         -2.28170        4.20450       -5.16750
C         -2.51520        2.89160       -5.65450
C         -3.77360        2.28890       -5.48870
C         -4.06280        0.91190       -5.91170
C         -3.24550       -0.14670       -5.51830
C         -3.54700       -1.44110       -5.88380
C         -4.67650       -1.73220       -6.64530
S         -4.97920       -3.43230       -7.04070
C         -5.52420       -3.38430       -8.78680
C         -4.48530       -2.74690       -9.68680
C         -5.50920       -0.67210       -6.98990
C         -5.21110        0.63070       -6.64380
F         -6.65010       -0.89060       -7.67820
C         -4.69310        2.99110       -4.73170
S         -6.15070        2.28590       -4.08340
C         -1.34030        2.29420       -6.16100
C         -0.22840        3.08430       -6.05890
S         -0.62610        4.68770       -5.45840
C          1.11290        2.61730       -6.13690
S          1.39230        0.95560       -5.73520
C          3.12200        1.14760       -5.67640
C          3.47360        2.45410       -6.06170
C          2.32470        3.29180       -6.29640
C          2.47550        4.64810       -6.66720
C          3.74440        5.12460       -6.79660
C          4.23090        6.46820       -7.18020
O          3.60520        7.45870       -7.46440
N          5.61530        6.37740       -7.16820
C          6.48620        7.49610       -7.45640
C          6.82970        8.26830       -6.18730
C          6.08540        5.11910       -6.81790
O          7.24880        4.80920       -6.74920
C          4.87940        4.30040       -6.57630
C          4.76960        2.98890       -6.21690
C          3.81440        0.05990       -5.11180
C          5.12560       -0.08310       -4.75920
C          5.54580       -1.13720       -3.92320
S          4.37430       -2.18600       -3.17740
C          5.55680       -2.97010       -2.19020
C          6.84250       -2.47550       -2.46780
C          6.83850       -1.43160       -3.45310
C          8.04750       -0.81930       -3.84730
C          9.19810       -1.25570       -3.25630
C         10.59880       -0.82940       -3.45690
O         11.05100        0.00740       -4.19690
N         11.35220       -1.60450       -2.58150
C         12.79320       -1.51560       -2.48720
C         13.46980       -2.44630       -3.48760
C         10.59310       -2.49360       -1.84060
O         11.02950       -3.25700       -1.01120
C          9.19790       -2.27980       -2.27280
C          8.04940       -2.89430       -1.87000
C          5.18740       -3.88780       -1.18440
C          3.90790       -4.25830       -0.91830
C          3.51910       -5.03730        0.20280
C          4.29590       -5.50860        1.22700
C          3.56770       -6.14740        2.25510
C          4.06880       -6.66000        3.46600
C          5.51790       -6.70620        3.68400
C          6.11710       -6.19800        4.83450
C          7.49020       -6.14180        4.94590
C          8.32320       -6.60810        3.93020
S         10.06840       -6.44080        4.14750
C         10.66650       -5.94510        2.48490
C          9.98200       -4.69350        1.97610
C          7.71090       -7.19630        2.82630
F          8.44650       -7.74840        1.83690
C          6.33970       -7.23080        2.68850
C          3.12860       -7.08120        4.39340
C          1.73230       -7.05330        4.14740
C          1.23720       -6.58440        2.92110
C         -0.20160       -6.53970        2.62740
C         -0.70050       -7.12040        1.46390
C         -2.05350       -7.09890        1.19240
C         -2.94850       -6.47430        2.05300
S         -4.69170       -6.55760        1.70640
C         -5.07360       -4.78470        1.47470
C         -4.59000       -4.29440        0.12490
C         -2.43480       -5.87720        3.19970
C         -1.08750       -5.91310        3.49890
F         -3.25290       -5.24000        4.06510
C          2.17380       -6.14260        1.99900
S          1.82230       -5.41120        0.45750
C          0.99630       -7.57210        5.25330
C          1.78470       -7.95750        6.27670
S          3.47300       -7.73030        5.97640
H          3.60790       -4.52080        6.19370
H          1.51390       -4.13570        7.69320
H          0.59270       -1.96050        8.47950
H          0.00770       -2.05370       10.83550
H         -0.31060       -2.25980       12.93040
H         -1.58720       -2.26640       14.15370
H         -2.79420       -0.45150       12.97890
H         -1.14650        0.07130       13.34790
H         -1.57550       -0.42030       11.70470
H         -2.95790       -4.14820        7.49740
H          2.07870       -1.67800        2.41530
H          2.50970       -1.42930        0.00980
H         -1.29890       -1.84370       -2.68530
H         -0.27660       -1.24660       -4.00980
H          0.41940        0.69990       -2.63020
H         -1.34400        0.66810       -2.75630
H         -0.55460        0.11620       -1.27630
H         -1.59200       -3.69420        1.51580
H         -2.42720       -1.62300        2.29000
H         -4.48140        1.27850        4.36450
H         -7.44040        4.50380        2.78710
H         -6.78310        6.49390        4.01270
H         -6.22640        8.37930        4.82560
H         -5.23010        9.11410        6.08840
H         -5.78080        7.28510        7.66230
H         -6.75630        6.47660        6.43550
H         -7.27080        8.03890        7.08320
H         -3.45570        2.96950        3.11110
H         -5.73560       -0.40060       -1.95310
H         -6.10040       -2.37160       -3.31410
H         -7.36010       -5.38400       -5.02440
H         -6.23170       -4.12010       -4.52760
H         -8.15010       -2.44830       -4.62170
H         -7.87630       -3.22210       -6.18490
H         -9.21560       -3.74860       -5.15990
H         -8.28990       -2.00620        1.08980
H         -7.44490        1.16410       -2.06940
H         -5.20680        5.38470       -2.42920
H         -4.93040        6.98360       -4.56560
H         -4.60080        9.26200       -3.70850
H         -0.28640       10.56630       -1.60320
H         -1.42230        9.75920       -0.49010
H         -2.40380       11.97470        0.10620
H         -1.29040       12.77650       -1.00470
H         -0.66580       11.96150        0.43450
H         -1.01410        5.94640       -3.16700
H         -2.37790        0.04500       -4.90650
H         -2.90940       -2.25730       -5.58100
H         -6.48330       -2.87430       -8.84680
H         -5.66560       -4.43700       -9.03160
H         -4.34360       -1.69730       -9.43400
H         -3.52980       -3.25830       -9.59010
H         -4.81220       -2.80900      -10.72260
H         -5.88370        1.41730       -6.94840
H         -1.30230        1.29550       -6.55710
H          1.61580        5.27260       -6.85130
H          7.39370        7.09510       -7.91440
H          5.96300        8.14210       -8.16560
H          7.48060        9.10350       -6.42960
H          7.34120        7.61890       -5.48040
H          5.92330        8.65250       -5.72480
H          5.65070        2.38620       -6.07960
H          3.15880       -0.75630       -4.82390
H          5.87510        0.63660       -5.04640
H          8.06750       -0.04050       -4.59280
H         13.07080       -0.47780       -2.68660
H         13.07040       -1.78710       -1.46570
H         13.18110       -3.47740       -3.29660
H         14.54890       -2.36200       -3.39690
H         13.18140       -2.17910       -4.50170
H          8.06930       -3.67630       -1.12800
H          5.99040       -4.26370       -0.56770
H          3.11250       -3.90510       -1.56160
H          5.35800       -5.35760        1.27530
H          5.50440       -5.80640        5.63070
H          7.94900       -5.71350        5.82330
H         10.54720       -6.78350        1.80240
H         11.72950       -5.77080        2.64920
H          8.91870       -4.86970        1.81870
H         10.09240       -3.88020        2.69080
H         10.42750       -4.39010        1.03040
H          5.91780       -7.69380        1.80950
H         -0.02510       -7.61330        0.78180
H         -2.44150       -7.57200        0.30410
H         -4.63000       -4.23000        2.29940
H         -6.15810       -4.72180        1.54920
H         -3.51680       -4.43690        0.01850
H         -5.08640       -4.84270       -0.67210
H         -4.81690       -3.23570        0.01110
H         -0.74120       -5.44550        4.40730
H         -0.07460       -7.66180        5.26100
H          1.48540       -8.37600        7.21770
