
  xtb     03042206083D
 energy: -387.128289758843 gnorm: 0.000534259850 xtb: 6.4.1 (unknown)
222245  0     0  0            999 V2000
    7.1679   18.6263    8.0607 C   0  0  0  0  0  0  0  0  0  0  0  0
    5.8361   17.6893    8.7019 S   0  0  0  0  0  0  0  0  0  0  0  0
    5.8468   16.5327    7.3505 C   0  0  0  0  0  0  0  0  0  0  0  0
    6.8475   16.9194    6.5104 C   0  0  0  0  0  0  0  0  0  0  0  0
    7.5685   18.0809    6.9008 C   0  0  0  0  0  0  0  0  0  0  0  0
    8.3877   17.9352    5.6355 C   0  0  0  0  0  0  0  0  0  0  0  0
    7.6564   16.6707    5.4038 N   0  0  0  0  0  0  0  0  0  0  0  0
    4.9156   15.4660    7.2870 C   0  0  0  0  0  0  0  0  0  0  0  0
    4.8863   14.3929    5.8749 S   0  0  0  0  0  0  0  0  0  0  0  0
    3.5734   13.3809    6.5147 C   0  0  0  0  0  0  0  0  0  0  0  0
    3.2296   13.9045    7.7318 C   0  0  0  0  0  0  0  0  0  0  0  0
    3.9617   15.0360    8.1529 C   0  0  0  0  0  0  0  0  0  0  0  0
    3.1544   15.0300    9.4317 C   0  0  0  0  0  0  0  0  0  0  0  0
    2.3711   13.9206    8.8361 N   0  0  0  0  0  0  0  0  0  0  0  0
    3.0779   12.2468    5.8254 C   0  0  0  0  0  0  0  0  0  0  0  0
    2.0670   11.4246    6.2425 C   0  0  0  0  0  0  0  0  0  0  0  0
    1.8213   10.3394    5.3690 C   0  0  0  0  0  0  0  0  0  0  0  0
    0.8583    9.3228    5.5006 C   0  0  0  0  0  0  0  0  0  0  0  0
   -0.0038    9.2339    6.6839 C   0  0  0  0  0  0  0  0  0  0  0  0
   -1.3792    9.0631    6.5642 C   0  0  0  0  0  0  0  0  0  0  0  0
   -2.1925    8.9769    7.6782 C   0  0  0  0  0  0  0  0  0  0  0  0
   -1.6560    9.0559    8.9583 C   0  0  0  0  0  0  0  0  0  0  0  0
   -2.5696    8.9687   10.4591 S   0  0  0  0  0  0  0  0  0  0  0  0
   -4.2795    8.6280    9.8988 C   0  0  0  0  0  0  0  0  0  0  0  0
   -5.1619    8.4465   11.1195 C   0  0  0  0  0  0  0  0  0  0  0  0
   -0.2734    9.2229    9.0639 C   0  0  0  0  0  0  0  0  0  0  0  0
    0.2845    9.3055   10.2915 F   0  0  0  0  0  0  0  0  0  0  0  0
    0.5464    9.3084    7.9633 C   0  0  0  0  0  0  0  0  0  0  0  0
    0.7875    8.3959    4.4719 C   0  0  0  0  0  0  0  0  0  0  0  0
    1.6335    8.4324    3.3365 C   0  0  0  0  0  0  0  0  0  0  0  0
    2.5929    9.4528    3.2001 C   0  0  0  0  0  0  0  0  0  0  0  0
    3.4520    9.5245    2.0132 C   0  0  0  0  0  0  0  0  0  0  0  0
    2.9012    9.4495    0.7359 C   0  0  0  0  0  0  0  0  0  0  0  0
    3.6970    9.4945   -0.3915 C   0  0  0  0  0  0  0  0  0  0  0  0
    5.0789    9.6049   -0.2833 C   0  0  0  0  0  0  0  0  0  0  0  0
    6.1990    9.6620   -1.6416 S   0  0  0  0  0  0  0  0  0  0  0  0
    5.2503    8.9322   -3.0225 C   0  0  0  0  0  0  0  0  0  0  0  0
    4.9490    7.4633   -2.8043 C   0  0  0  0  0  0  0  0  0  0  0  0
    5.6150    9.7081    1.0015 C   0  0  0  0  0  0  0  0  0  0  0  0
    4.8321    9.6719    2.1335 C   0  0  0  0  0  0  0  0  0  0  0  0
    6.9491    9.8349    1.1452 F   0  0  0  0  0  0  0  0  0  0  0  0
    2.6713   10.3721    4.2325 C   0  0  0  0  0  0  0  0  0  0  0  0
    3.7655   11.7309    4.3012 S   0  0  0  0  0  0  0  0  0  0  0  0
    1.4244    7.3210    2.4849 C   0  0  0  0  0  0  0  0  0  0  0  0
    0.4549    6.4661    2.9242 C   0  0  0  0  0  0  0  0  0  0  0  0
   -0.2639    7.0036    4.4294 S   0  0  0  0  0  0  0  0  0  0  0  0
    0.0481    5.2430    2.3120 C   0  0  0  0  0  0  0  0  0  0  0  0
    0.4654    4.7442    1.1115 C   0  0  0  0  0  0  0  0  0  0  0  0
   -0.0601    3.4637    0.8135 C   0  0  0  0  0  0  0  0  0  0  0  0
    0.1686    2.6817   -0.3310 C   0  0  0  0  0  0  0  0  0  0  0  0
    1.0666    3.1288   -1.4031 C   0  0  0  0  0  0  0  0  0  0  0  0
    0.6425    3.1388   -2.7303 C   0  0  0  0  0  0  0  0  0  0  0  0
    1.4908    3.5526   -3.7355 C   0  0  0  0  0  0  0  0  0  0  0  0
    2.7888    3.9725   -3.4582 C   0  0  0  0  0  0  0  0  0  0  0  0
    3.7853    4.5301   -4.8134 S   0  0  0  0  0  0  0  0  0  0  0  0
    5.3910    3.7016   -4.5166 C   0  0  0  0  0  0  0  0  0  0  0  0
    5.2465    2.1939   -4.4788 C   0  0  0  0  0  0  0  0  0  0  0  0
    3.1947    3.9723   -2.1276 C   0  0  0  0  0  0  0  0  0  0  0  0
    4.4317    4.3926   -1.7822 F   0  0  0  0  0  0  0  0  0  0  0  0
    2.3610    3.5484   -1.1127 C   0  0  0  0  0  0  0  0  0  0  0  0
   -0.4817    1.4598   -0.3896 C   0  0  0  0  0  0  0  0  0  0  0  0
   -1.3452    0.9897    0.6308 C   0  0  0  0  0  0  0  0  0  0  0  0
   -1.5985    1.7850    1.7616 C   0  0  0  0  0  0  0  0  0  0  0  0
   -2.5308    1.3467    2.8062 C   0  0  0  0  0  0  0  0  0  0  0  0
   -2.1796    1.3785    4.1545 C   0  0  0  0  0  0  0  0  0  0  0  0
   -3.0760    0.9791    5.1220 C   0  0  0  0  0  0  0  0  0  0  0  0
   -4.3531    0.5288    4.7908 C   0  0  0  0  0  0  0  0  0  0  0  0
   -5.3890   -0.0006    6.1221 S   0  0  0  0  0  0  0  0  0  0  0  0
   -7.0671    0.5555    5.6452 C   0  0  0  0  0  0  0  0  0  0  0  0
   -7.1259    2.0531    5.4215 C   0  0  0  0  0  0  0  0  0  0  0  0
   -4.6821    0.4820    3.4393 C   0  0  0  0  0  0  0  0  0  0  0  0
   -3.8001    0.8926    2.4608 C   0  0  0  0  0  0  0  0  0  0  0  0
   -5.8887    0.0297    3.0308 F   0  0  0  0  0  0  0  0  0  0  0  0
   -0.9299    2.9979    1.8319 C   0  0  0  0  0  0  0  0  0  0  0  0
   -1.0587    4.1586    3.1274 S   0  0  0  0  0  0  0  0  0  0  0  0
   -1.7963   -0.3294    0.3719 C   0  0  0  0  0  0  0  0  0  0  0  0
   -1.3151   -0.8547   -0.7898 C   0  0  0  0  0  0  0  0  0  0  0  0
   -0.2837    0.2726   -1.6527 S   0  0  0  0  0  0  0  0  0  0  0  0
   -1.5242   -2.1658   -1.3084 C   0  0  0  0  0  0  0  0  0  0  0  0
   -0.9744   -2.7135   -2.4291 C   0  0  0  0  0  0  0  0  0  0  0  0
   -1.3341   -4.0687   -2.6324 C   0  0  0  0  0  0  0  0  0  0  0  0
   -0.9256   -4.9232   -3.6678 C   0  0  0  0  0  0  0  0  0  0  0  0
   -0.1159   -4.4705   -4.8053 C   0  0  0  0  0  0  0  0  0  0  0  0
   -0.4825   -3.3536   -5.5547 C   0  0  0  0  0  0  0  0  0  0  0  0
    0.2117   -3.0173   -6.6974 C   0  0  0  0  0  0  0  0  0  0  0  0
    1.3020   -3.7684   -7.1332 C   0  0  0  0  0  0  0  0  0  0  0  0
    2.1001   -3.2645   -8.6288 S   0  0  0  0  0  0  0  0  0  0  0  0
    2.4895   -4.8449   -9.4718 C   0  0  0  0  0  0  0  0  0  0  0  0
    1.2623   -5.7128   -9.6662 C   0  0  0  0  0  0  0  0  0  0  0  0
    1.6958   -4.8405   -6.3392 C   0  0  0  0  0  0  0  0  0  0  0  0
    2.7807   -5.5824   -6.6623 F   0  0  0  0  0  0  0  0  0  0  0  0
    0.9996   -5.2004   -5.2045 C   0  0  0  0  0  0  0  0  0  0  0  0
   -1.3562   -6.2387   -3.5898 C   0  0  0  0  0  0  0  0  0  0  0  0
   -2.2086   -6.7249   -2.5690 C   0  0  0  0  0  0  0  0  0  0  0  0
   -2.6542   -5.8570   -1.5575 C   0  0  0  0  0  0  0  0  0  0  0  0
   -3.5858   -6.3249   -0.5247 C   0  0  0  0  0  0  0  0  0  0  0  0
   -3.3425   -6.1159    0.8313 C   0  0  0  0  0  0  0  0  0  0  0  0
   -4.2151   -6.5999    1.7821 C   0  0  0  0  0  0  0  0  0  0  0  0
   -5.3720   -7.2920    1.4256 C   0  0  0  0  0  0  0  0  0  0  0  0
   -6.4205   -7.8368    2.7390 S   0  0  0  0  0  0  0  0  0  0  0  0
   -7.0834   -9.4454    2.1656 C   0  0  0  0  0  0  0  0  0  0  0  0
   -5.9837  -10.4372    1.8447 C   0  0  0  0  0  0  0  0  0  0  0  0
   -5.6258   -7.4503    0.0661 C   0  0  0  0  0  0  0  0  0  0  0  0
   -4.7468   -6.9969   -0.8956 C   0  0  0  0  0  0  0  0  0  0  0  0
   -6.7535   -8.0567   -0.3664 F   0  0  0  0  0  0  0  0  0  0  0  0
   -2.1782   -4.5548   -1.6012 C   0  0  0  0  0  0  0  0  0  0  0  0
   -2.5421   -3.3017   -0.4430 S   0  0  0  0  0  0  0  0  0  0  0  0
   -2.4682   -8.1137   -2.7138 C   0  0  0  0  0  0  0  0  0  0  0  0
   -1.8721   -8.6675   -3.8053 C   0  0  0  0  0  0  0  0  0  0  0  0
   -0.9569   -7.4921   -4.7316 S   0  0  0  0  0  0  0  0  0  0  0  0
   -1.8492  -10.0240   -4.2421 C   0  0  0  0  0  0  0  0  0  0  0  0
   -1.1472  -10.4993   -5.3076 C   0  0  0  0  0  0  0  0  0  0  0  0
   -1.2525  -11.9002   -5.4829 C   0  0  0  0  0  0  0  0  0  0  0  0
   -0.6573  -12.6796   -6.4870 C   0  0  0  0  0  0  0  0  0  0  0  0
    0.2565  -12.0505   -7.4474 C   0  0  0  0  0  0  0  0  0  0  0  0
    1.2945  -11.2408   -6.9921 C   0  0  0  0  0  0  0  0  0  0  0  0
    2.1131  -10.5584   -7.8698 C   0  0  0  0  0  0  0  0  0  0  0  0
    1.9185  -10.6602   -9.2429 C   0  0  0  0  0  0  0  0  0  0  0  0
    2.8395   -9.7914  -10.4632 S   0  0  0  0  0  0  0  0  0  0  0  0
    3.9445   -8.7122   -9.4753 C   0  0  0  0  0  0  0  0  0  0  0  0
    4.7377   -7.8335  -10.4244 C   0  0  0  0  0  0  0  0  0  0  0  0
    0.9054  -11.5138   -9.6868 C   0  0  0  0  0  0  0  0  0  0  0  0
    0.7066  -11.6521  -11.0131 F   0  0  0  0  0  0  0  0  0  0  0  0
    0.0856  -12.2027   -8.8214 C   0  0  0  0  0  0  0  0  0  0  0  0
   -0.9781  -14.0283   -6.4922 C   0  0  0  0  0  0  0  0  0  0  0  0
   -1.8356  -14.6207   -5.5320 C   0  0  0  0  0  0  0  0  0  0  0  0
   -2.4172  -13.8407   -4.5200 C   0  0  0  0  0  0  0  0  0  0  0  0
   -3.3317  -14.4128   -3.5236 C   0  0  0  0  0  0  0  0  0  0  0  0
   -3.1457  -14.1803   -2.1621 C   0  0  0  0  0  0  0  0  0  0  0  0
   -4.0179  -14.7071   -1.2346 C   0  0  0  0  0  0  0  0  0  0  0  0
   -5.1185  -15.4698   -1.6221 C   0  0  0  0  0  0  0  0  0  0  0  0
   -6.1965  -16.0311   -0.3378 S   0  0  0  0  0  0  0  0  0  0  0  0
   -6.7303  -17.6973   -0.8781 C   0  0  0  0  0  0  0  0  0  0  0  0
   -5.5547  -18.6253   -1.1077 C   0  0  0  0  0  0  0  0  0  0  0  0
   -5.3065  -15.6707   -2.9863 C   0  0  0  0  0  0  0  0  0  0  0  0
   -4.4264  -15.1711   -3.9250 C   0  0  0  0  0  0  0  0  0  0  0  0
   -6.3718  -16.3643   -3.4469 F   0  0  0  0  0  0  0  0  0  0  0  0
   -2.1008  -12.4900   -4.5158 C   0  0  0  0  0  0  0  0  0  0  0  0
   -2.7111  -11.2942   -3.3954 S   0  0  0  0  0  0  0  0  0  0  0  0
   -1.9411  -16.0300   -5.7291 C   0  0  0  0  0  0  0  0  0  0  0  0
   -1.2196  -16.4705   -6.7795 C   0  0  0  0  0  0  0  0  0  0  0  0
   -0.3577  -15.2185   -7.6058 S   0  0  0  0  0  0  0  0  0  0  0  0
    7.5026   19.4850    8.6065 H   0  0  0  0  0  0  0  0  0  0  0  0
    8.2089   18.7145    4.8927 H   0  0  0  0  0  0  0  0  0  0  0  0
    9.4575   17.7786    5.7729 H   0  0  0  0  0  0  0  0  0  0  0  0
    7.3044   16.3817    4.5040 H   0  0  0  0  0  0  0  0  0  0  0  0
    2.5465   15.9147    9.6183 H   0  0  0  0  0  0  0  0  0  0  0  0
    3.7234   14.7649   10.3237 H   0  0  0  0  0  0  0  0  0  0  0  0
    2.1413   13.0891    9.3613 H   0  0  0  0  0  0  0  0  0  0  0  0
    1.5028   11.6138    7.1369 H   0  0  0  0  0  0  0  0  0  0  0  0
   -1.8279    9.0167    5.5839 H   0  0  0  0  0  0  0  0  0  0  0  0
   -3.2536    8.8525    7.5385 H   0  0  0  0  0  0  0  0  0  0  0  0
   -4.6147    9.4748    9.2993 H   0  0  0  0  0  0  0  0  0  0  0  0
   -4.2590    7.7213    9.2940 H   0  0  0  0  0  0  0  0  0  0  0  0
   -6.1845    8.2418   10.8097 H   0  0  0  0  0  0  0  0  0  0  0  0
   -4.8070    7.6160   11.7251 H   0  0  0  0  0  0  0  0  0  0  0  0
   -5.1553    9.3456   11.7312 H   0  0  0  0  0  0  0  0  0  0  0  0
    1.6112    9.4059    8.1054 H   0  0  0  0  0  0  0  0  0  0  0  0
    1.8294    9.3800    0.6228 H   0  0  0  0  0  0  0  0  0  0  0  0
    3.2293    9.4502   -1.3620 H   0  0  0  0  0  0  0  0  0  0  0  0
    4.3493    9.5235   -3.1819 H   0  0  0  0  0  0  0  0  0  0  0  0
    5.9093    9.0696   -3.8797 H   0  0  0  0  0  0  0  0  0  0  0  0
    4.3227    7.3168   -1.9268 H   0  0  0  0  0  0  0  0  0  0  0  0
    4.4318    7.0588   -3.6723 H   0  0  0  0  0  0  0  0  0  0  0  0
    5.8717    6.9071   -2.6577 H   0  0  0  0  0  0  0  0  0  0  0  0
    5.3062    9.7323    3.1001 H   0  0  0  0  0  0  0  0  0  0  0  0
    2.0039    7.1460    1.5973 H   0  0  0  0  0  0  0  0  0  0  0  0
    1.1196    5.2802    0.4495 H   0  0  0  0  0  0  0  0  0  0  0  0
   -0.3621    2.8285   -2.9723 H   0  0  0  0  0  0  0  0  0  0  0  0
    1.1596    3.5592   -4.7621 H   0  0  0  0  0  0  0  0  0  0  0  0
    5.8255    4.0936   -3.5997 H   0  0  0  0  0  0  0  0  0  0  0  0
    5.9992    4.0194   -5.3632 H   0  0  0  0  0  0  0  0  0  0  0  0
    4.7900    1.8297   -5.3969 H   0  0  0  0  0  0  0  0  0  0  0  0
    6.2271    1.7350   -4.3699 H   0  0  0  0  0  0  0  0  0  0  0  0
    4.6264    1.8844   -3.6389 H   0  0  0  0  0  0  0  0  0  0  0  0
    2.7353    3.5397   -0.1005 H   0  0  0  0  0  0  0  0  0  0  0  0
   -1.1942    1.7077    4.4448 H   0  0  0  0  0  0  0  0  0  0  0  0
   -2.8007    1.0069    6.1646 H   0  0  0  0  0  0  0  0  0  0  0  0
   -7.3919   -0.0023    4.7699 H   0  0  0  0  0  0  0  0  0  0  0  0
   -7.6769    0.2613    6.4995 H   0  0  0  0  0  0  0  0  0  0  0  0
   -6.7720    2.5849    6.3022 H   0  0  0  0  0  0  0  0  0  0  0  0
   -8.1523    2.3528    5.2195 H   0  0  0  0  0  0  0  0  0  0  0  0
   -6.5103    2.3440    4.5723 H   0  0  0  0  0  0  0  0  0  0  0  0
   -4.1193    0.8626    1.4304 H   0  0  0  0  0  0  0  0  0  0  0  0
   -2.4269   -0.8882    1.0403 H   0  0  0  0  0  0  0  0  0  0  0  0
   -0.3078   -2.1701   -3.0751 H   0  0  0  0  0  0  0  0  0  0  0  0
   -1.3452   -2.7746   -5.2628 H   0  0  0  0  0  0  0  0  0  0  0  0
   -0.0924   -2.1691   -7.2908 H   0  0  0  0  0  0  0  0  0  0  0  0
    3.2708   -5.3566   -8.9140 H   0  0  0  0  0  0  0  0  0  0  0  0
    2.8946   -4.5173  -10.4293 H   0  0  0  0  0  0  0  0  0  0  0  0
    0.4821   -5.1593  -10.1843 H   0  0  0  0  0  0  0  0  0  0  0  0
    1.5186   -6.5874  -10.2609 H   0  0  0  0  0  0  0  0  0  0  0  0
    0.8662   -6.0516   -8.7102 H   0  0  0  0  0  0  0  0  0  0  0  0
    1.3521   -6.0412   -4.6281 H   0  0  0  0  0  0  0  0  0  0  0  0
   -2.4470   -5.6011    1.1426 H   0  0  0  0  0  0  0  0  0  0  0  0
   -4.0130   -6.4537    2.8316 H   0  0  0  0  0  0  0  0  0  0  0  0
   -7.6784   -9.7810    3.0151 H   0  0  0  0  0  0  0  0  0  0  0  0
   -7.7423   -9.2770    1.3168 H   0  0  0  0  0  0  0  0  0  0  0  0
   -5.3240  -10.5661    2.7003 H   0  0  0  0  0  0  0  0  0  0  0  0
   -6.4224  -11.4003    1.5918 H   0  0  0  0  0  0  0  0  0  0  0  0
   -5.3896  -10.1003    0.9973 H   0  0  0  0  0  0  0  0  0  0  0  0
   -4.9969   -7.1422   -1.9354 H   0  0  0  0  0  0  0  0  0  0  0  0
   -3.0510   -8.6905   -2.0181 H   0  0  0  0  0  0  0  0  0  0  0  0
   -0.5812   -9.8581   -5.9591 H   0  0  0  0  0  0  0  0  0  0  0  0
    1.4719  -11.1518   -5.9308 H   0  0  0  0  0  0  0  0  0  0  0  0
    2.9001   -9.9387   -7.4733 H   0  0  0  0  0  0  0  0  0  0  0  0
    4.6095   -9.3506   -8.8934 H   0  0  0  0  0  0  0  0  0  0  0  0
    3.3236   -8.1104   -8.8118 H   0  0  0  0  0  0  0  0  0  0  0  0
    4.0704   -7.2282  -11.0336 H   0  0  0  0  0  0  0  0  0  0  0  0
    5.3487   -8.4425  -11.0863 H   0  0  0  0  0  0  0  0  0  0  0  0
    5.3893   -7.1724   -9.8571 H   0  0  0  0  0  0  0  0  0  0  0  0
   -0.6980  -12.8258   -9.2223 H   0  0  0  0  0  0  0  0  0  0  0  0
   -2.2967  -13.6040   -1.8287 H   0  0  0  0  0  0  0  0  0  0  0  0
   -3.8632  -14.5351   -0.1809 H   0  0  0  0  0  0  0  0  0  0  0  0
   -7.3545  -17.6009   -1.7636 H   0  0  0  0  0  0  0  0  0  0  0  0
   -7.3450  -18.0407   -0.0459 H   0  0  0  0  0  0  0  0  0  0  0  0
   -4.9329  -18.6826   -0.2166 H   0  0  0  0  0  0  0  0  0  0  0  0
   -5.9177  -19.6228   -1.3469 H   0  0  0  0  0  0  0  0  0  0  0  0
   -4.9403  -18.2767   -1.9357 H   0  0  0  0  0  0  0  0  0  0  0  0
   -4.6289  -15.3456   -4.9706 H   0  0  0  0  0  0  0  0  0  0  0  0
   -2.5204  -16.6743   -5.0931 H   0  0  0  0  0  0  0  0  0  0  0  0
   -1.1281  -17.4766   -7.1398 H   0  0  0  0  0  0  0  0  0  0  0  0
  1  2  1  0  0  0  0
  2  3  1  0  0  0  0
  3  4  2  0  0  0  0
  4  5  1  0  0  0  0
  5  6  1  0  0  0  0
  6  7  1  0  0  0  0
  3  8  1  0  0  0  0
  8  9  1  0  0  0  0
  9 10  1  0  0  0  0
 10 11  2  0  0  0  0
 11 12  1  0  0  0  0
 12 13  1  0  0  0  0
 13 14  1  0  0  0  0
 10 15  1  0  0  0  0
 15 16  2  0  0  0  0
 16 17  1  0  0  0  0
 17 18  2  0  0  0  0
 18 19  1  0  0  0  0
 19 20  2  0  0  0  0
 20 21  1  0  0  0  0
 21 22  2  0  0  0  0
 22 23  1  0  0  0  0
 23 24  1  0  0  0  0
 24 25  1  0  0  0  0
 22 26  1  0  0  0  0
 26 27  1  0  0  0  0
 26 28  2  0  0  0  0
 18 29  1  0  0  0  0
 29 30  2  0  0  0  0
 30 31  1  0  0  0  0
 31 32  1  0  0  0  0
 32 33  2  0  0  0  0
 33 34  1  0  0  0  0
 34 35  2  0  0  0  0
 35 36  1  0  0  0  0
 36 37  1  0  0  0  0
 37 38  1  0  0  0  0
 35 39  1  0  0  0  0
 39 40  2  0  0  0  0
 39 41  1  0  0  0  0
 31 42  2  0  0  0  0
 42 43  1  0  0  0  0
 30 44  1  0  0  0  0
 44 45  2  0  0  0  0
 45 46  1  0  0  0  0
 45 47  1  0  0  0  0
 47 48  2  0  0  0  0
 48 49  1  0  0  0  0
 49 50  2  0  0  0  0
 50 51  1  0  0  0  0
 51 52  2  0  0  0  0
 52 53  1  0  0  0  0
 53 54  2  0  0  0  0
 54 55  1  0  0  0  0
 55 56  1  0  0  0  0
 56 57  1  0  0  0  0
 54 58  1  0  0  0  0
 58 59  1  0  0  0  0
 58 60  2  0  0  0  0
 50 61  1  0  0  0  0
 61 62  2  0  0  0  0
 62 63  1  0  0  0  0
 63 64  1  0  0  0  0
 64 65  2  0  0  0  0
 65 66  1  0  0  0  0
 66 67  2  0  0  0  0
 67 68  1  0  0  0  0
 68 69  1  0  0  0  0
 69 70  1  0  0  0  0
 67 71  1  0  0  0  0
 71 72  2  0  0  0  0
 71 73  1  0  0  0  0
 63 74  2  0  0  0  0
 74 75  1  0  0  0  0
 62 76  1  0  0  0  0
 76 77  2  0  0  0  0
 77 78  1  0  0  0  0
 77 79  1  0  0  0  0
 79 80  2  0  0  0  0
 80 81  1  0  0  0  0
 81 82  2  0  0  0  0
 82 83  1  0  0  0  0
 83 84  2  0  0  0  0
 84 85  1  0  0  0  0
 85 86  2  0  0  0  0
 86 87  1  0  0  0  0
 87 88  1  0  0  0  0
 88 89  1  0  0  0  0
 86 90  1  0  0  0  0
 90 91  1  0  0  0  0
 90 92  2  0  0  0  0
 82 93  1  0  0  0  0
 93 94  2  0  0  0  0
 94 95  1  0  0  0  0
 95 96  1  0  0  0  0
 96 97  2  0  0  0  0
 97 98  1  0  0  0  0
 98 99  2  0  0  0  0
 99100  1  0  0  0  0
100101  1  0  0  0  0
101102  1  0  0  0  0
 99103  1  0  0  0  0
103104  2  0  0  0  0
103105  1  0  0  0  0
 95106  2  0  0  0  0
106107  1  0  0  0  0
 94108  1  0  0  0  0
108109  2  0  0  0  0
109110  1  0  0  0  0
109111  1  0  0  0  0
111112  2  0  0  0  0
112113  1  0  0  0  0
113114  2  0  0  0  0
114115  1  0  0  0  0
115116  2  0  0  0  0
116117  1  0  0  0  0
117118  2  0  0  0  0
118119  1  0  0  0  0
119120  1  0  0  0  0
120121  1  0  0  0  0
118122  1  0  0  0  0
122123  1  0  0  0  0
122124  2  0  0  0  0
114125  1  0  0  0  0
125126  2  0  0  0  0
126127  1  0  0  0  0
127128  1  0  0  0  0
128129  2  0  0  0  0
129130  1  0  0  0  0
130131  2  0  0  0  0
131132  1  0  0  0  0
132133  1  0  0  0  0
133134  1  0  0  0  0
131135  1  0  0  0  0
135136  2  0  0  0  0
135137  1  0  0  0  0
127138  2  0  0  0  0
138139  1  0  0  0  0
126140  1  0  0  0  0
140141  2  0  0  0  0
141142  1  0  0  0  0
  5  1  2  0  0  0  0
 12  8  2  0  0  0  0
 43 15  1  0  0  0  0
 75 47  1  0  0  0  0
107 79  1  0  0  0  0
139111  1  0  0  0  0
  7  4  1  0  0  0  0
 14 11  1  0  0  0  0
 42 17  1  0  0  0  0
 74 49  1  0  0  0  0
106 81  1  0  0  0  0
138113  1  0  0  0  0
 28 19  1  0  0  0  0
 46 29  1  0  0  0  0
 60 51  1  0  0  0  0
 78 61  1  0  0  0  0
 92 83  1  0  0  0  0
110 93  1  0  0  0  0
124115  1  0  0  0  0
142125  1  0  0  0  0
 40 32  1  0  0  0  0
 72 64  1  0  0  0  0
104 96  1  0  0  0  0
136128  1  0  0  0  0
  1143  1  0  0  0  0
  6144  1  0  0  0  0
  6145  1  0  0  0  0
  7146  1  0  0  0  0
 13147  1  0  0  0  0
 13148  1  0  0  0  0
 14149  1  0  0  0  0
 16150  1  0  0  0  0
 20151  1  0  0  0  0
 21152  1  0  0  0  0
 24153  1  0  0  0  0
 24154  1  0  0  0  0
 25155  1  0  0  0  0
 25156  1  0  0  0  0
 25157  1  0  0  0  0
 28158  1  0  0  0  0
 33159  1  0  0  0  0
 34160  1  0  0  0  0
 37161  1  0  0  0  0
 37162  1  0  0  0  0
 38163  1  0  0  0  0
 38164  1  0  0  0  0
 38165  1  0  0  0  0
 40166  1  0  0  0  0
 44167  1  0  0  0  0
 48168  1  0  0  0  0
 52169  1  0  0  0  0
 53170  1  0  0  0  0
 56171  1  0  0  0  0
 56172  1  0  0  0  0
 57173  1  0  0  0  0
 57174  1  0  0  0  0
 57175  1  0  0  0  0
 60176  1  0  0  0  0
 65177  1  0  0  0  0
 66178  1  0  0  0  0
 69179  1  0  0  0  0
 69180  1  0  0  0  0
 70181  1  0  0  0  0
 70182  1  0  0  0  0
 70183  1  0  0  0  0
 72184  1  0  0  0  0
 76185  1  0  0  0  0
 80186  1  0  0  0  0
 84187  1  0  0  0  0
 85188  1  0  0  0  0
 88189  1  0  0  0  0
 88190  1  0  0  0  0
 89191  1  0  0  0  0
 89192  1  0  0  0  0
 89193  1  0  0  0  0
 92194  1  0  0  0  0
 97195  1  0  0  0  0
 98196  1  0  0  0  0
101197  1  0  0  0  0
101198  1  0  0  0  0
102199  1  0  0  0  0
102200  1  0  0  0  0
102201  1  0  0  0  0
104202  1  0  0  0  0
108203  1  0  0  0  0
112204  1  0  0  0  0
116205  1  0  0  0  0
117206  1  0  0  0  0
120207  1  0  0  0  0
120208  1  0  0  0  0
121209  1  0  0  0  0
121210  1  0  0  0  0
121211  1  0  0  0  0
124212  1  0  0  0  0
129213  1  0  0  0  0
130214  1  0  0  0  0
133215  1  0  0  0  0
133216  1  0  0  0  0
134217  1  0  0  0  0
134218  1  0  0  0  0
134219  1  0  0  0  0
136220  1  0  0  0  0
140221  1  0  0  0  0
141222  1  0  0  0  0
M  END
