
  xtb     03042219063D
 energy: -451.751692572776 gnorm: 0.000191886255 xtb: 6.4.1 (unknown)
252275  0     0  0            999 V2000
   -6.1043   -5.6107   11.6455 C   0  0  0  0  0  0  0  0  0  0  0  0
   -5.2395   -4.8649   10.9299 C   0  0  0  0  0  0  0  0  0  0  0  0
   -5.7741   -4.4442    9.6746 C   0  0  0  0  0  0  0  0  0  0  0  0
   -5.1712   -3.6316    8.7039 C   0  0  0  0  0  0  0  0  0  0  0  0
   -3.7598   -3.2370    8.7853 C   0  0  0  0  0  0  0  0  0  0  0  0
   -2.7825   -4.1983    9.0310 C   0  0  0  0  0  0  0  0  0  0  0  0
   -1.4396   -3.8757    9.0265 C   0  0  0  0  0  0  0  0  0  0  0  0
   -1.0210   -2.5746    8.7718 C   0  0  0  0  0  0  0  0  0  0  0  0
    0.6520   -2.0283    8.7177 S   0  0  0  0  0  0  0  0  0  0  0  0
    1.6382   -3.5614    8.8054 C   0  0  0  0  0  0  0  0  0  0  0  0
    1.6071   -4.3490    7.5103 C   0  0  0  0  0  0  0  0  0  0  0  0
   -2.0125   -1.6165    8.5497 C   0  0  0  0  0  0  0  0  0  0  0  0
   -1.6437   -0.3394    8.3210 F   0  0  0  0  0  0  0  0  0  0  0  0
   -3.3542   -1.9247    8.5504 C   0  0  0  0  0  0  0  0  0  0  0  0
   -5.9552   -3.2904    7.6089 C   0  0  0  0  0  0  0  0  0  0  0  0
   -7.2677   -3.7806    7.4098 C   0  0  0  0  0  0  0  0  0  0  0  0
   -7.8625   -4.6091    8.3716 C   0  0  0  0  0  0  0  0  0  0  0  0
   -9.2294   -5.1185    8.2095 C   0  0  0  0  0  0  0  0  0  0  0  0
   -9.5133   -6.4723    8.3563 C   0  0  0  0  0  0  0  0  0  0  0  0
  -10.7994   -6.9546    8.2080 C   0  0  0  0  0  0  0  0  0  0  0  0
  -11.8516   -6.0972    7.9078 C   0  0  0  0  0  0  0  0  0  0  0  0
  -13.5381   -6.5667    7.7135 S   0  0  0  0  0  0  0  0  0  0  0  0
  -13.4891   -8.3877    7.5914 C   0  0  0  0  0  0  0  0  0  0  0  0
  -12.9059   -8.8625    6.2739 C   0  0  0  0  0  0  0  0  0  0  0  0
  -11.5537   -4.7392    7.7767 C   0  0  0  0  0  0  0  0  0  0  0  0
  -10.2768   -4.2463    7.9180 C   0  0  0  0  0  0  0  0  0  0  0  0
  -12.5513   -3.8735    7.5013 F   0  0  0  0  0  0  0  0  0  0  0  0
   -7.0966   -4.9118    9.4897 C   0  0  0  0  0  0  0  0  0  0  0  0
   -7.6229   -5.8643   10.8542 S   0  0  0  0  0  0  0  0  0  0  0  0
   -7.7960   -3.3829    6.1465 C   0  0  0  0  0  0  0  0  0  0  0  0
   -6.9590   -2.5907    5.4381 C   0  0  0  0  0  0  0  0  0  0  0  0
   -5.4432   -2.2956    6.2724 S   0  0  0  0  0  0  0  0  0  0  0  0
   -7.1096   -2.0320    4.1114 C   0  0  0  0  0  0  0  0  0  0  0  0
   -7.2100   -0.7281    3.7600 C   0  0  0  0  0  0  0  0  0  0  0  0
   -7.1611   -0.5102    2.3536 C   0  0  0  0  0  0  0  0  0  0  0  0
   -7.1754    0.7196    1.6760 C   0  0  0  0  0  0  0  0  0  0  0  0
   -7.4621    1.9714    2.3866 C   0  0  0  0  0  0  0  0  0  0  0  0
   -8.5831    2.0667    3.2073 C   0  0  0  0  0  0  0  0  0  0  0  0
   -8.8927    3.2413    3.8648 C   0  0  0  0  0  0  0  0  0  0  0  0
   -8.0891    4.3674    3.7255 C   0  0  0  0  0  0  0  0  0  0  0  0
   -8.3536    5.9194    4.5138 S   0  0  0  0  0  0  0  0  0  0  0  0
  -10.0767    5.8298    5.1124 C   0  0  0  0  0  0  0  0  0  0  0  0
  -11.0838    5.8672    3.9786 C   0  0  0  0  0  0  0  0  0  0  0  0
   -6.9590    4.2519    2.9129 C   0  0  0  0  0  0  0  0  0  0  0  0
   -6.1449    5.3158    2.7736 F   0  0  0  0  0  0  0  0  0  0  0  0
   -6.6415    3.0888    2.2489 C   0  0  0  0  0  0  0  0  0  0  0  0
   -6.8922    0.6805    0.3179 C   0  0  0  0  0  0  0  0  0  0  0  0
   -6.6746   -0.5305   -0.3844 C   0  0  0  0  0  0  0  0  0  0  0  0
   -6.7407   -1.7668    0.2790 C   0  0  0  0  0  0  0  0  0  0  0  0
   -6.4724   -3.0129   -0.4504 C   0  0  0  0  0  0  0  0  0  0  0  0
   -7.1465   -3.3162   -1.6327 C   0  0  0  0  0  0  0  0  0  0  0  0
   -6.8237   -4.4447   -2.3568 C   0  0  0  0  0  0  0  0  0  0  0  0
   -5.8224   -5.3141   -1.9304 C   0  0  0  0  0  0  0  0  0  0  0  0
   -5.4734   -6.7345   -2.9288 S   0  0  0  0  0  0  0  0  0  0  0  0
   -3.6417   -6.7724   -2.9811 C   0  0  0  0  0  0  0  0  0  0  0  0
   -3.0571   -5.4967   -3.5535 C   0  0  0  0  0  0  0  0  0  0  0  0
   -5.1935   -5.0266   -0.7233 C   0  0  0  0  0  0  0  0  0  0  0  0
   -5.4957   -3.8931    0.0035 C   0  0  0  0  0  0  0  0  0  0  0  0
   -4.2457   -5.8502   -0.2269 F   0  0  0  0  0  0  0  0  0  0  0  0
   -6.9628   -1.7206    1.6460 C   0  0  0  0  0  0  0  0  0  0  0  0
   -6.9754   -3.0939    2.7216 S   0  0  0  0  0  0  0  0  0  0  0  0
   -6.2632   -0.3018   -1.7191 C   0  0  0  0  0  0  0  0  0  0  0  0
   -6.1602    1.0202   -2.0439 C   0  0  0  0  0  0  0  0  0  0  0  0
   -6.6647    2.0599   -0.7289 S   0  0  0  0  0  0  0  0  0  0  0  0
   -5.4906    1.5363   -3.1968 C   0  0  0  0  0  0  0  0  0  0  0  0
   -4.9210    0.7833   -4.1826 C   0  0  0  0  0  0  0  0  0  0  0  0
   -4.0033    1.5022   -4.9849 C   0  0  0  0  0  0  0  0  0  0  0  0
   -3.0816    0.9546   -5.8911 C   0  0  0  0  0  0  0  0  0  0  0  0
   -3.2118   -0.4489   -6.3011 C   0  0  0  0  0  0  0  0  0  0  0  0
   -2.1829   -1.3762   -6.1511 C   0  0  0  0  0  0  0  0  0  0  0  0
   -2.3827   -2.6976   -6.4848 C   0  0  0  0  0  0  0  0  0  0  0  0
   -3.5952   -3.1526   -7.0105 C   0  0  0  0  0  0  0  0  0  0  0  0
   -3.6524   -4.8752   -7.3939 S   0  0  0  0  0  0  0  0  0  0  0  0
   -5.4135   -5.3365   -7.5831 C   0  0  0  0  0  0  0  0  0  0  0  0
   -6.1923   -5.2328   -6.2877 C   0  0  0  0  0  0  0  0  0  0  0  0
   -4.5933   -2.2020   -7.2020 C   0  0  0  0  0  0  0  0  0  0  0  0
   -5.7858   -2.5238   -7.7551 F   0  0  0  0  0  0  0  0  0  0  0  0
   -4.4207   -0.8833   -6.8330 C   0  0  0  0  0  0  0  0  0  0  0  0
   -2.0514    1.7869   -6.2952 C   0  0  0  0  0  0  0  0  0  0  0  0
   -1.9847    3.1614   -5.9495 C   0  0  0  0  0  0  0  0  0  0  0  0
   -2.9617    3.7286   -5.1142 C   0  0  0  0  0  0  0  0  0  0  0  0
   -2.9334    5.1371   -4.7002 C   0  0  0  0  0  0  0  0  0  0  0  0
   -1.7963    5.7182   -4.1414 C   0  0  0  0  0  0  0  0  0  0  0  0
   -1.8036    7.0409   -3.7559 C   0  0  0  0  0  0  0  0  0  0  0  0
   -2.9399    7.8380   -3.8980 C   0  0  0  0  0  0  0  0  0  0  0  0
   -2.8098    9.5021   -3.3214 S   0  0  0  0  0  0  0  0  0  0  0  0
   -3.9054   10.4790   -4.4151 C   0  0  0  0  0  0  0  0  0  0  0  0
   -3.5034   10.3692   -5.8721 C   0  0  0  0  0  0  0  0  0  0  0  0
   -4.0794    7.2316   -4.4187 C   0  0  0  0  0  0  0  0  0  0  0  0
   -4.0814    5.9121   -4.8236 C   0  0  0  0  0  0  0  0  0  0  0  0
   -5.2366    7.9163   -4.5511 F   0  0  0  0  0  0  0  0  0  0  0  0
   -3.9256    2.8648   -4.6133 C   0  0  0  0  0  0  0  0  0  0  0  0
   -5.0361    3.2255   -3.3141 S   0  0  0  0  0  0  0  0  0  0  0  0
   -0.8012    3.7696   -6.4499 C   0  0  0  0  0  0  0  0  0  0  0  0
    0.0305    2.8937   -7.0744 C   0  0  0  0  0  0  0  0  0  0  0  0
   -0.6502    1.2867   -7.1958 S   0  0  0  0  0  0  0  0  0  0  0  0
    1.4252    3.0712   -7.3919 C   0  0  0  0  0  0  0  0  0  0  0  0
    2.5339    1.9833   -6.6162 S   0  0  0  0  0  0  0  0  0  0  0  0
    3.9039    2.8280   -7.2656 C   0  0  0  0  0  0  0  0  0  0  0  0
    3.4972    3.8638   -8.0848 C   0  0  0  0  0  0  0  0  0  0  0  0
    2.0918    4.0214   -8.1267 C   0  0  0  0  0  0  0  0  0  0  0  0
    1.4148    5.0677   -8.9588 C   0  0  0  0  0  0  0  0  0  0  0  0
    0.8161    4.3363  -10.1252 N   0  0  0  0  0  4  0  0  0  0  0  0
    1.3863    4.3870  -11.1843 O   0  0  0  0  0  1  0  0  0  0  0  0
   -0.1950    3.7199   -9.8985 O   0  0  0  0  0  0  0  0  0  0  0  0
    2.3729    6.1653   -9.4017 C   0  0  0  0  0  0  0  0  0  0  0  0
    3.7341    5.6292   -9.8464 C   0  0  0  0  0  0  0  0  0  0  0  0
    4.4397    4.7992   -8.7784 C   0  0  0  0  0  0  0  0  0  0  0  0
    5.0320    5.6546   -7.7018 N   0  0  0  0  0  4  0  0  0  0  0  0
    6.0900    5.2901   -7.2450 O   0  0  0  0  0  1  0  0  0  0  0  0
    4.4107    6.6156   -7.3258 O   0  0  0  0  0  0  0  0  0  0  0  0
    5.2360    2.4905   -6.8833 C   0  0  0  0  0  0  0  0  0  0  0  0
    5.4876    1.7688   -5.7699 C   0  0  0  0  0  0  0  0  0  0  0  0
    6.7324    1.4499   -5.1616 C   0  0  0  0  0  0  0  0  0  0  0  0
    6.6589    0.4009   -3.7745 S   0  0  0  0  0  0  0  0  0  0  0  0
    8.3698    0.4947   -3.5232 C   0  0  0  0  0  0  0  0  0  0  0  0
    8.9572    1.2908   -4.4949 C   0  0  0  0  0  0  0  0  0  0  0  0
    8.0365    1.8607   -5.3935 C   0  0  0  0  0  0  0  0  0  0  0  0
    8.4480    2.8428   -6.4429 C   0  0  0  0  0  0  0  0  0  0  0  0
    8.4770    2.1729   -7.7730 N   0  0  0  0  0  4  0  0  0  0  0  0
    9.0769    1.1301   -7.8650 O   0  0  0  0  0  1  0  0  0  0  0  0
    7.9038    2.7282   -8.6804 O   0  0  0  0  0  0  0  0  0  0  0  0
    9.8438    3.4122   -6.1608 C   0  0  0  0  0  0  0  0  0  0  0  0
   10.8366    2.3130   -5.8052 C   0  0  0  0  0  0  0  0  0  0  0  0
   10.4241    1.5793   -4.5265 C   0  0  0  0  0  0  0  0  0  0  0  0
   10.7662    2.4216   -3.3396 N   0  0  0  0  0  4  0  0  0  0  0  0
   11.6299    2.0048   -2.6084 O   0  0  0  0  0  1  0  0  0  0  0  0
   10.1608    3.4542   -3.1932 O   0  0  0  0  0  0  0  0  0  0  0  0
    8.9932   -0.1392   -2.4096 C   0  0  0  0  0  0  0  0  0  0  0  0
    8.3001   -0.5922   -1.3428 C   0  0  0  0  0  0  0  0  0  0  0  0
    8.8737   -1.1865   -0.1813 C   0  0  0  0  0  0  0  0  0  0  0  0
   10.1311   -1.6833    0.0135 C   0  0  0  0  0  0  0  0  0  0  0  0
   10.3568   -2.1701    1.3248 C   0  0  0  0  0  0  0  0  0  0  0  0
   11.5156   -2.7814    1.8326 C   0  0  0  0  0  0  0  0  0  0  0  0
   12.7150   -2.9692    1.0081 C   0  0  0  0  0  0  0  0  0  0  0  0
   13.3261   -4.2197    0.9201 C   0  0  0  0  0  0  0  0  0  0  0  0
   14.4415   -4.4031    0.1337 C   0  0  0  0  0  0  0  0  0  0  0  0
   15.0060   -3.3492   -0.5854 C   0  0  0  0  0  0  0  0  0  0  0  0
   16.4539   -3.7109   -1.5255 S   0  0  0  0  0  0  0  0  0  0  0  0
   16.3904   -2.5290   -2.9320 C   0  0  0  0  0  0  0  0  0  0  0  0
   17.2242   -3.0841   -4.0699 C   0  0  0  0  0  0  0  0  0  0  0  0
   14.4060   -2.0992   -0.4605 C   0  0  0  0  0  0  0  0  0  0  0  0
   14.9214   -1.0167   -1.0856 F   0  0  0  0  0  0  0  0  0  0  0  0
   13.2737   -1.9064    0.3054 C   0  0  0  0  0  0  0  0  0  0  0  0
   11.4662   -3.2057    3.1529 C   0  0  0  0  0  0  0  0  0  0  0  0
   10.3293   -3.0398    3.9806 C   0  0  0  0  0  0  0  0  0  0  0  0
    9.1628   -2.4515    3.4684 C   0  0  0  0  0  0  0  0  0  0  0  0
    7.9594   -2.2993    4.2964 C   0  0  0  0  0  0  0  0  0  0  0  0
    7.3119   -1.0728    4.4092 C   0  0  0  0  0  0  0  0  0  0  0  0
    6.1978   -0.9216    5.2128 C   0  0  0  0  0  0  0  0  0  0  0  0
    5.6828   -1.9986    5.9245 C   0  0  0  0  0  0  0  0  0  0  0  0
    4.3109   -1.9455    7.0263 S   0  0  0  0  0  0  0  0  0  0  0  0
    3.4895   -0.3530    6.6875 C   0  0  0  0  0  0  0  0  0  0  0  0
    2.7741   -0.3475    5.3510 C   0  0  0  0  0  0  0  0  0  0  0  0
    6.3324   -3.2273    5.7881 C   0  0  0  0  0  0  0  0  0  0  0  0
    7.4474   -3.3895    4.9989 C   0  0  0  0  0  0  0  0  0  0  0  0
    5.8527   -4.2974    6.4572 F   0  0  0  0  0  0  0  0  0  0  0  0
    9.2104   -2.0267    2.1486 C   0  0  0  0  0  0  0  0  0  0  0  0
    7.8894   -1.3119    1.2670 S   0  0  0  0  0  0  0  0  0  0  0  0
   10.5799   -3.4906    5.3109 C   0  0  0  0  0  0  0  0  0  0  0  0
   11.8258   -3.9796    5.4736 C   0  0  0  0  0  0  0  0  0  0  0  0
   12.7857   -3.9319    4.0353 S   0  0  0  0  0  0  0  0  0  0  0  0
   -5.9561   -6.0438   12.6155 H   0  0  0  0  0  0  0  0  0  0  0  0
   -4.2597   -4.5894   11.2754 H   0  0  0  0  0  0  0  0  0  0  0  0
   -3.0760   -5.2238    9.1977 H   0  0  0  0  0  0  0  0  0  0  0  0
   -0.7199   -4.6544    9.2186 H   0  0  0  0  0  0  0  0  0  0  0  0
    2.6483   -3.2057    9.0072 H   0  0  0  0  0  0  0  0  0  0  0  0
    1.2953   -4.1411    9.6614 H   0  0  0  0  0  0  0  0  0  0  0  0
    0.5928   -4.6375    7.2427 H   0  0  0  0  0  0  0  0  0  0  0  0
    2.2133   -5.2462    7.6149 H   0  0  0  0  0  0  0  0  0  0  0  0
    2.0223   -3.7512    6.7035 H   0  0  0  0  0  0  0  0  0  0  0  0
   -4.0714   -1.1376    8.3802 H   0  0  0  0  0  0  0  0  0  0  0  0
   -8.7144   -7.1645    8.5739 H   0  0  0  0  0  0  0  0  0  0  0  0
  -10.9738   -8.0103    8.3355 H   0  0  0  0  0  0  0  0  0  0  0  0
  -14.5371   -8.6751    7.6761 H   0  0  0  0  0  0  0  0  0  0  0  0
  -12.9523   -8.7814    8.4535 H   0  0  0  0  0  0  0  0  0  0  0  0
  -11.8757   -8.5325    6.1589 H   0  0  0  0  0  0  0  0  0  0  0  0
  -13.4861   -8.4669    5.4436 H   0  0  0  0  0  0  0  0  0  0  0  0
  -12.9302   -9.9497    6.2287 H   0  0  0  0  0  0  0  0  0  0  0  0
  -10.1079   -3.1849    7.8235 H   0  0  0  0  0  0  0  0  0  0  0  0
   -8.7609   -3.6888    5.7842 H   0  0  0  0  0  0  0  0  0  0  0  0
   -7.2806    0.0682    4.4791 H   0  0  0  0  0  0  0  0  0  0  0  0
   -9.2356    1.2133    3.3169 H   0  0  0  0  0  0  0  0  0  0  0  0
   -9.7680    3.2687    4.4931 H   0  0  0  0  0  0  0  0  0  0  0  0
  -10.1850    4.9458    5.7395 H   0  0  0  0  0  0  0  0  0  0  0  0
  -10.1710    6.7139    5.7431 H   0  0  0  0  0  0  0  0  0  0  0  0
  -12.0949    5.8415    4.3807 H   0  0  0  0  0  0  0  0  0  0  0  0
  -10.9535    5.0186    3.3103 H   0  0  0  0  0  0  0  0  0  0  0  0
  -10.9622    6.7796    3.3998 H   0  0  0  0  0  0  0  0  0  0  0  0
   -5.7476    3.0595    1.6468 H   0  0  0  0  0  0  0  0  0  0  0  0
   -7.9295   -2.6602   -1.9821 H   0  0  0  0  0  0  0  0  0  0  0  0
   -7.3396   -4.6715   -3.2769 H   0  0  0  0  0  0  0  0  0  0  0  0
   -3.2680   -6.9799   -1.9809 H   0  0  0  0  0  0  0  0  0  0  0  0
   -3.4268   -7.6257   -3.6242 H   0  0  0  0  0  0  0  0  0  0  0  0
   -1.9730   -5.5808   -3.5931 H   0  0  0  0  0  0  0  0  0  0  0  0
   -3.3122   -4.6382   -2.9339 H   0  0  0  0  0  0  0  0  0  0  0  0
   -3.4256   -5.3200   -4.5612 H   0  0  0  0  0  0  0  0  0  0  0  0
   -4.9505   -3.7025    0.9144 H   0  0  0  0  0  0  0  0  0  0  0  0
   -5.9832   -1.0973   -2.3843 H   0  0  0  0  0  0  0  0  0  0  0  0
   -5.0737   -0.2751   -4.2837 H   0  0  0  0  0  0  0  0  0  0  0  0
   -1.2352   -1.0661   -5.7394 H   0  0  0  0  0  0  0  0  0  0  0  0
   -1.5928   -3.4187   -6.3423 H   0  0  0  0  0  0  0  0  0  0  0  0
   -5.8489   -4.7340   -8.3767 H   0  0  0  0  0  0  0  0  0  0  0  0
   -5.3553   -6.3725   -7.9187 H   0  0  0  0  0  0  0  0  0  0  0  0
   -7.2197   -5.5474   -6.4595 H   0  0  0  0  0  0  0  0  0  0  0  0
   -5.7587   -5.8736   -5.5236 H   0  0  0  0  0  0  0  0  0  0  0  0
   -6.2058   -4.2096   -5.9190 H   0  0  0  0  0  0  0  0  0  0  0  0
   -5.2350   -0.1929   -6.9918 H   0  0  0  0  0  0  0  0  0  0  0  0
   -0.9102    5.1217   -3.9871 H   0  0  0  0  0  0  0  0  0  0  0  0
   -0.9208    7.4885   -3.3261 H   0  0  0  0  0  0  0  0  0  0  0  0
   -3.7723   11.4968   -4.0478 H   0  0  0  0  0  0  0  0  0  0  0  0
   -4.9365   10.1755   -4.2504 H   0  0  0  0  0  0  0  0  0  0  0  0
   -3.6376    9.3530   -6.2374 H   0  0  0  0  0  0  0  0  0  0  0  0
   -2.4602   10.6494   -6.0025 H   0  0  0  0  0  0  0  0  0  0  0  0
   -4.1222   11.0327   -6.4727 H   0  0  0  0  0  0  0  0  0  0  0  0
   -4.9893    5.4995   -5.2356 H   0  0  0  0  0  0  0  0  0  0  0  0
   -0.5541    4.8025   -6.2838 H   0  0  0  0  0  0  0  0  0  0  0  0
    0.5596    5.4810   -8.4160 H   0  0  0  0  0  0  0  0  0  0  0  0
    2.5080    6.8541   -8.5673 H   0  0  0  0  0  0  0  0  0  0  0  0
    1.9283    6.7163  -10.2320 H   0  0  0  0  0  0  0  0  0  0  0  0
    3.6021    4.9980  -10.7262 H   0  0  0  0  0  0  0  0  0  0  0  0
    4.3693    6.4703  -10.1287 H   0  0  0  0  0  0  0  0  0  0  0  0
    5.2827    4.2481   -9.2088 H   0  0  0  0  0  0  0  0  0  0  0  0
    6.0153    2.8931   -7.5064 H   0  0  0  0  0  0  0  0  0  0  0  0
    4.6309    1.3899   -5.2235 H   0  0  0  0  0  0  0  0  0  0  0  0
    7.7294    3.6656   -6.5203 H   0  0  0  0  0  0  0  0  0  0  0  0
   10.1946    3.9670   -7.0328 H   0  0  0  0  0  0  0  0  0  0  0  0
    9.7518    4.1135   -5.3291 H   0  0  0  0  0  0  0  0  0  0  0  0
   11.8349    2.7368   -5.6804 H   0  0  0  0  0  0  0  0  0  0  0  0
   10.8814    1.5761   -6.6104 H   0  0  0  0  0  0  0  0  0  0  0  0
   11.0103    0.6614   -4.4149 H   0  0  0  0  0  0  0  0  0  0  0  0
   10.0721   -0.2014   -2.4154 H   0  0  0  0  0  0  0  0  0  0  0  0
    7.2256   -0.4592   -1.3239 H   0  0  0  0  0  0  0  0  0  0  0  0
   10.8700   -1.7320   -0.7648 H   0  0  0  0  0  0  0  0  0  0  0  0
   12.9043   -5.0596    1.4497 H   0  0  0  0  0  0  0  0  0  0  0  0
   14.9015   -5.3758    0.0572 H   0  0  0  0  0  0  0  0  0  0  0  0
   16.7748   -1.5680   -2.5941 H   0  0  0  0  0  0  0  0  0  0  0  0
   15.3457   -2.4282   -3.2222 H   0  0  0  0  0  0  0  0  0  0  0  0
   16.8371   -4.0477   -4.3936 H   0  0  0  0  0  0  0  0  0  0  0  0
   18.2572   -3.2160   -3.7562 H   0  0  0  0  0  0  0  0  0  0  0  0
   17.2009   -2.3956   -4.9119 H   0  0  0  0  0  0  0  0  0  0  0  0
   12.8622   -0.9111    0.3757 H   0  0  0  0  0  0  0  0  0  0  0  0
    7.6995   -0.2141    3.8830 H   0  0  0  0  0  0  0  0  0  0  0  0
    5.7398    0.0512    5.2893 H   0  0  0  0  0  0  0  0  0  0  0  0
    2.7747   -0.2576    7.5053 H   0  0  0  0  0  0  0  0  0  0  0  0
    4.2282    0.4429    6.7725 H   0  0  0  0  0  0  0  0  0  0  0  0
    2.0129   -1.1237    5.3314 H   0  0  0  0  0  0  0  0  0  0  0  0
    3.4676   -0.5212    4.5302 H   0  0  0  0  0  0  0  0  0  0  0  0
    2.2876    0.6139    5.2003 H   0  0  0  0  0  0  0  0  0  0  0  0
    7.8988   -4.3660    4.9182 H   0  0  0  0  0  0  0  0  0  0  0  0
    9.8572   -3.4260    6.1035 H   0  0  0  0  0  0  0  0  0  0  0  0
   12.2646   -4.3782    6.3674 H   0  0  0  0  0  0  0  0  0  0  0  0
  1  2  2  0  0  0  0
  2  3  1  0  0  0  0
  3  4  2  0  0  0  0
  4  5  1  0  0  0  0
  5  6  2  0  0  0  0
  6  7  1  0  0  0  0
  7  8  2  0  0  0  0
  8  9  1  0  0  0  0
  9 10  1  0  0  0  0
 10 11  1  0  0  0  0
  8 12  1  0  0  0  0
 12 13  1  0  0  0  0
 12 14  2  0  0  0  0
  4 15  1  0  0  0  0
 15 16  2  0  0  0  0
 16 17  1  0  0  0  0
 17 18  1  0  0  0  0
 18 19  2  0  0  0  0
 19 20  1  0  0  0  0
 20 21  2  0  0  0  0
 21 22  1  0  0  0  0
 22 23  1  0  0  0  0
 23 24  1  0  0  0  0
 21 25  1  0  0  0  0
 25 26  2  0  0  0  0
 25 27  1  0  0  0  0
 17 28  2  0  0  0  0
 28 29  1  0  0  0  0
 16 30  1  0  0  0  0
 30 31  2  0  0  0  0
 31 32  1  0  0  0  0
 31 33  1  0  0  0  0
 33 34  2  0  0  0  0
 34 35  1  0  0  0  0
 35 36  2  0  0  0  0
 36 37  1  0  0  0  0
 37 38  2  0  0  0  0
 38 39  1  0  0  0  0
 39 40  2  0  0  0  0
 40 41  1  0  0  0  0
 41 42  1  0  0  0  0
 42 43  1  0  0  0  0
 40 44  1  0  0  0  0
 44 45  1  0  0  0  0
 44 46  2  0  0  0  0
 36 47  1  0  0  0  0
 47 48  2  0  0  0  0
 48 49  1  0  0  0  0
 49 50  1  0  0  0  0
 50 51  2  0  0  0  0
 51 52  1  0  0  0  0
 52 53  2  0  0  0  0
 53 54  1  0  0  0  0
 54 55  1  0  0  0  0
 55 56  1  0  0  0  0
 53 57  1  0  0  0  0
 57 58  2  0  0  0  0
 57 59  1  0  0  0  0
 49 60  2  0  0  0  0
 60 61  1  0  0  0  0
 48 62  1  0  0  0  0
 62 63  2  0  0  0  0
 63 64  1  0  0  0  0
 63 65  1  0  0  0  0
 65 66  2  0  0  0  0
 66 67  1  0  0  0  0
 67 68  2  0  0  0  0
 68 69  1  0  0  0  0
 69 70  2  0  0  0  0
 70 71  1  0  0  0  0
 71 72  2  0  0  0  0
 72 73  1  0  0  0  0
 73 74  1  0  0  0  0
 74 75  1  0  0  0  0
 72 76  1  0  0  0  0
 76 77  1  0  0  0  0
 76 78  2  0  0  0  0
 68 79  1  0  0  0  0
 79 80  2  0  0  0  0
 80 81  1  0  0  0  0
 81 82  1  0  0  0  0
 82 83  2  0  0  0  0
 83 84  1  0  0  0  0
 84 85  2  0  0  0  0
 85 86  1  0  0  0  0
 86 87  1  0  0  0  0
 87 88  1  0  0  0  0
 85 89  1  0  0  0  0
 89 90  2  0  0  0  0
 89 91  1  0  0  0  0
 81 92  2  0  0  0  0
 92 93  1  0  0  0  0
 80 94  1  0  0  0  0
 94 95  2  0  0  0  0
 95 96  1  0  0  0  0
 95 97  1  0  0  0  0
 97 98  1  0  0  0  0
 98 99  1  0  0  0  0
 99100  2  0  0  0  0
100101  1  0  0  0  0
101102  1  0  0  0  0
102103  1  0  0  0  0
103104  1  0  0  0  0
103105  2  0  0  0  0
102106  1  0  0  0  0
106107  1  0  0  0  0
107108  1  0  0  0  0
108109  1  0  0  0  0
109110  1  0  0  0  0
109111  2  0  0  0  0
 99112  1  0  0  0  0
112113  2  0  0  0  0
113114  1  0  0  0  0
114115  1  0  0  0  0
115116  1  0  0  0  0
116117  2  0  0  0  0
117118  1  0  0  0  0
118119  1  0  0  0  0
119120  1  0  0  0  0
120121  1  0  0  0  0
120122  2  0  0  0  0
119123  1  0  0  0  0
123124  1  0  0  0  0
124125  1  0  0  0  0
125126  1  0  0  0  0
126127  1  0  0  0  0
126128  2  0  0  0  0
116129  1  0  0  0  0
129130  2  0  0  0  0
130131  1  0  0  0  0
131132  2  0  0  0  0
132133  1  0  0  0  0
133134  2  0  0  0  0
134135  1  0  0  0  0
135136  2  0  0  0  0
136137  1  0  0  0  0
137138  2  0  0  0  0
138139  1  0  0  0  0
139140  1  0  0  0  0
140141  1  0  0  0  0
138142  1  0  0  0  0
142143  1  0  0  0  0
142144  2  0  0  0  0
134145  1  0  0  0  0
145146  2  0  0  0  0
146147  1  0  0  0  0
147148  1  0  0  0  0
148149  2  0  0  0  0
149150  1  0  0  0  0
150151  2  0  0  0  0
151152  1  0  0  0  0
152153  1  0  0  0  0
153154  1  0  0  0  0
151155  1  0  0  0  0
155156  2  0  0  0  0
155157  1  0  0  0  0
147158  2  0  0  0  0
158159  1  0  0  0  0
146160  1  0  0  0  0
160161  2  0  0  0  0
161162  1  0  0  0  0
 29  1  1  0  0  0  0
 61 33  1  0  0  0  0
 93 65  1  0  0  0  0
101 97  2  0  0  0  0
118114  2  0  0  0  0
159131  1  0  0  0  0
 28  3  1  0  0  0  0
 60 35  1  0  0  0  0
 92 67  1  0  0  0  0
108100  1  0  0  0  0
125117  1  0  0  0  0
158133  1  0  0  0  0
 14  5  1  0  0  0  0
 32 15  1  0  0  0  0
 46 37  1  0  0  0  0
 64 47  1  0  0  0  0
 78 69  1  0  0  0  0
 96 79  1  0  0  0  0
144135  1  0  0  0  0
162145  1  0  0  0  0
 26 18  1  0  0  0  0
 58 50  1  0  0  0  0
 90 82  1  0  0  0  0
156148  1  0  0  0  0
  1163  1  0  0  0  0
  2164  1  0  0  0  0
  6165  1  0  0  0  0
  7166  1  0  0  0  0
 10167  1  0  0  0  0
 10168  1  0  0  0  0
 11169  1  0  0  0  0
 11170  1  0  0  0  0
 11171  1  0  0  0  0
 14172  1  0  0  0  0
 19173  1  0  0  0  0
 20174  1  0  0  0  0
 23175  1  0  0  0  0
 23176  1  0  0  0  0
 24177  1  0  0  0  0
 24178  1  0  0  0  0
 24179  1  0  0  0  0
 26180  1  0  0  0  0
 30181  1  0  0  0  0
 34182  1  0  0  0  0
 38183  1  0  0  0  0
 39184  1  0  0  0  0
 42185  1  0  0  0  0
 42186  1  0  0  0  0
 43187  1  0  0  0  0
 43188  1  0  0  0  0
 43189  1  0  0  0  0
 46190  1  0  0  0  0
 51191  1  0  0  0  0
 52192  1  0  0  0  0
 55193  1  0  0  0  0
 55194  1  0  0  0  0
 56195  1  0  0  0  0
 56196  1  0  0  0  0
 56197  1  0  0  0  0
 58198  1  0  0  0  0
 62199  1  0  0  0  0
 66200  1  0  0  0  0
 70201  1  0  0  0  0
 71202  1  0  0  0  0
 74203  1  0  0  0  0
 74204  1  0  0  0  0
 75205  1  0  0  0  0
 75206  1  0  0  0  0
 75207  1  0  0  0  0
 78208  1  0  0  0  0
 83209  1  0  0  0  0
 84210  1  0  0  0  0
 87211  1  0  0  0  0
 87212  1  0  0  0  0
 88213  1  0  0  0  0
 88214  1  0  0  0  0
 88215  1  0  0  0  0
 90216  1  0  0  0  0
 94217  1  0  0  0  0
102218  1  0  0  0  0
106219  1  0  0  0  0
106220  1  0  0  0  0
107221  1  0  0  0  0
107222  1  0  0  0  0
108223  1  0  0  0  0
112224  1  0  0  0  0
113225  1  0  0  0  0
119226  1  0  0  0  0
123227  1  0  0  0  0
123228  1  0  0  0  0
124229  1  0  0  0  0
124230  1  0  0  0  0
125231  1  0  0  0  0
129232  1  0  0  0  0
130233  1  0  0  0  0
132234  1  0  0  0  0
136235  1  0  0  0  0
137236  1  0  0  0  0
140237  1  0  0  0  0
140238  1  0  0  0  0
141239  1  0  0  0  0
141240  1  0  0  0  0
141241  1  0  0  0  0
144242  1  0  0  0  0
149243  1  0  0  0  0
150244  1  0  0  0  0
153245  1  0  0  0  0
153246  1  0  0  0  0
154247  1  0  0  0  0
154248  1  0  0  0  0
154249  1  0  0  0  0
156250  1  0  0  0  0
160251  1  0  0  0  0
161252  1  0  0  0  0
M  CHG  1 103   1
M  CHG  1 104  -1
M  CHG  1 109   1
M  CHG  1 110  -1
M  CHG  1 120   1
M  CHG  1 121  -1
M  CHG  1 126   1
M  CHG  1 127  -1
M  END
