273

C        -17.50940        0.76010       10.25700
C        -16.45580        1.60080       10.23020
C        -15.53450        1.30640        9.18070
C        -14.35530        1.99090        8.84590
C        -13.85660        3.11340        9.65030
C        -13.50130        4.32400        9.05780
C        -13.01000        5.36070        9.82020
C        -12.85190        5.23910       11.20110
S        -12.24910        6.65550       12.06240
C        -11.35300        5.96340       13.51040
C        -10.35860        6.99520       14.00500
C        -13.22760        4.03080       11.78060
F        -13.13890        3.83920       13.11760
C        -13.71060        2.98030       11.02690
C        -13.66830        1.53740        7.72920
C        -14.10050        0.42750        6.96490
C        -15.28180       -0.25610        7.29420
C        -15.70740       -1.39460        6.47170
C        -15.99690       -2.63840        7.02850
C        -16.24780       -3.72670        6.21910
C        -16.23560       -3.61620        4.82970
S        -16.48540       -5.07320        3.86500
C        -15.33030       -4.81690        2.45310
C        -14.84510       -6.16160        1.95070
C        -16.03690       -2.34790        4.29080
C        -15.76190       -1.25670        5.08680
F        -16.09860       -2.14570        2.95510
C        -15.96790        0.19960        8.40890
S        -17.46940       -0.44600        9.01640
C        -13.18300        0.10860        5.93520
C        -12.10490        0.93850        5.88050
S        -12.15790        2.17630        7.12060
C        -11.03690        0.83810        4.94130
C         -9.91770        1.60200        4.80480
C         -9.06760        1.17560        3.75000
C         -7.81780        1.69620        3.37370
C         -7.27800        2.91070        3.99470
C         -8.05870        4.06200        4.10310
C         -7.54080        5.21220        4.65490
C         -6.23080        5.26560        5.13390
S         -5.70650        6.78860        5.85050
C         -3.89340        6.83690        5.55040
C         -3.43000        8.27880        5.61220
C         -5.47340        4.10140        5.04380
F         -4.21150        4.05140        5.52860
C         -5.97330        2.94820        4.47390
C         -7.13210        1.00980        2.38180
C         -7.64600       -0.13820        1.72620
C         -8.91070       -0.63660        2.07620
C         -9.49750       -1.82710        1.44870
C        -10.81210       -1.80770        0.98400
C        -11.38040       -2.93470        0.43000
C        -10.66590       -4.12470        0.32270
S        -11.50070       -5.53190       -0.35590
C        -10.26220       -6.23750       -1.50500
C         -9.82710       -5.23010       -2.55030
C         -9.36130       -4.13680        0.80650
C         -8.77430       -3.01150        1.34940
F         -8.62300       -5.26680        0.76870
C         -9.58400        0.03720        3.08370
S        -11.11370       -0.45170        3.75430
C         -6.75230       -0.63060        0.74250
C         -5.59560        0.08340        0.64850
S         -5.56130        1.44140        1.75690
C         -4.45340       -0.20280       -0.15500
C         -3.30060        0.51760       -0.24630
C         -2.30880       -0.10020       -1.04720
C         -1.01920        0.36680       -1.33290
C         -0.46820        1.61410       -0.78450
C         -0.41340        1.83350        0.58960
C          0.22440        2.94930        1.09460
C          0.81980        3.87350        0.24630
S          1.71390        5.26990        0.88990
C          3.05830        4.36900        1.75010
C          3.94320        3.61620        0.77720
C          0.71240        3.67250       -1.12490
F          1.24820        4.56100       -1.97900
C          0.08830        2.55590       -1.64400
C         -0.22480       -0.44660       -2.12370
C         -0.65100       -1.69170       -2.64580
C         -1.95840       -2.14150       -2.39270
C         -2.43580       -3.41530       -2.94320
C         -2.29540       -3.70310       -4.30060
C         -2.74950       -4.89740       -4.81450
C         -3.34080       -5.86510       -4.00110
S         -3.80770       -7.37290       -4.79470
C         -5.23460       -8.01550       -3.84650
C         -6.40100       -7.04840       -3.82990
C         -3.44910       -5.57370       -2.64470
C         -3.02720       -4.36790       -2.12170
F         -3.96480       -6.47150       -1.77610
C         -2.74860       -1.33690       -1.58480
S         -4.38660       -1.68460       -1.09250
C          0.40680       -2.37650       -3.30000
C          1.58750       -1.69650       -3.28000
S          1.44930       -0.13780       -2.48680
C          2.87700       -2.10870       -3.72550
C          4.04120       -1.42850       -3.53030
C          5.18880       -2.12350       -3.98020
C          6.52870       -1.72740       -3.86050
C          6.90240       -0.49780       -3.14900
C          7.74230        0.45260       -3.72450
C          8.10310        1.58480       -3.02420
C          7.64750        1.80750       -1.72880
S          8.16800        3.28300       -0.90200
C          8.63550        2.67900        0.76300
C          9.64950        1.55670        0.69050
C          6.78360        0.86760       -1.17730
F          6.27010        1.04510        0.06070
C          6.42170       -0.27380       -1.86190
C          7.47650       -2.58800       -4.38880
C          7.15410       -3.83340       -4.98440
C          5.81240       -4.24100       -5.07680
C          5.43100       -5.54920       -5.62140
C          4.42280       -5.65900       -6.57480
C          4.02920       -6.88990       -7.06120
C          4.62120       -8.06040       -6.60060
S          4.20480       -9.68570       -7.13800
C          2.52470       -9.49830       -7.83040
C          1.50140       -9.14200       -6.76940
C          5.64270       -7.93470       -5.65730
C          6.04950       -6.71360       -5.16900
F          6.24950       -9.04620       -5.19570
C          4.85860       -3.36090       -4.58450
S          3.13410       -3.64550       -4.52900
C          8.32020       -4.52500       -5.41110
C          9.47690       -3.85710       -5.15510
S          9.19470       -2.32890       -4.33250
C         10.83200       -4.29770       -5.32340
S         11.29100       -5.86020       -4.72690
C         12.94720       -5.53570       -4.94140
C         13.16610       -4.28250       -5.46650
C         11.94710       -3.57130       -5.72310
C         11.99200       -2.29510       -6.35700
C         13.22820       -1.74780       -6.58720
C         14.43260       -2.40400       -6.26360
C         14.42510       -3.66610       -5.73610
O         15.51880       -4.41530       -5.41940
C         16.79120       -3.89080       -5.71580
C         10.79270       -1.65360       -6.89920
C         10.39670       -0.39130       -6.68690
C         10.91320        0.46040       -5.65060
C         11.55650        0.07480       -4.51650
C         11.84660        1.13750       -3.62740
C         12.47470        1.04640       -2.37610
C         13.00940       -0.24750       -1.93790
C         13.80960       -0.99420       -2.80070
C         14.25080       -2.25610       -2.45940
C         13.91270       -2.82050       -1.23510
S         14.34510       -4.44610       -0.71360
C         15.61520       -4.98410       -1.91040
C         16.93490       -4.26250       -1.71050
C         13.13810       -2.04880       -0.36700
F         12.79450       -2.55990        0.83300
C         12.69070       -0.78790       -0.69510
C         12.54720        2.21730       -1.63720
C         12.04230        3.45630       -2.10460
C         11.44580        3.55010       -3.37080
C         10.91440        4.81770       -3.88890
C          9.99920        5.56630       -3.15590
C          9.48240        6.74670       -3.65410
C          9.86580        7.22240       -4.90270
S          9.30800        8.72200       -5.64150
C          7.83100        9.17780       -4.66880
C          6.66750        8.23540       -4.91000
C         10.79150        6.46430       -5.62190
C         11.30770        5.28210       -5.14200
F         11.19990        6.90230       -6.83030
C         11.36920        2.37800       -4.10920
S         10.61650        2.19040       -5.67510
C         12.28170        4.50520       -1.16630
C         12.92440        4.08530       -0.05880
S         13.29470        2.39270       -0.06770
H        -18.33690        0.76350       10.93930
H        -16.33080        2.42090       10.91340
H        -13.62160        4.45490        7.99360
H        -12.73580        6.29590        9.35760
H        -10.84810        5.05880       13.17500
H        -12.08090        5.71740       14.28190
H         -9.81930        6.60160       14.86400
H        -10.87130        7.90700       14.30310
H         -9.64270        7.24170       13.22420
H        -13.95930        2.05640       11.52620
H        -15.97900       -2.76200        8.10020
H        -16.43480       -4.69700        6.65200
H        -14.50040       -4.21790        2.82510
H        -15.85960       -4.27110        1.67350
H        -14.13680       -6.01400        1.13770
H        -15.67850       -6.75810        1.58740
H        -14.34940       -6.71020        2.74820
H        -15.60980       -0.29660        4.61810
H        -13.30090       -0.72630        5.26820
H         -9.69490        2.42670        5.45800
H         -9.06770        4.06030        3.71990
H         -8.14380        6.10420        4.72360
H         -3.71780        6.40830        4.56490
H         -3.40200        6.23230        6.31110
H         -2.35770        8.32610        5.43620
H         -3.93550        8.87620        4.85690
H         -3.64280        8.70660        6.58920
H         -5.34110        2.07470        4.44350
H        -11.38490       -0.89510        1.03560
H        -12.39630       -2.91170        0.06780
H        -10.79030       -7.07540       -1.95990
H         -9.42160       -6.61780       -0.92850
H         -9.29230       -4.40060       -2.09070
H         -9.16530       -5.70740       -3.27000
H        -10.69080       -4.83260       -3.07950
H         -7.76780       -3.08480        1.73130
H         -6.95610       -1.48370        0.12050
H         -3.16220        1.46220        0.24910
H         -0.84550        1.10990        1.26410
H          0.27370        3.10650        2.16150
H          3.61330        5.15010        2.26820
H          2.60650        3.70220        2.48380
H          3.37720        2.84400        0.25810
H          4.76090        3.13760        1.31200
H          4.36070        4.29510        0.03700
H          0.04500        2.42730       -2.71440
H         -1.85270       -2.97050       -4.95810
H         -2.65230       -5.11010       -5.86790
H         -5.49150       -8.92860       -4.38430
H         -4.90670       -8.27650       -2.84310
H         -6.68940       -6.77990       -4.84450
H         -7.24940       -7.51600       -3.33370
H         -6.14660       -6.13920       -3.28900
H         -3.13220       -4.20340       -1.06080
H          0.31000       -3.35820       -3.72870
H          4.07530       -0.45560       -3.07340
H          8.10790        0.30570       -4.72880
H          8.74780        2.32430       -3.47110
H          9.05960        3.56240        1.24040
H          7.73500        2.38340        1.29760
H          9.21580        0.66570        0.23910
H         10.50520        1.86220        0.09330
H          9.99030        1.30450        1.69280
H          5.77480       -0.98860       -1.37710
H          3.95150       -4.76720       -6.95860
H          3.25630       -6.93000       -7.81140
H          2.55650       -8.77060       -8.64040
H          2.31790      -10.48020       -8.25600
H          0.51010       -9.08450       -7.21480
H          1.48890       -9.90090       -5.99080
H          1.73110       -8.18280       -6.30980
H          6.82020       -6.67920       -4.41500
H          8.29870       -5.47340       -5.91730
H         13.68040       -6.27030       -4.67680
H         13.28940       -0.78240       -7.06710
H         15.35870       -1.89580       -6.48010
H         17.50330       -4.66140       -5.42570
H         16.89770       -3.68190       -6.78430
H         16.99160       -2.97760       -5.14570
H         10.22660       -2.26860       -7.58930
H          9.57770        0.01400       -7.26660
H         11.77030       -0.95180       -4.28920
H         14.09440       -0.57950       -3.75610
H         14.84630       -2.80720       -3.16740
H         15.72320       -6.04830       -1.70000
H         15.22460       -4.86930       -2.92050
H         16.82240       -3.19100       -1.86280
H         17.30280       -4.42580       -0.70030
H         17.67320       -4.63980       -2.41550
H         12.07520       -0.25090        0.00900
H          9.66240        5.20670       -2.19610
H          8.77630        7.29540       -3.05260
H          8.10890        9.23810       -3.61730
H          7.59680       10.18200       -5.02250
H          5.80050        8.56410       -4.34010
H          6.40660        8.22500       -5.96570
H          6.91580        7.22000       -4.60840
H         12.02320        4.74010       -5.74020
H         11.99030        5.52530       -1.33730
H         13.22230        4.66710        0.79150
