
  xtb     03032207113D
 energy: -464.659626643636 gnorm: 0.000626720764 xtb: 6.4.1 (unknown)
269295  0     0  0            999 V2000
   -6.3389   -0.5765   -2.0507 C   0  0  0  0  0  0  0  0  0  0  0  0
   -7.0860    0.0231   -1.1029 C   0  0  0  0  0  0  0  0  0  0  0  0
   -8.3369   -0.6288   -0.8773 C   0  0  0  0  0  0  0  0  0  0  0  0
   -9.3627   -0.2579    0.0102 C   0  0  0  0  0  0  0  0  0  0  0  0
   -9.1740    0.8276    0.9752 C   0  0  0  0  0  0  0  0  0  0  0  0
  -10.1708    1.7578    1.2561 C   0  0  0  0  0  0  0  0  0  0  0  0
   -9.9867    2.7352    2.2145 C   0  0  0  0  0  0  0  0  0  0  0  0
   -8.8013    2.8168    2.9364 C   0  0  0  0  0  0  0  0  0  0  0  0
   -8.4680    4.0165    4.1845 S   0  0  0  0  0  0  0  0  0  0  0  0
  -10.1198    4.4355    4.8357 C   0  0  0  0  0  0  0  0  0  0  0  0
  -10.8126    3.2398    5.4578 C   0  0  0  0  0  0  0  0  0  0  0  0
   -7.8030    1.8953    2.6275 C   0  0  0  0  0  0  0  0  0  0  0  0
   -6.6262    1.9382    3.2878 F   0  0  0  0  0  0  0  0  0  0  0  0
   -7.9740    0.9166    1.6788 C   0  0  0  0  0  0  0  0  0  0  0  0
  -10.5199   -1.0268   -0.0207 C   0  0  0  0  0  0  0  0  0  0  0  0
  -10.6643   -2.1549   -0.8615 C   0  0  0  0  0  0  0  0  0  0  0  0
   -9.6587   -2.5049   -1.7749 C   0  0  0  0  0  0  0  0  0  0  0  0
   -9.8629   -3.5849   -2.7429 C   0  0  0  0  0  0  0  0  0  0  0  0
   -8.8677   -4.5147   -3.0196 C   0  0  0  0  0  0  0  0  0  0  0  0
   -9.0563   -5.5211   -3.9461 C   0  0  0  0  0  0  0  0  0  0  0  0
  -10.2540   -5.6302   -4.6426 C   0  0  0  0  0  0  0  0  0  0  0  0
  -10.6211   -6.8343   -5.8735 S   0  0  0  0  0  0  0  0  0  0  0  0
   -9.2840   -8.0670   -5.7140 C   0  0  0  0  0  0  0  0  0  0  0  0
   -9.4401   -8.9224   -4.4724 C   0  0  0  0  0  0  0  0  0  0  0  0
  -11.2396   -4.6780   -4.3717 C   0  0  0  0  0  0  0  0  0  0  0  0
  -11.0649   -3.6753   -3.4468 C   0  0  0  0  0  0  0  0  0  0  0  0
  -12.4090   -4.7367   -5.0436 F   0  0  0  0  0  0  0  0  0  0  0  0
   -8.5000   -1.7397   -1.7379 C   0  0  0  0  0  0  0  0  0  0  0  0
   -7.0958   -1.9630   -2.7499 S   0  0  0  0  0  0  0  0  0  0  0  0
  -11.8545   -2.8749   -0.5796 C   0  0  0  0  0  0  0  0  0  0  0  0
  -12.6168   -2.3249    0.4019 C   0  0  0  0  0  0  0  0  0  0  0  0
  -11.9278   -0.8279    1.0024 S   0  0  0  0  0  0  0  0  0  0  0  0
  -13.7530   -2.9897    0.9768 C   0  0  0  0  0  0  0  0  0  0  0  0
  -15.3682   -2.3514    1.1147 S   0  0  0  0  0  0  0  0  0  0  0  0
  -16.0471   -3.8701    1.6362 C   0  0  0  0  0  0  0  0  0  0  0  0
  -17.5119   -4.0182    1.8663 C   0  0  0  0  0  0  0  0  0  0  0  0
  -18.2346   -4.4690    0.5936 C   0  0  0  0  0  0  0  0  0  0  0  0
  -15.0524   -4.8061    1.6995 C   0  0  0  0  0  0  0  0  0  0  0  0
  -13.7571   -4.3119    1.3583 C   0  0  0  0  0  0  0  0  0  0  0  0
  -12.8282   -5.3920    1.5468 C   0  0  0  0  0  0  0  0  0  0  0  0
  -13.5789   -6.4645    1.9418 C   0  0  0  0  0  0  0  0  0  0  0  0
  -14.9097   -6.1336    2.0218 N   0  0  0  0  0  0  0  0  0  0  0  0
  -11.3959   -5.1927    1.4814 C   0  0  0  0  0  0  0  0  0  0  0  0
  -10.4297   -5.7484    0.7117 C   0  0  0  0  0  0  0  0  0  0  0  0
   -9.1600   -5.1089    0.8324 C   0  0  0  0  0  0  0  0  0  0  0  0
   -7.9586   -5.4349    0.1730 C   0  0  0  0  0  0  0  0  0  0  0  0
   -7.7799   -6.7455   -0.4577 C   0  0  0  0  0  0  0  0  0  0  0  0
   -8.3128   -7.8767    0.1637 C   0  0  0  0  0  0  0  0  0  0  0  0
   -8.1357   -9.1438   -0.3538 C   0  0  0  0  0  0  0  0  0  0  0  0
   -7.4231   -9.3392   -1.5311 C   0  0  0  0  0  0  0  0  0  0  0  0
   -7.1108  -10.8914   -2.3042 S   0  0  0  0  0  0  0  0  0  0  0  0
   -8.2487  -12.0475   -1.4679 C   0  0  0  0  0  0  0  0  0  0  0  0
   -9.6970  -11.8137   -1.8540 C   0  0  0  0  0  0  0  0  0  0  0  0
   -6.8776   -8.2058   -2.1343 C   0  0  0  0  0  0  0  0  0  0  0  0
   -6.1818   -8.3485   -3.2823 F   0  0  0  0  0  0  0  0  0  0  0  0
   -7.0309   -6.9396   -1.6181 C   0  0  0  0  0  0  0  0  0  0  0  0
   -6.9429   -4.4861    0.2625 C   0  0  0  0  0  0  0  0  0  0  0  0
   -7.0200   -3.3579    1.1166 C   0  0  0  0  0  0  0  0  0  0  0  0
   -8.1339   -3.1632    1.9538 C   0  0  0  0  0  0  0  0  0  0  0  0
   -8.0974   -2.1821    3.0420 C   0  0  0  0  0  0  0  0  0  0  0  0
   -9.1836   -1.3762    3.3809 C   0  0  0  0  0  0  0  0  0  0  0  0
   -9.0958   -0.4657    4.4108 C   0  0  0  0  0  0  0  0  0  0  0  0
   -7.9312   -0.3187    5.1636 C   0  0  0  0  0  0  0  0  0  0  0  0
   -7.9307    0.8876    6.4446 S   0  0  0  0  0  0  0  0  0  0  0  0
   -6.1787    1.4296    6.5566 C   0  0  0  0  0  0  0  0  0  0  0  0
   -6.1355    2.8551    7.0684 C   0  0  0  0  0  0  0  0  0  0  0  0
   -6.8740   -1.1735    4.8597 C   0  0  0  0  0  0  0  0  0  0  0  0
   -6.9432   -2.0749    3.8190 C   0  0  0  0  0  0  0  0  0  0  0  0
   -5.7420   -1.1720    5.5979 F   0  0  0  0  0  0  0  0  0  0  0  0
   -9.2122   -4.0054    1.7186 C   0  0  0  0  0  0  0  0  0  0  0  0
  -10.7727   -3.8872    2.4751 S   0  0  0  0  0  0  0  0  0  0  0  0
   -5.8741   -2.5321    1.0127 C   0  0  0  0  0  0  0  0  0  0  0  0
   -4.9310   -3.0021    0.1487 C   0  0  0  0  0  0  0  0  0  0  0  0
   -5.4129   -4.5174   -0.5784 S   0  0  0  0  0  0  0  0  0  0  0  0
   -3.6627   -2.4137   -0.1410 C   0  0  0  0  0  0  0  0  0  0  0  0
   -3.2004   -1.2014    0.2852 C   0  0  0  0  0  0  0  0  0  0  0  0
   -1.8528   -0.9481   -0.0724 C   0  0  0  0  0  0  0  0  0  0  0  0
   -1.0548    0.1602    0.2665 C   0  0  0  0  0  0  0  0  0  0  0  0
   -1.5502    1.2647    1.0990 C   0  0  0  0  0  0  0  0  0  0  0  0
   -1.3186    2.5872    0.7234 C   0  0  0  0  0  0  0  0  0  0  0  0
   -1.7340    3.6317    1.5234 C   0  0  0  0  0  0  0  0  0  0  0  0
   -2.4034    3.3965    2.7178 C   0  0  0  0  0  0  0  0  0  0  0  0
   -2.8665    4.7726    3.7418 S   0  0  0  0  0  0  0  0  0  0  0  0
   -4.6844    4.5659    3.7689 C   0  0  0  0  0  0  0  0  0  0  0  0
   -5.2840    4.8080    2.3988 C   0  0  0  0  0  0  0  0  0  0  0  0
   -2.6339    2.0744    3.0834 C   0  0  0  0  0  0  0  0  0  0  0  0
   -3.2620    1.7917    4.2417 F   0  0  0  0  0  0  0  0  0  0  0  0
   -2.2198    1.0188    2.2956 C   0  0  0  0  0  0  0  0  0  0  0  0
    0.2517    0.1494   -0.2023 C   0  0  0  0  0  0  0  0  0  0  0  0
    0.7884   -0.9139   -0.9687 C   0  0  0  0  0  0  0  0  0  0  0  0
   -0.0014   -2.0288   -1.2906 C   0  0  0  0  0  0  0  0  0  0  0  0
    0.5784   -3.1573   -2.0286 C   0  0  0  0  0  0  0  0  0  0  0  0
   -0.0065   -3.6557   -3.1903 C   0  0  0  0  0  0  0  0  0  0  0  0
    0.6135   -4.6541   -3.9112 C   0  0  0  0  0  0  0  0  0  0  0  0
    1.8202   -5.2145   -3.4932 C   0  0  0  0  0  0  0  0  0  0  0  0
    2.5319   -6.4675   -4.5142 S   0  0  0  0  0  0  0  0  0  0  0  0
    4.3399   -6.1961   -4.3796 C   0  0  0  0  0  0  0  0  0  0  0  0
    4.7482   -4.7934   -4.7798 C   0  0  0  0  0  0  0  0  0  0  0  0
    2.3482   -4.7621   -2.2869 C   0  0  0  0  0  0  0  0  0  0  0  0
    1.7588   -3.7384   -1.5753 C   0  0  0  0  0  0  0  0  0  0  0  0
    3.4665   -5.3106   -1.7638 F   0  0  0  0  0  0  0  0  0  0  0  0
   -1.3116   -2.0092   -0.8442 C   0  0  0  0  0  0  0  0  0  0  0  0
   -2.4686   -3.2915   -1.0711 S   0  0  0  0  0  0  0  0  0  0  0  0
    2.1430   -0.6887   -1.3150 C   0  0  0  0  0  0  0  0  0  0  0  0
    2.6552    0.4634   -0.7999 C   0  0  0  0  0  0  0  0  0  0  0  0
    1.4663    1.3639    0.1217 S   0  0  0  0  0  0  0  0  0  0  0  0
    3.9950    0.9313   -0.9300 C   0  0  0  0  0  0  0  0  0  0  0  0
    4.5846    1.9984   -0.3224 C   0  0  0  0  0  0  0  0  0  0  0  0
    5.9617    2.1388   -0.6329 C   0  0  0  0  0  0  0  0  0  0  0  0
    6.8561    3.1169   -0.1650 C   0  0  0  0  0  0  0  0  0  0  0  0
    6.3947    4.2318    0.6697 C   0  0  0  0  0  0  0  0  0  0  0  0
    5.2970    5.0013    0.2832 C   0  0  0  0  0  0  0  0  0  0  0  0
    4.8658    6.0506    1.0632 C   0  0  0  0  0  0  0  0  0  0  0  0
    5.5072    6.3838    2.2576 C   0  0  0  0  0  0  0  0  0  0  0  0
    4.8687    7.7744    3.1328 S   0  0  0  0  0  0  0  0  0  0  0  0
    5.2928    7.4564    4.8920 C   0  0  0  0  0  0  0  0  0  0  0  0
    4.3763    8.2888    5.7671 C   0  0  0  0  0  0  0  0  0  0  0  0
    6.6156    5.6228    2.6172 C   0  0  0  0  0  0  0  0  0  0  0  0
    7.3167    5.8977    3.7407 F   0  0  0  0  0  0  0  0  0  0  0  0
    7.0515    4.5613    1.8498 C   0  0  0  0  0  0  0  0  0  0  0  0
    8.1813    2.9800   -0.5510 C   0  0  0  0  0  0  0  0  0  0  0  0
    8.6286    1.9581   -1.4245 C   0  0  0  0  0  0  0  0  0  0  0  0
    7.7239    1.0170   -1.9436 C   0  0  0  0  0  0  0  0  0  0  0  0
    8.1526    0.0229   -2.9337 C   0  0  0  0  0  0  0  0  0  0  0  0
    8.8856    0.4220   -4.0491 C   0  0  0  0  0  0  0  0  0  0  0  0
    9.2979   -0.4880   -5.0020 C   0  0  0  0  0  0  0  0  0  0  0  0
    8.9961   -1.8389   -4.8718 C   0  0  0  0  0  0  0  0  0  0  0  0
    9.4533   -3.1033   -6.0099 S   0  0  0  0  0  0  0  0  0  0  0  0
   10.7111   -2.3141   -7.0732 C   0  0  0  0  0  0  0  0  0  0  0  0
   12.0180   -2.0725   -6.3423 C   0  0  0  0  0  0  0  0  0  0  0  0
    8.2438   -2.2218   -3.7599 C   0  0  0  0  0  0  0  0  0  0  0  0
    7.8235   -1.3248   -2.8041 C   0  0  0  0  0  0  0  0  0  0  0  0
    7.9189   -3.5228   -3.6118 F   0  0  0  0  0  0  0  0  0  0  0  0
    6.4142    1.1125   -1.4999 C   0  0  0  0  0  0  0  0  0  0  0  0
    5.1150    0.0386   -1.9422 S   0  0  0  0  0  0  0  0  0  0  0  0
   10.0264    2.0249   -1.6429 C   0  0  0  0  0  0  0  0  0  0  0  0
   10.6316    3.0661   -1.0057 C   0  0  0  0  0  0  0  0  0  0  0  0
    9.4957    4.0315   -0.0842 S   0  0  0  0  0  0  0  0  0  0  0  0
   12.0208    3.3860   -1.0246 C   0  0  0  0  0  0  0  0  0  0  0  0
   12.6602    4.4402   -0.4478 C   0  0  0  0  0  0  0  0  0  0  0  0
   14.0630    4.4452   -0.6703 C   0  0  0  0  0  0  0  0  0  0  0  0
   15.0105    5.3727   -0.2096 C   0  0  0  0  0  0  0  0  0  0  0  0
   14.6306    6.4745    0.6816 C   0  0  0  0  0  0  0  0  0  0  0  0
   13.8772    6.2343    1.8313 C   0  0  0  0  0  0  0  0  0  0  0  0
   13.5466    7.2650    2.6823 C   0  0  0  0  0  0  0  0  0  0  0  0
   13.9390    8.5788    2.4223 C   0  0  0  0  0  0  0  0  0  0  0  0
   13.4177    9.8080    3.5738 S   0  0  0  0  0  0  0  0  0  0  0  0
   14.7260   11.0958    3.4902 C   0  0  0  0  0  0  0  0  0  0  0  0
   14.6948   11.9026    4.7733 C   0  0  0  0  0  0  0  0  0  0  0  0
   14.6677    8.8067    1.2585 C   0  0  0  0  0  0  0  0  0  0  0  0
   15.0452   10.0569    0.9066 F   0  0  0  0  0  0  0  0  0  0  0  0
   15.0245    7.7795    0.4084 C   0  0  0  0  0  0  0  0  0  0  0  0
   16.3233    5.1750   -0.6176 C   0  0  0  0  0  0  0  0  0  0  0  0
   16.7335    4.0758   -1.4099 C   0  0  0  0  0  0  0  0  0  0  0  0
   15.7933    3.1271   -1.8376 C   0  0  0  0  0  0  0  0  0  0  0  0
   16.1793    1.9235   -2.5848 C   0  0  0  0  0  0  0  0  0  0  0  0
   17.2080    1.1011   -2.1274 C   0  0  0  0  0  0  0  0  0  0  0  0
   17.5191   -0.0681   -2.7885 C   0  0  0  0  0  0  0  0  0  0  0  0
   16.8253   -0.4599   -3.9305 C   0  0  0  0  0  0  0  0  0  0  0  0
   17.3067   -1.9726   -4.7156 S   0  0  0  0  0  0  0  0  0  0  0  0
   15.7009   -2.7937   -5.0358 C   0  0  0  0  0  0  0  0  0  0  0  0
   14.9028   -2.9874   -3.7621 C   0  0  0  0  0  0  0  0  0  0  0  0
   15.8258    0.3878   -4.3966 C   0  0  0  0  0  0  0  0  0  0  0  0
   15.4928    1.5529   -3.7368 C   0  0  0  0  0  0  0  0  0  0  0  0
   15.1395    0.0908   -5.5230 F   0  0  0  0  0  0  0  0  0  0  0  0
   14.4735    3.3552   -1.4765 C   0  0  0  0  0  0  0  0  0  0  0  0
   13.1235    2.3327   -1.8922 S   0  0  0  0  0  0  0  0  0  0  0  0
   18.1342    4.1150   -1.6794 C   0  0  0  0  0  0  0  0  0  0  0  0
   18.7505    5.1645   -1.0996 C   0  0  0  0  0  0  0  0  0  0  0  0
   17.6842    6.1827   -0.1946 S   0  0  0  0  0  0  0  0  0  0  0  0
   -5.3656   -0.2917   -2.4001 H   0  0  0  0  0  0  0  0  0  0  0  0
   -6.7824    0.9221   -0.5985 H   0  0  0  0  0  0  0  0  0  0  0  0
  -11.0983    1.7322    0.7056 H   0  0  0  0  0  0  0  0  0  0  0  0
  -10.7773    3.4460    2.3945 H   0  0  0  0  0  0  0  0  0  0  0  0
  -10.7070    4.8903    4.0381 H   0  0  0  0  0  0  0  0  0  0  0  0
   -9.9044    5.1965    5.5859 H   0  0  0  0  0  0  0  0  0  0  0  0
  -11.7407    3.5571    5.9288 H   0  0  0  0  0  0  0  0  0  0  0  0
  -10.1742    2.7828    6.2108 H   0  0  0  0  0  0  0  0  0  0  0  0
  -11.0461    2.4906    4.7039 H   0  0  0  0  0  0  0  0  0  0  0  0
   -7.1875    0.1970    1.5241 H   0  0  0  0  0  0  0  0  0  0  0  0
   -7.9327   -4.4532   -2.4895 H   0  0  0  0  0  0  0  0  0  0  0  0
   -8.2541   -6.2163   -4.1289 H   0  0  0  0  0  0  0  0  0  0  0  0
   -9.3835   -8.6710   -6.6157 H   0  0  0  0  0  0  0  0  0  0  0  0
   -8.3246   -7.5538   -5.7463 H   0  0  0  0  0  0  0  0  0  0  0  0
   -8.6216   -9.6371   -4.4170 H   0  0  0  0  0  0  0  0  0  0  0  0
  -10.3823   -9.4654   -4.5051 H   0  0  0  0  0  0  0  0  0  0  0  0
   -9.4280   -8.3089   -3.5729 H   0  0  0  0  0  0  0  0  0  0  0  0
  -11.8531   -2.9531   -3.3024 H   0  0  0  0  0  0  0  0  0  0  0  0
  -12.1156   -3.8001   -1.0600 H   0  0  0  0  0  0  0  0  0  0  0  0
  -17.9243   -3.0622    2.1937 H   0  0  0  0  0  0  0  0  0  0  0  0
  -17.6788   -4.7511    2.6606 H   0  0  0  0  0  0  0  0  0  0  0  0
  -19.2987   -4.5821    0.7843 H   0  0  0  0  0  0  0  0  0  0  0  0
  -17.8387   -5.4210    0.2466 H   0  0  0  0  0  0  0  0  0  0  0  0
  -18.0984   -3.7331   -0.1950 H   0  0  0  0  0  0  0  0  0  0  0  0
  -13.2487   -7.4552    2.1905 H   0  0  0  0  0  0  0  0  0  0  0  0
  -15.6403   -6.7453    2.3395 H   0  0  0  0  0  0  0  0  0  0  0  0
  -10.6237   -6.5409    0.0107 H   0  0  0  0  0  0  0  0  0  0  0  0
   -8.8486   -7.7670    1.0942 H   0  0  0  0  0  0  0  0  0  0  0  0
   -8.5502   -9.9837    0.1799 H   0  0  0  0  0  0  0  0  0  0  0  0
   -8.0860  -11.9795   -0.3931 H   0  0  0  0  0  0  0  0  0  0  0  0
   -7.9109  -13.0266   -1.8071 H   0  0  0  0  0  0  0  0  0  0  0  0
   -9.8223  -11.9324   -2.9275 H   0  0  0  0  0  0  0  0  0  0  0  0
  -10.0178  -10.8107   -1.5812 H   0  0  0  0  0  0  0  0  0  0  0  0
  -10.3358  -12.5346   -1.3474 H   0  0  0  0  0  0  0  0  0  0  0  0
   -6.5698   -6.1214   -2.1450 H   0  0  0  0  0  0  0  0  0  0  0  0
  -10.0974   -1.4304    2.8145 H   0  0  0  0  0  0  0  0  0  0  0  0
   -9.9398    0.1631    4.6465 H   0  0  0  0  0  0  0  0  0  0  0  0
   -5.7566    1.3652    5.5570 H   0  0  0  0  0  0  0  0  0  0  0  0
   -5.6534    0.7496    7.2256 H   0  0  0  0  0  0  0  0  0  0  0  0
   -6.6773    3.5150    6.3944 H   0  0  0  0  0  0  0  0  0  0  0  0
   -6.5796    2.9243    8.0592 H   0  0  0  0  0  0  0  0  0  0  0  0
   -5.1007    3.1853    7.1240 H   0  0  0  0  0  0  0  0  0  0  0  0
   -6.0981   -2.7250    3.6508 H   0  0  0  0  0  0  0  0  0  0  0  0
   -5.7587   -1.6129    1.5561 H   0  0  0  0  0  0  0  0  0  0  0  0
   -3.8050   -0.5047    0.8353 H   0  0  0  0  0  0  0  0  0  0  0  0
   -0.8248    2.7992   -0.2122 H   0  0  0  0  0  0  0  0  0  0  0  0
   -1.5447    4.6529    1.2317 H   0  0  0  0  0  0  0  0  0  0  0  0
   -5.0314    5.3067    4.4876 H   0  0  0  0  0  0  0  0  0  0  0  0
   -4.9156    3.5718    4.1419 H   0  0  0  0  0  0  0  0  0  0  0  0
   -4.9374    4.0581    1.6892 H   0  0  0  0  0  0  0  0  0  0  0  0
   -6.3683    4.7524    2.4627 H   0  0  0  0  0  0  0  0  0  0  0  0
   -5.0050    5.7920    2.0279 H   0  0  0  0  0  0  0  0  0  0  0  0
   -2.3839    0.0117    2.6467 H   0  0  0  0  0  0  0  0  0  0  0  0
   -0.9308   -3.2306   -3.5501 H   0  0  0  0  0  0  0  0  0  0  0  0
    0.1759   -5.0158   -4.8285 H   0  0  0  0  0  0  0  0  0  0  0  0
    4.7489   -6.9344   -5.0693 H   0  0  0  0  0  0  0  0  0  0  0  0
    4.6609   -6.4405   -3.3698 H   0  0  0  0  0  0  0  0  0  0  0  0
    4.4115   -4.5682   -5.7897 H   0  0  0  0  0  0  0  0  0  0  0  0
    4.3259   -4.0542   -4.1015 H   0  0  0  0  0  0  0  0  0  0  0  0
    5.8319   -4.7085   -4.7418 H   0  0  0  0  0  0  0  0  0  0  0  0
    2.2142   -3.4212   -0.6496 H   0  0  0  0  0  0  0  0  0  0  0  0
    2.7219   -1.3562   -1.9277 H   0  0  0  0  0  0  0  0  0  0  0  0
    4.0545    2.6467    0.3525 H   0  0  0  0  0  0  0  0  0  0  0  0
    4.7913    4.7816   -0.6447 H   0  0  0  0  0  0  0  0  0  0  0  0
    4.0155    6.6422    0.7614 H   0  0  0  0  0  0  0  0  0  0  0  0
    5.1495    6.3921    5.0722 H   0  0  0  0  0  0  0  0  0  0  0  0
    6.3368    7.7225    5.0493 H   0  0  0  0  0  0  0  0  0  0  0  0
    4.6113    8.1133    6.8147 H   0  0  0  0  0  0  0  0  0  0  0  0
    3.3359    8.0244    5.5920 H   0  0  0  0  0  0  0  0  0  0  0  0
    4.5038    9.3478    5.5538 H   0  0  0  0  0  0  0  0  0  0  0  0
    7.9030    3.9949    2.1930 H   0  0  0  0  0  0  0  0  0  0  0  0
    9.1157    1.4677   -4.1873 H   0  0  0  0  0  0  0  0  0  0  0  0
    9.8510   -0.1305   -5.8550 H   0  0  0  0  0  0  0  0  0  0  0  0
   10.8470   -3.0333   -7.8810 H   0  0  0  0  0  0  0  0  0  0  0  0
   10.2902   -1.4011   -7.4918 H   0  0  0  0  0  0  0  0  0  0  0  0
   12.7365   -1.6047   -7.0125 H   0  0  0  0  0  0  0  0  0  0  0  0
   12.4293   -3.0166   -5.9929 H   0  0  0  0  0  0  0  0  0  0  0  0
   11.8749   -1.4213   -5.4826 H   0  0  0  0  0  0  0  0  0  0  0  0
    7.2651   -1.6880   -1.9563 H   0  0  0  0  0  0  0  0  0  0  0  0
   10.5724    1.3116   -2.2343 H   0  0  0  0  0  0  0  0  0  0  0  0
   12.1397    5.2022    0.1044 H   0  0  0  0  0  0  0  0  0  0  0  0
   13.5798    5.2256    2.0736 H   0  0  0  0  0  0  0  0  0  0  0  0
   12.9745    7.0723    3.5765 H   0  0  0  0  0  0  0  0  0  0  0  0
   14.5351   11.7272    2.6239 H   0  0  0  0  0  0  0  0  0  0  0  0
   15.6783   10.5812    3.3709 H   0  0  0  0  0  0  0  0  0  0  0  0
   15.4653   12.6700    4.7425 H   0  0  0  0  0  0  0  0  0  0  0  0
   13.7275   12.3843    4.8973 H   0  0  0  0  0  0  0  0  0  0  0  0
   14.8728   11.2610    5.6334 H   0  0  0  0  0  0  0  0  0  0  0  0
   15.5824    8.0203   -0.4828 H   0  0  0  0  0  0  0  0  0  0  0  0
   17.7396    1.3638   -1.2257 H   0  0  0  0  0  0  0  0  0  0  0  0
   18.3045   -0.7108   -2.4224 H   0  0  0  0  0  0  0  0  0  0  0  0
   15.1523   -2.2180   -5.7778 H   0  0  0  0  0  0  0  0  0  0  0  0
   15.9904   -3.7506   -5.4696 H   0  0  0  0  0  0  0  0  0  0  0  0
   14.6044   -2.0288   -3.3408 H   0  0  0  0  0  0  0  0  0  0  0  0
   14.0047   -3.5643   -3.9728 H   0  0  0  0  0  0  0  0  0  0  0  0
   15.4926   -3.5220   -3.0205 H   0  0  0  0  0  0  0  0  0  0  0  0
   14.7136    2.1759   -4.1470 H   0  0  0  0  0  0  0  0  0  0  0  0
   18.6375    3.3920   -2.2952 H   0  0  0  0  0  0  0  0  0  0  0  0
   19.7894    5.4266   -1.1463 H   0  0  0  0  0  0  0  0  0  0  0  0
  1  2  2  0  0  0  0
  2  3  1  0  0  0  0
  3  4  2  0  0  0  0
  4  5  1  0  0  0  0
  5  6  2  0  0  0  0
  6  7  1  0  0  0  0
  7  8  2  0  0  0  0
  8  9  1  0  0  0  0
  9 10  1  0  0  0  0
 10 11  1  0  0  0  0
  8 12  1  0  0  0  0
 12 13  1  0  0  0  0
 12 14  2  0  0  0  0
  4 15  1  0  0  0  0
 15 16  2  0  0  0  0
 16 17  1  0  0  0  0
 17 18  1  0  0  0  0
 18 19  2  0  0  0  0
 19 20  1  0  0  0  0
 20 21  2  0  0  0  0
 21 22  1  0  0  0  0
 22 23  1  0  0  0  0
 23 24  1  0  0  0  0
 21 25  1  0  0  0  0
 25 26  2  0  0  0  0
 25 27  1  0  0  0  0
 17 28  2  0  0  0  0
 28 29  1  0  0  0  0
 16 30  1  0  0  0  0
 30 31  2  0  0  0  0
 31 32  1  0  0  0  0
 31 33  1  0  0  0  0
 33 34  1  0  0  0  0
 34 35  1  0  0  0  0
 35 36  1  0  0  0  0
 36 37  1  0  0  0  0
 35 38  2  0  0  0  0
 38 39  1  0  0  0  0
 39 40  1  0  0  0  0
 40 41  2  0  0  0  0
 41 42  1  0  0  0  0
 40 43  1  0  0  0  0
 43 44  2  0  0  0  0
 44 45  1  0  0  0  0
 45 46  2  0  0  0  0
 46 47  1  0  0  0  0
 47 48  2  0  0  0  0
 48 49  1  0  0  0  0
 49 50  2  0  0  0  0
 50 51  1  0  0  0  0
 51 52  1  0  0  0  0
 52 53  1  0  0  0  0
 50 54  1  0  0  0  0
 54 55  1  0  0  0  0
 54 56  2  0  0  0  0
 46 57  1  0  0  0  0
 57 58  2  0  0  0  0
 58 59  1  0  0  0  0
 59 60  1  0  0  0  0
 60 61  2  0  0  0  0
 61 62  1  0  0  0  0
 62 63  2  0  0  0  0
 63 64  1  0  0  0  0
 64 65  1  0  0  0  0
 65 66  1  0  0  0  0
 63 67  1  0  0  0  0
 67 68  2  0  0  0  0
 67 69  1  0  0  0  0
 59 70  2  0  0  0  0
 70 71  1  0  0  0  0
 58 72  1  0  0  0  0
 72 73  2  0  0  0  0
 73 74  1  0  0  0  0
 73 75  1  0  0  0  0
 75 76  2  0  0  0  0
 76 77  1  0  0  0  0
 77 78  2  0  0  0  0
 78 79  1  0  0  0  0
 79 80  2  0  0  0  0
 80 81  1  0  0  0  0
 81 82  2  0  0  0  0
 82 83  1  0  0  0  0
 83 84  1  0  0  0  0
 84 85  1  0  0  0  0
 82 86  1  0  0  0  0
 86 87  1  0  0  0  0
 86 88  2  0  0  0  0
 78 89  1  0  0  0  0
 89 90  2  0  0  0  0
 90 91  1  0  0  0  0
 91 92  1  0  0  0  0
 92 93  2  0  0  0  0
 93 94  1  0  0  0  0
 94 95  2  0  0  0  0
 95 96  1  0  0  0  0
 96 97  1  0  0  0  0
 97 98  1  0  0  0  0
 95 99  1  0  0  0  0
 99100  2  0  0  0  0
 99101  1  0  0  0  0
 91102  2  0  0  0  0
102103  1  0  0  0  0
 90104  1  0  0  0  0
104105  2  0  0  0  0
105106  1  0  0  0  0
105107  1  0  0  0  0
107108  2  0  0  0  0
108109  1  0  0  0  0
109110  2  0  0  0  0
110111  1  0  0  0  0
111112  2  0  0  0  0
112113  1  0  0  0  0
113114  2  0  0  0  0
114115  1  0  0  0  0
115116  1  0  0  0  0
116117  1  0  0  0  0
114118  1  0  0  0  0
118119  1  0  0  0  0
118120  2  0  0  0  0
110121  1  0  0  0  0
121122  2  0  0  0  0
122123  1  0  0  0  0
123124  1  0  0  0  0
124125  2  0  0  0  0
125126  1  0  0  0  0
126127  2  0  0  0  0
127128  1  0  0  0  0
128129  1  0  0  0  0
129130  1  0  0  0  0
127131  1  0  0  0  0
131132  2  0  0  0  0
131133  1  0  0  0  0
123134  2  0  0  0  0
134135  1  0  0  0  0
122136  1  0  0  0  0
136137  2  0  0  0  0
137138  1  0  0  0  0
137139  1  0  0  0  0
139140  2  0  0  0  0
140141  1  0  0  0  0
141142  2  0  0  0  0
142143  1  0  0  0  0
143144  2  0  0  0  0
144145  1  0  0  0  0
145146  2  0  0  0  0
146147  1  0  0  0  0
147148  1  0  0  0  0
148149  1  0  0  0  0
146150  1  0  0  0  0
150151  1  0  0  0  0
150152  2  0  0  0  0
142153  1  0  0  0  0
153154  2  0  0  0  0
154155  1  0  0  0  0
155156  1  0  0  0  0
156157  2  0  0  0  0
157158  1  0  0  0  0
158159  2  0  0  0  0
159160  1  0  0  0  0
160161  1  0  0  0  0
161162  1  0  0  0  0
159163  1  0  0  0  0
163164  2  0  0  0  0
163165  1  0  0  0  0
155166  2  0  0  0  0
166167  1  0  0  0  0
154168  1  0  0  0  0
168169  2  0  0  0  0
169170  1  0  0  0  0
 29  1  1  0  0  0  0
 39 33  2  0  0  0  0
 71 43  1  0  0  0  0
103 75  1  0  0  0  0
135107  1  0  0  0  0
167139  1  0  0  0  0
 28  3  1  0  0  0  0
 42 38  1  0  0  0  0
 70 45  1  0  0  0  0
102 77  1  0  0  0  0
134109  1  0  0  0  0
166141  1  0  0  0  0
 14  5  1  0  0  0  0
 32 15  1  0  0  0  0
 56 47  1  0  0  0  0
 74 57  1  0  0  0  0
 88 79  1  0  0  0  0
106 89  1  0  0  0  0
120111  1  0  0  0  0
138121  1  0  0  0  0
152143  1  0  0  0  0
170153  1  0  0  0  0
 26 18  1  0  0  0  0
 68 60  1  0  0  0  0
100 92  1  0  0  0  0
132124  1  0  0  0  0
164156  1  0  0  0  0
  1171  1  0  0  0  0
  2172  1  0  0  0  0
  6173  1  0  0  0  0
  7174  1  0  0  0  0
 10175  1  0  0  0  0
 10176  1  0  0  0  0
 11177  1  0  0  0  0
 11178  1  0  0  0  0
 11179  1  0  0  0  0
 14180  1  0  0  0  0
 19181  1  0  0  0  0
 20182  1  0  0  0  0
 23183  1  0  0  0  0
 23184  1  0  0  0  0
 24185  1  0  0  0  0
 24186  1  0  0  0  0
 24187  1  0  0  0  0
 26188  1  0  0  0  0
 30189  1  0  0  0  0
 36190  1  0  0  0  0
 36191  1  0  0  0  0
 37192  1  0  0  0  0
 37193  1  0  0  0  0
 37194  1  0  0  0  0
 41195  1  0  0  0  0
 42196  1  0  0  0  0
 44197  1  0  0  0  0
 48198  1  0  0  0  0
 49199  1  0  0  0  0
 52200  1  0  0  0  0
 52201  1  0  0  0  0
 53202  1  0  0  0  0
 53203  1  0  0  0  0
 53204  1  0  0  0  0
 56205  1  0  0  0  0
 61206  1  0  0  0  0
 62207  1  0  0  0  0
 65208  1  0  0  0  0
 65209  1  0  0  0  0
 66210  1  0  0  0  0
 66211  1  0  0  0  0
 66212  1  0  0  0  0
 68213  1  0  0  0  0
 72214  1  0  0  0  0
 76215  1  0  0  0  0
 80216  1  0  0  0  0
 81217  1  0  0  0  0
 84218  1  0  0  0  0
 84219  1  0  0  0  0
 85220  1  0  0  0  0
 85221  1  0  0  0  0
 85222  1  0  0  0  0
 88223  1  0  0  0  0
 93224  1  0  0  0  0
 94225  1  0  0  0  0
 97226  1  0  0  0  0
 97227  1  0  0  0  0
 98228  1  0  0  0  0
 98229  1  0  0  0  0
 98230  1  0  0  0  0
100231  1  0  0  0  0
104232  1  0  0  0  0
108233  1  0  0  0  0
112234  1  0  0  0  0
113235  1  0  0  0  0
116236  1  0  0  0  0
116237  1  0  0  0  0
117238  1  0  0  0  0
117239  1  0  0  0  0
117240  1  0  0  0  0
120241  1  0  0  0  0
125242  1  0  0  0  0
126243  1  0  0  0  0
129244  1  0  0  0  0
129245  1  0  0  0  0
130246  1  0  0  0  0
130247  1  0  0  0  0
130248  1  0  0  0  0
132249  1  0  0  0  0
136250  1  0  0  0  0
140251  1  0  0  0  0
144252  1  0  0  0  0
145253  1  0  0  0  0
148254  1  0  0  0  0
148255  1  0  0  0  0
149256  1  0  0  0  0
149257  1  0  0  0  0
149258  1  0  0  0  0
152259  1  0  0  0  0
157260  1  0  0  0  0
158261  1  0  0  0  0
161262  1  0  0  0  0
161263  1  0  0  0  0
162264  1  0  0  0  0
162265  1  0  0  0  0
162266  1  0  0  0  0
164267  1  0  0  0  0
168268  1  0  0  0  0
169269  1  0  0  0  0
M  END
