
  xtb     03022210403D
 energy: -450.389422956584 gnorm: 0.000800401346 xtb: 6.4.1 (unknown)
229255  0     0  0            999 V2000
   -4.9719  -11.3601   -1.3778 C   0  0  0  0  0  0  0  0  0  0  0  0
   -4.1155  -12.2191   -0.7878 C   0  0  0  0  0  0  0  0  0  0  0  0
   -4.0183  -12.0224    0.6204 C   0  0  0  0  0  0  0  0  0  0  0  0
   -3.2205  -12.7119    1.5480 C   0  0  0  0  0  0  0  0  0  0  0  0
   -2.3544  -13.8081    1.1422 C   0  0  0  0  0  0  0  0  0  0  0  0
   -1.1795  -13.6235   -0.1265 S   0  0  0  0  0  0  0  0  0  0  0  0
   -0.6087  -15.2479    0.0504 C   0  0  0  0  0  0  0  0  0  0  0  0
    0.5323  -15.7517   -0.7618 C   0  0  0  0  0  0  0  0  0  0  0  0
    1.8621  -15.2184   -0.2239 C   0  0  0  0  0  0  0  0  0  0  0  0
   -1.3033  -15.8856    1.0326 C   0  0  0  0  0  0  0  0  0  0  0  0
   -1.0293  -17.5148    1.4988 Cl  0  0  0  0  0  0  0  0  0  0  0  0
   -2.2983  -15.0776    1.6473 C   0  0  0  0  0  0  0  0  0  0  0  0
   -3.3653  -15.6963    2.8377 Cl  0  0  0  0  0  0  0  0  0  0  0  0
   -3.3061  -12.3095    2.8750 C   0  0  0  0  0  0  0  0  0  0  0  0
   -4.1771  -11.2836    3.3167 C   0  0  0  0  0  0  0  0  0  0  0  0
   -4.9944  -10.6150    2.3932 C   0  0  0  0  0  0  0  0  0  0  0  0
   -5.9334   -9.5862    2.8121 C   0  0  0  0  0  0  0  0  0  0  0  0
   -5.4124   -8.1762    3.6829 S   0  0  0  0  0  0  0  0  0  0  0  0
   -7.0142   -7.5273    3.7531 C   0  0  0  0  0  0  0  0  0  0  0  0
   -7.2829   -6.2342    4.4377 C   0  0  0  0  0  0  0  0  0  0  0  0
   -7.4432   -6.4162    5.9481 C   0  0  0  0  0  0  0  0  0  0  0  0
   -7.8924   -8.3715    3.1430 C   0  0  0  0  0  0  0  0  0  0  0  0
   -7.2834   -9.5365    2.6036 C   0  0  0  0  0  0  0  0  0  0  0  0
   -8.1873  -10.7797    1.8458 Cl  0  0  0  0  0  0  0  0  0  0  0  0
   -9.5777   -8.0735    3.0202 Cl  0  0  0  0  0  0  0  0  0  0  0  0
   -4.8801  -10.9901    1.0598 C   0  0  0  0  0  0  0  0  0  0  0  0
   -5.7339  -10.2712   -0.2745 S   0  0  0  0  0  0  0  0  0  0  0  0
   -4.1361  -11.1187    4.7244 C   0  0  0  0  0  0  0  0  0  0  0  0
   -3.2508  -11.9491    5.3475 C   0  0  0  0  0  0  0  0  0  0  0  0
   -2.4027  -12.9762    4.2058 S   0  0  0  0  0  0  0  0  0  0  0  0
   -3.0409  -12.0991    6.7517 C   0  0  0  0  0  0  0  0  0  0  0  0
   -2.7246  -13.6940    7.3995 S   0  0  0  0  0  0  0  0  0  0  0  0
   -2.8562  -13.1794    9.0504 C   0  0  0  0  0  0  0  0  0  0  0  0
   -2.7572  -14.1460   10.1801 C   0  0  0  0  0  0  0  0  0  0  0  0
   -4.1307  -14.7145   10.5486 C   0  0  0  0  0  0  0  0  0  0  0  0
   -3.1211  -11.8383    9.0738 C   0  0  0  0  0  0  0  0  0  0  0  0
   -3.1926  -11.2019    7.7918 C   0  0  0  0  0  0  0  0  0  0  0  0
   -3.3903   -9.8001    8.0539 C   0  0  0  0  0  0  0  0  0  0  0  0
   -3.4855   -9.6760    9.4208 C   0  0  0  0  0  0  0  0  0  0  0  0
   -3.3315  -10.8830   10.0363 N   0  0  0  0  0  0  0  0  0  0  0  0
   -3.3182   -8.7283    7.1089 C   0  0  0  0  0  0  0  0  0  0  0  0
   -2.6986   -8.7650    5.8993 C   0  0  0  0  0  0  0  0  0  0  0  0
   -2.7132   -7.5321    5.2065 C   0  0  0  0  0  0  0  0  0  0  0  0
   -2.2272   -7.2724    3.9137 C   0  0  0  0  0  0  0  0  0  0  0  0
   -1.6920   -8.3349    3.0810 C   0  0  0  0  0  0  0  0  0  0  0  0
   -0.4734   -9.4317    3.6618 S   0  0  0  0  0  0  0  0  0  0  0  0
   -0.3944  -10.2821    2.1568 C   0  0  0  0  0  0  0  0  0  0  0  0
    0.5342  -11.4306    1.9709 C   0  0  0  0  0  0  0  0  0  0  0  0
    1.9553  -11.0988    2.4201 C   0  0  0  0  0  0  0  0  0  0  0  0
   -1.2719   -9.7391    1.2676 C   0  0  0  0  0  0  0  0  0  0  0  0
   -1.4741  -10.2906   -0.3449 Cl  0  0  0  0  0  0  0  0  0  0  0  0
   -2.0121   -8.6427    1.7877 C   0  0  0  0  0  0  0  0  0  0  0  0
   -3.2364   -7.8624    0.8801 Cl  0  0  0  0  0  0  0  0  0  0  0  0
   -2.2920   -5.9550    3.4776 C   0  0  0  0  0  0  0  0  0  0  0  0
   -2.8655   -4.9175    4.2534 C   0  0  0  0  0  0  0  0  0  0  0  0
   -3.4785   -5.2080    5.4886 C   0  0  0  0  0  0  0  0  0  0  0  0
   -4.1752   -4.1815    6.2396 C   0  0  0  0  0  0  0  0  0  0  0  0
   -3.9465   -4.0241    7.9580 S   0  0  0  0  0  0  0  0  0  0  0  0
   -5.0252   -2.6768    8.0648 C   0  0  0  0  0  0  0  0  0  0  0  0
   -5.3405   -2.0426    9.3740 C   0  0  0  0  0  0  0  0  0  0  0  0
   -6.4457   -2.8143   10.0992 C   0  0  0  0  0  0  0  0  0  0  0  0
   -5.5374   -2.3852    6.8363 C   0  0  0  0  0  0  0  0  0  0  0  0
   -5.0571   -3.2289    5.7996 C   0  0  0  0  0  0  0  0  0  0  0  0
   -5.6265   -3.0680    4.1853 Cl  0  0  0  0  0  0  0  0  0  0  0  0
   -6.6549   -1.1150    6.5421 Cl  0  0  0  0  0  0  0  0  0  0  0  0
   -3.3530   -6.5125    5.9504 C   0  0  0  0  0  0  0  0  0  0  0  0
   -3.9552   -7.1340    7.4651 S   0  0  0  0  0  0  0  0  0  0  0  0
   -2.6677   -3.6493    3.6583 C   0  0  0  0  0  0  0  0  0  0  0  0
   -2.0077   -3.7003    2.4660 C   0  0  0  0  0  0  0  0  0  0  0  0
   -1.5911   -5.3376    2.0090 S   0  0  0  0  0  0  0  0  0  0  0  0
   -1.6366   -2.5941    1.6489 C   0  0  0  0  0  0  0  0  0  0  0  0
   -0.8861   -2.5971    0.5110 C   0  0  0  0  0  0  0  0  0  0  0  0
   -0.6530   -1.3028   -0.0163 C   0  0  0  0  0  0  0  0  0  0  0  0
    0.0705   -0.9501   -1.1701 C   0  0  0  0  0  0  0  0  0  0  0  0
    0.7012   -1.9508   -2.0141 C   0  0  0  0  0  0  0  0  0  0  0  0
    1.7823   -3.1450   -1.3566 S   0  0  0  0  0  0  0  0  0  0  0  0
    2.0926   -3.8376   -2.9111 C   0  0  0  0  0  0  0  0  0  0  0  0
    3.0513   -4.9638   -3.0807 C   0  0  0  0  0  0  0  0  0  0  0  0
    4.4750   -4.4417   -3.2886 C   0  0  0  0  0  0  0  0  0  0  0  0
    1.3977   -3.1685   -3.8734 C   0  0  0  0  0  0  0  0  0  0  0  0
    1.4510   -3.5674   -5.5410 Cl  0  0  0  0  0  0  0  0  0  0  0  0
    0.6060   -2.1013   -3.3704 C   0  0  0  0  0  0  0  0  0  0  0  0
   -0.4237   -1.1721   -4.3766 Cl  0  0  0  0  0  0  0  0  0  0  0  0
    0.1810    0.4059   -1.4539 C   0  0  0  0  0  0  0  0  0  0  0  0
   -0.4259    1.4092   -0.6589 C   0  0  0  0  0  0  0  0  0  0  0  0
   -1.2223    1.0533    0.4449 C   0  0  0  0  0  0  0  0  0  0  0  0
   -1.9427    2.0600    1.2020 C   0  0  0  0  0  0  0  0  0  0  0  0
   -1.9054    2.0948    2.9405 S   0  0  0  0  0  0  0  0  0  0  0  0
   -2.9380    3.4815    3.0151 C   0  0  0  0  0  0  0  0  0  0  0  0
   -3.3858    4.0364    4.3217 C   0  0  0  0  0  0  0  0  0  0  0  0
   -4.5629    3.2299    4.8760 C   0  0  0  0  0  0  0  0  0  0  0  0
   -3.2924    3.8765    1.7596 C   0  0  0  0  0  0  0  0  0  0  0  0
   -2.7310    3.0755    0.7292 C   0  0  0  0  0  0  0  0  0  0  0  0
   -3.1086    3.3294   -0.9271 Cl  0  0  0  0  0  0  0  0  0  0  0  0
   -4.3067    5.2202    1.4265 Cl  0  0  0  0  0  0  0  0  0  0  0  0
   -1.2819   -0.2972    0.7599 C   0  0  0  0  0  0  0  0  0  0  0  0
   -2.1370   -0.9796    2.1118 S   0  0  0  0  0  0  0  0  0  0  0  0
   -0.0762    2.7088   -1.0901 C   0  0  0  0  0  0  0  0  0  0  0  0
    0.7374    2.7198   -2.1866 C   0  0  0  0  0  0  0  0  0  0  0  0
    1.1268    1.1064   -2.7354 S   0  0  0  0  0  0  0  0  0  0  0  0
    1.2245    3.8759   -2.8666 C   0  0  0  0  0  0  0  0  0  0  0  0
    1.0264    5.1753   -2.4984 C   0  0  0  0  0  0  0  0  0  0  0  0
    1.5906    6.1093   -3.3971 C   0  0  0  0  0  0  0  0  0  0  0  0
    1.5294    7.5129   -3.3337 C   0  0  0  0  0  0  0  0  0  0  0  0
    0.7449    8.1922   -2.3184 C   0  0  0  0  0  0  0  0  0  0  0  0
    1.4210    9.4963   -1.3868 S   0  0  0  0  0  0  0  0  0  0  0  0
   -0.0466    9.7304   -0.4991 C   0  0  0  0  0  0  0  0  0  0  0  0
   -0.1563   10.8140    0.5158 C   0  0  0  0  0  0  0  0  0  0  0  0
   -0.0668   12.1931   -0.1399 C   0  0  0  0  0  0  0  0  0  0  0  0
   -0.9962    8.8454   -0.9143 C   0  0  0  0  0  0  0  0  0  0  0  0
   -2.5846    8.7604   -0.2682 Cl  0  0  0  0  0  0  0  0  0  0  0  0
   -0.5529    7.9711   -1.9440 C   0  0  0  0  0  0  0  0  0  0  0  0
   -1.6029    6.8302   -2.6835 Cl  0  0  0  0  0  0  0  0  0  0  0  0
    2.2582    8.2118   -4.2861 C   0  0  0  0  0  0  0  0  0  0  0  0
    2.9932    7.5783   -5.3181 C   0  0  0  0  0  0  0  0  0  0  0  0
    2.9703    6.1767   -5.4380 C   0  0  0  0  0  0  0  0  0  0  0  0
    3.6219    5.5070   -6.5489 C   0  0  0  0  0  0  0  0  0  0  0  0
    4.6916    4.1597   -6.2980 S   0  0  0  0  0  0  0  0  0  0  0  0
    4.9866    3.9775   -7.9928 C   0  0  0  0  0  0  0  0  0  0  0  0
    5.8470    2.8780   -8.5090 C   0  0  0  0  0  0  0  0  0  0  0  0
    5.0530    1.5736   -8.6149 C   0  0  0  0  0  0  0  0  0  0  0  0
    4.2804    4.9046   -8.6998 C   0  0  0  0  0  0  0  0  0  0  0  0
    3.5097    5.7772   -7.8860 C   0  0  0  0  0  0  0  0  0  0  0  0
    2.4799    6.9796   -8.5496 Cl  0  0  0  0  0  0  0  0  0  0  0  0
    4.3093    5.0301  -10.4111 Cl  0  0  0  0  0  0  0  0  0  0  0  0
    2.2880    5.4733   -4.4535 C   0  0  0  0  0  0  0  0  0  0  0  0
    2.1527    3.7411   -4.3438 S   0  0  0  0  0  0  0  0  0  0  0  0
    3.7016    8.5152   -6.1114 C   0  0  0  0  0  0  0  0  0  0  0  0
    3.4843    9.8093   -5.7446 C   0  0  0  0  0  0  0  0  0  0  0  0
    2.3911    9.9428   -4.3814 S   0  0  0  0  0  0  0  0  0  0  0  0
    4.0478   10.9971   -6.2944 C   0  0  0  0  0  0  0  0  0  0  0  0
    3.7780   12.2762   -5.9099 C   0  0  0  0  0  0  0  0  0  0  0  0
    4.5384   13.2478   -6.6039 C   0  0  0  0  0  0  0  0  0  0  0  0
    4.5494   14.6379   -6.4065 C   0  0  0  0  0  0  0  0  0  0  0  0
    3.7572   15.2431   -5.3494 C   0  0  0  0  0  0  0  0  0  0  0  0
    2.6667   16.5586   -5.6682 S   0  0  0  0  0  0  0  0  0  0  0  0
    2.1480   16.6313   -4.0194 C   0  0  0  0  0  0  0  0  0  0  0  0
    1.1736   17.6593   -3.5611 C   0  0  0  0  0  0  0  0  0  0  0  0
    1.8881   18.9687   -3.2178 C   0  0  0  0  0  0  0  0  0  0  0  0
    2.8018   15.6952   -3.2750 C   0  0  0  0  0  0  0  0  0  0  0  0
    2.5522   15.4644   -1.5932 Cl  0  0  0  0  0  0  0  0  0  0  0  0
    3.7130   14.9044   -4.0243 C   0  0  0  0  0  0  0  0  0  0  0  0
    4.7086   13.7115   -3.2930 Cl  0  0  0  0  0  0  0  0  0  0  0  0
    5.3617   15.3855   -7.2500 C   0  0  0  0  0  0  0  0  0  0  0  0
    6.1810   14.8021   -8.2450 C   0  0  0  0  0  0  0  0  0  0  0  0
    6.1903   13.4094   -8.4236 C   0  0  0  0  0  0  0  0  0  0  0  0
    7.0349   12.7733   -9.4230 C   0  0  0  0  0  0  0  0  0  0  0  0
    8.7543   13.0339   -9.4509 S   0  0  0  0  0  0  0  0  0  0  0  0
    8.9739   11.9727  -10.8000 C   0  0  0  0  0  0  0  0  0  0  0  0
   10.3288   11.6822  -11.3445 C   0  0  0  0  0  0  0  0  0  0  0  0
   10.9710   10.5031  -10.6095 C   0  0  0  0  0  0  0  0  0  0  0  0
    7.7771   11.4508  -11.1899 C   0  0  0  0  0  0  0  0  0  0  0  0
    6.6754   11.9035  -10.4144 C   0  0  0  0  0  0  0  0  0  0  0  0
    5.0599   11.4509  -10.7639 Cl  0  0  0  0  0  0  0  0  0  0  0  0
    7.5929   10.3574  -12.4992 Cl  0  0  0  0  0  0  0  0  0  0  0  0
    5.3666   12.6609   -7.5923 C   0  0  0  0  0  0  0  0  0  0  0  0
    5.2360   10.9246   -7.5776 S   0  0  0  0  0  0  0  0  0  0  0  0
    6.9142   15.7907   -8.9649 C   0  0  0  0  0  0  0  0  0  0  0  0
    6.6764   17.0427   -8.5246 C   0  0  0  0  0  0  0  0  0  0  0  0
    5.5488   17.1160   -7.2147 S   0  0  0  0  0  0  0  0  0  0  0  0
   -5.2194  -11.2904   -2.4191 H   0  0  0  0  0  0  0  0  0  0  0  0
   -3.5605  -12.9662   -1.3245 H   0  0  0  0  0  0  0  0  0  0  0  0
    0.4093  -15.4344   -1.7992 H   0  0  0  0  0  0  0  0  0  0  0  0
    0.5308  -16.8423   -0.7269 H   0  0  0  0  0  0  0  0  0  0  0  0
    2.6865  -15.6006   -0.8196 H   0  0  0  0  0  0  0  0  0  0  0  0
    1.8754  -14.1317   -0.2642 H   0  0  0  0  0  0  0  0  0  0  0  0
    2.0031  -15.5302    0.8080 H   0  0  0  0  0  0  0  0  0  0  0  0
   -8.1948   -5.8005    4.0228 H   0  0  0  0  0  0  0  0  0  0  0  0
   -6.4520   -5.5549    4.2452 H   0  0  0  0  0  0  0  0  0  0  0  0
   -7.6188   -5.4530    6.4201 H   0  0  0  0  0  0  0  0  0  0  0  0
   -8.2844   -7.0702    6.1636 H   0  0  0  0  0  0  0  0  0  0  0  0
   -6.5435   -6.8521    6.3754 H   0  0  0  0  0  0  0  0  0  0  0  0
   -4.7739  -10.4413    5.2603 H   0  0  0  0  0  0  0  0  0  0  0  0
   -2.0948  -14.9653    9.8961 H   0  0  0  0  0  0  0  0  0  0  0  0
   -2.3240  -13.6425   11.0488 H   0  0  0  0  0  0  0  0  0  0  0  0
   -4.0398  -15.4096   11.3792 H   0  0  0  0  0  0  0  0  0  0  0  0
   -4.5573  -15.2415    9.6989 H   0  0  0  0  0  0  0  0  0  0  0  0
   -4.8114  -13.9156   10.8344 H   0  0  0  0  0  0  0  0  0  0  0  0
   -3.6359   -8.7773    9.9885 H   0  0  0  0  0  0  0  0  0  0  0  0
   -3.3209  -11.0339   11.0296 H   0  0  0  0  0  0  0  0  0  0  0  0
   -2.2060   -9.6427    5.5344 H   0  0  0  0  0  0  0  0  0  0  0  0
    0.5277  -11.7031    0.9144 H   0  0  0  0  0  0  0  0  0  0  0  0
    0.1658  -12.2865    2.5455 H   0  0  0  0  0  0  0  0  0  0  0  0
    1.9684  -10.8468    3.4779 H   0  0  0  0  0  0  0  0  0  0  0  0
    2.3425  -10.2528    1.8579 H   0  0  0  0  0  0  0  0  0  0  0  0
    2.6063  -11.9533    2.2569 H   0  0  0  0  0  0  0  0  0  0  0  0
   -5.6651   -1.0155    9.1982 H   0  0  0  0  0  0  0  0  0  0  0  0
   -4.4427   -2.0259    9.9941 H   0  0  0  0  0  0  0  0  0  0  0  0
   -7.3541   -2.8213    9.5021 H   0  0  0  0  0  0  0  0  0  0  0  0
   -6.1354   -3.8421   10.2718 H   0  0  0  0  0  0  0  0  0  0  0  0
   -6.6616   -2.3473   11.0562 H   0  0  0  0  0  0  0  0  0  0  0  0
   -2.9569   -2.7187    4.1111 H   0  0  0  0  0  0  0  0  0  0  0  0
   -0.5062   -3.5028    0.0743 H   0  0  0  0  0  0  0  0  0  0  0  0
    2.7491   -5.5533   -3.9485 H   0  0  0  0  0  0  0  0  0  0  0  0
    3.0216   -5.6014   -2.1956 H   0  0  0  0  0  0  0  0  0  0  0  0
    5.1625   -5.2733   -3.4179 H   0  0  0  0  0  0  0  0  0  0  0  0
    4.7917   -3.8561   -2.4287 H   0  0  0  0  0  0  0  0  0  0  0  0
    4.5189   -3.8117   -4.1733 H   0  0  0  0  0  0  0  0  0  0  0  0
   -2.5585    4.0063    5.0330 H   0  0  0  0  0  0  0  0  0  0  0  0
   -3.6875    5.0751    4.1767 H   0  0  0  0  0  0  0  0  0  0  0  0
   -5.4007    3.2627    4.1841 H   0  0  0  0  0  0  0  0  0  0  0  0
   -4.2734    2.1918    5.0213 H   0  0  0  0  0  0  0  0  0  0  0  0
   -4.8824    3.6414    5.8296 H   0  0  0  0  0  0  0  0  0  0  0  0
   -0.4016    3.6023   -0.5928 H   0  0  0  0  0  0  0  0  0  0  0  0
    0.5101    5.4598   -1.6018 H   0  0  0  0  0  0  0  0  0  0  0  0
    0.6495   10.7112    1.2465 H   0  0  0  0  0  0  0  0  0  0  0  0
   -1.1103   10.7079    1.0347 H   0  0  0  0  0  0  0  0  0  0  0  0
   -0.1512   12.9718    0.6135 H   0  0  0  0  0  0  0  0  0  0  0  0
   -0.8677   12.3206   -0.8640 H   0  0  0  0  0  0  0  0  0  0  0  0
    0.8854   12.3054   -0.6530 H   0  0  0  0  0  0  0  0  0  0  0  0
    6.2240    3.1599   -9.4937 H   0  0  0  0  0  0  0  0  0  0  0  0
    6.6942    2.7334   -7.8363 H   0  0  0  0  0  0  0  0  0  0  0  0
    4.2151    1.6972   -9.2962 H   0  0  0  0  0  0  0  0  0  0  0  0
    4.6680    1.2868   -7.6392 H   0  0  0  0  0  0  0  0  0  0  0  0
    5.6910    0.7771   -8.9880 H   0  0  0  0  0  0  0  0  0  0  0  0
    4.3667    8.2446   -6.9112 H   0  0  0  0  0  0  0  0  0  0  0  0
    3.0472   12.5091   -5.1573 H   0  0  0  0  0  0  0  0  0  0  0  0
    0.6548   17.2825   -2.6776 H   0  0  0  0  0  0  0  0  0  0  0  0
    0.4404   17.8411   -4.3484 H   0  0  0  0  0  0  0  0  0  0  0  0
    2.4083   19.3540   -4.0915 H   0  0  0  0  0  0  0  0  0  0  0  0
    1.1680   19.7105   -2.8833 H   0  0  0  0  0  0  0  0  0  0  0  0
    2.6139   18.8049   -2.4254 H   0  0  0  0  0  0  0  0  0  0  0  0
   10.2360   11.4432  -12.4057 H   0  0  0  0  0  0  0  0  0  0  0  0
   10.9599   12.5659  -11.2370 H   0  0  0  0  0  0  0  0  0  0  0  0
   10.3560    9.6134  -10.7167 H   0  0  0  0  0  0  0  0  0  0  0  0
   11.0741   10.7291   -9.5508 H   0  0  0  0  0  0  0  0  0  0  0  0
   11.9557   10.2985  -11.0209 H   0  0  0  0  0  0  0  0  0  0  0  0
    7.5822   15.5602   -9.7742 H   0  0  0  0  0  0  0  0  0  0  0  0
    7.0950   17.9598   -8.8901 H   0  0  0  0  0  0  0  0  0  0  0  0
  1  2  2  0  0  0  0
  2  3  1  0  0  0  0
  3  4  2  0  0  0  0
  4  5  1  0  0  0  0
  5  6  1  0  0  0  0
  6  7  1  0  0  0  0
  7  8  1  0  0  0  0
  8  9  1  0  0  0  0
  7 10  2  0  0  0  0
 10 11  1  0  0  0  0
 10 12  1  0  0  0  0
 12 13  1  0  0  0  0
  4 14  1  0  0  0  0
 14 15  2  0  0  0  0
 15 16  1  0  0  0  0
 16 17  1  0  0  0  0
 17 18  1  0  0  0  0
 18 19  1  0  0  0  0
 19 20  1  0  0  0  0
 20 21  1  0  0  0  0
 19 22  2  0  0  0  0
 22 23  1  0  0  0  0
 23 24  1  0  0  0  0
 22 25  1  0  0  0  0
 16 26  2  0  0  0  0
 26 27  1  0  0  0  0
 15 28  1  0  0  0  0
 28 29  2  0  0  0  0
 29 30  1  0  0  0  0
 29 31  1  0  0  0  0
 31 32  1  0  0  0  0
 32 33  1  0  0  0  0
 33 34  1  0  0  0  0
 34 35  1  0  0  0  0
 33 36  2  0  0  0  0
 36 37  1  0  0  0  0
 37 38  1  0  0  0  0
 38 39  2  0  0  0  0
 39 40  1  0  0  0  0
 38 41  1  0  0  0  0
 41 42  2  0  0  0  0
 42 43  1  0  0  0  0
 43 44  2  0  0  0  0
 44 45  1  0  0  0  0
 45 46  1  0  0  0  0
 46 47  1  0  0  0  0
 47 48  1  0  0  0  0
 48 49  1  0  0  0  0
 47 50  2  0  0  0  0
 50 51  1  0  0  0  0
 50 52  1  0  0  0  0
 52 53  1  0  0  0  0
 44 54  1  0  0  0  0
 54 55  2  0  0  0  0
 55 56  1  0  0  0  0
 56 57  1  0  0  0  0
 57 58  1  0  0  0  0
 58 59  1  0  0  0  0
 59 60  1  0  0  0  0
 60 61  1  0  0  0  0
 59 62  2  0  0  0  0
 62 63  1  0  0  0  0
 63 64  1  0  0  0  0
 62 65  1  0  0  0  0
 56 66  2  0  0  0  0
 66 67  1  0  0  0  0
 55 68  1  0  0  0  0
 68 69  2  0  0  0  0
 69 70  1  0  0  0  0
 69 71  1  0  0  0  0
 71 72  2  0  0  0  0
 72 73  1  0  0  0  0
 73 74  2  0  0  0  0
 74 75  1  0  0  0  0
 75 76  1  0  0  0  0
 76 77  1  0  0  0  0
 77 78  1  0  0  0  0
 78 79  1  0  0  0  0
 77 80  2  0  0  0  0
 80 81  1  0  0  0  0
 80 82  1  0  0  0  0
 82 83  1  0  0  0  0
 74 84  1  0  0  0  0
 84 85  2  0  0  0  0
 85 86  1  0  0  0  0
 86 87  1  0  0  0  0
 87 88  1  0  0  0  0
 88 89  1  0  0  0  0
 89 90  1  0  0  0  0
 90 91  1  0  0  0  0
 89 92  2  0  0  0  0
 92 93  1  0  0  0  0
 93 94  1  0  0  0  0
 92 95  1  0  0  0  0
 86 96  2  0  0  0  0
 96 97  1  0  0  0  0
 85 98  1  0  0  0  0
 98 99  2  0  0  0  0
 99100  1  0  0  0  0
 99101  1  0  0  0  0
101102  2  0  0  0  0
102103  1  0  0  0  0
103104  2  0  0  0  0
104105  1  0  0  0  0
105106  1  0  0  0  0
106107  1  0  0  0  0
107108  1  0  0  0  0
108109  1  0  0  0  0
107110  2  0  0  0  0
110111  1  0  0  0  0
110112  1  0  0  0  0
112113  1  0  0  0  0
104114  1  0  0  0  0
114115  2  0  0  0  0
115116  1  0  0  0  0
116117  1  0  0  0  0
117118  1  0  0  0  0
118119  1  0  0  0  0
119120  1  0  0  0  0
120121  1  0  0  0  0
119122  2  0  0  0  0
122123  1  0  0  0  0
123124  1  0  0  0  0
122125  1  0  0  0  0
116126  2  0  0  0  0
126127  1  0  0  0  0
115128  1  0  0  0  0
128129  2  0  0  0  0
129130  1  0  0  0  0
129131  1  0  0  0  0
131132  2  0  0  0  0
132133  1  0  0  0  0
133134  2  0  0  0  0
134135  1  0  0  0  0
135136  1  0  0  0  0
136137  1  0  0  0  0
137138  1  0  0  0  0
138139  1  0  0  0  0
137140  2  0  0  0  0
140141  1  0  0  0  0
140142  1  0  0  0  0
142143  1  0  0  0  0
134144  1  0  0  0  0
144145  2  0  0  0  0
145146  1  0  0  0  0
146147  1  0  0  0  0
147148  1  0  0  0  0
148149  1  0  0  0  0
149150  1  0  0  0  0
150151  1  0  0  0  0
149152  2  0  0  0  0
152153  1  0  0  0  0
153154  1  0  0  0  0
152155  1  0  0  0  0
146156  2  0  0  0  0
156157  1  0  0  0  0
145158  1  0  0  0  0
158159  2  0  0  0  0
159160  1  0  0  0  0
 27  1  1  0  0  0  0
 37 31  2  0  0  0  0
 67 41  1  0  0  0  0
 97 71  1  0  0  0  0
127101  1  0  0  0  0
157131  1  0  0  0  0
 26  3  1  0  0  0  0
 40 36  1  0  0  0  0
 66 43  1  0  0  0  0
 96 73  1  0  0  0  0
126103  1  0  0  0  0
156133  1  0  0  0  0
 12  5  2  0  0  0  0
 30 14  1  0  0  0  0
 52 45  2  0  0  0  0
 70 54  1  0  0  0  0
 82 75  2  0  0  0  0
100 84  1  0  0  0  0
112105  2  0  0  0  0
130114  1  0  0  0  0
142135  2  0  0  0  0
160144  1  0  0  0  0
 23 17  2  0  0  0  0
 63 57  2  0  0  0  0
 93 87  2  0  0  0  0
123117  2  0  0  0  0
153147  2  0  0  0  0
  1161  1  0  0  0  0
  2162  1  0  0  0  0
  8163  1  0  0  0  0
  8164  1  0  0  0  0
  9165  1  0  0  0  0
  9166  1  0  0  0  0
  9167  1  0  0  0  0
 20168  1  0  0  0  0
 20169  1  0  0  0  0
 21170  1  0  0  0  0
 21171  1  0  0  0  0
 21172  1  0  0  0  0
 28173  1  0  0  0  0
 34174  1  0  0  0  0
 34175  1  0  0  0  0
 35176  1  0  0  0  0
 35177  1  0  0  0  0
 35178  1  0  0  0  0
 39179  1  0  0  0  0
 40180  1  0  0  0  0
 42181  1  0  0  0  0
 48182  1  0  0  0  0
 48183  1  0  0  0  0
 49184  1  0  0  0  0
 49185  1  0  0  0  0
 49186  1  0  0  0  0
 60187  1  0  0  0  0
 60188  1  0  0  0  0
 61189  1  0  0  0  0
 61190  1  0  0  0  0
 61191  1  0  0  0  0
 68192  1  0  0  0  0
 72193  1  0  0  0  0
 78194  1  0  0  0  0
 78195  1  0  0  0  0
 79196  1  0  0  0  0
 79197  1  0  0  0  0
 79198  1  0  0  0  0
 90199  1  0  0  0  0
 90200  1  0  0  0  0
 91201  1  0  0  0  0
 91202  1  0  0  0  0
 91203  1  0  0  0  0
 98204  1  0  0  0  0
102205  1  0  0  0  0
108206  1  0  0  0  0
108207  1  0  0  0  0
109208  1  0  0  0  0
109209  1  0  0  0  0
109210  1  0  0  0  0
120211  1  0  0  0  0
120212  1  0  0  0  0
121213  1  0  0  0  0
121214  1  0  0  0  0
121215  1  0  0  0  0
128216  1  0  0  0  0
132217  1  0  0  0  0
138218  1  0  0  0  0
138219  1  0  0  0  0
139220  1  0  0  0  0
139221  1  0  0  0  0
139222  1  0  0  0  0
150223  1  0  0  0  0
150224  1  0  0  0  0
151225  1  0  0  0  0
151226  1  0  0  0  0
151227  1  0  0  0  0
158228  1  0  0  0  0
159229  1  0  0  0  0
M  END
