
  xtb     03022216153D
 energy: -450.402305483602 gnorm: 0.000288821720 xtb: 6.4.1 (unknown)
229255  0     0  0            999 V2000
    4.2377   -5.8081    4.9435 C   0  0  0  0  0  0  0  0  0  0  0  0
    4.3083   -4.4953    4.6477 C   0  0  0  0  0  0  0  0  0  0  0  0
    3.0650   -3.8201    4.8252 C   0  0  0  0  0  0  0  0  0  0  0  0
    2.7613   -2.4689    4.5923 C   0  0  0  0  0  0  0  0  0  0  0  0
    3.7775   -1.5229    4.1610 C   0  0  0  0  0  0  0  0  0  0  0  0
    3.5637   -0.5374    2.7448 S   0  0  0  0  0  0  0  0  0  0  0  0
    5.0939    0.2366    2.9582 C   0  0  0  0  0  0  0  0  0  0  0  0
    5.5987    1.2499    1.9905 C   0  0  0  0  0  0  0  0  0  0  0  0
    6.6446    0.6422    1.0532 C   0  0  0  0  0  0  0  0  0  0  0  0
    5.7224   -0.2501    4.0661 C   0  0  0  0  0  0  0  0  0  0  0  0
    7.2564    0.2940    4.6100 Cl  0  0  0  0  0  0  0  0  0  0  0  0
    4.9795   -1.2469    4.7510 C   0  0  0  0  0  0  0  0  0  0  0  0
    5.5164   -1.9557    6.2195 Cl  0  0  0  0  0  0  0  0  0  0  0  0
    1.4443   -2.0734    4.7908 C   0  0  0  0  0  0  0  0  0  0  0  0
    0.4358   -2.9539    5.2525 C   0  0  0  0  0  0  0  0  0  0  0  0
    0.7426   -4.3021    5.4980 C   0  0  0  0  0  0  0  0  0  0  0  0
   -0.2789   -5.2258    5.9620 C   0  0  0  0  0  0  0  0  0  0  0  0
   -0.6235   -6.6968    5.1011 S   0  0  0  0  0  0  0  0  0  0  0  0
   -1.8760   -7.1440    6.2070 C   0  0  0  0  0  0  0  0  0  0  0  0
   -2.6821   -8.3791    6.0044 C   0  0  0  0  0  0  0  0  0  0  0  0
   -3.8910   -8.1026    5.1070 C   0  0  0  0  0  0  0  0  0  0  0  0
   -2.0117   -6.1958    7.1764 C   0  0  0  0  0  0  0  0  0  0  0  0
   -1.1060   -5.1089    7.0440 C   0  0  0  0  0  0  0  0  0  0  0  0
   -1.0265   -3.8278    8.1847 Cl  0  0  0  0  0  0  0  0  0  0  0  0
   -3.1572   -6.2891    8.4508 Cl  0  0  0  0  0  0  0  0  0  0  0  0
    2.0500   -4.7066    5.2581 C   0  0  0  0  0  0  0  0  0  0  0  0
    2.6670   -6.3224    5.4569 S   0  0  0  0  0  0  0  0  0  0  0  0
   -0.8172   -2.3034    5.3741 C   0  0  0  0  0  0  0  0  0  0  0  0
   -0.7774   -0.9847    5.0373 C   0  0  0  0  0  0  0  0  0  0  0  0
    0.8194   -0.4689    4.5352 S   0  0  0  0  0  0  0  0  0  0  0  0
   -1.8679   -0.0659    5.0052 C   0  0  0  0  0  0  0  0  0  0  0  0
   -1.9126    1.1374    4.3709 C   0  0  0  0  0  0  0  0  0  0  0  0
   -3.1817    1.7630    4.4337 C   0  0  0  0  0  0  0  0  0  0  0  0
   -3.5811    2.9780    3.8499 C   0  0  0  0  0  0  0  0  0  0  0  0
   -2.6457    3.7924    3.0941 C   0  0  0  0  0  0  0  0  0  0  0  0
   -3.0240    4.3159    1.4782 S   0  0  0  0  0  0  0  0  0  0  0  0
   -1.4944    5.0981    1.2871 C   0  0  0  0  0  0  0  0  0  0  0  0
   -1.1695    5.8453    0.0422 C   0  0  0  0  0  0  0  0  0  0  0  0
   -1.8530    7.2138    0.0409 C   0  0  0  0  0  0  0  0  0  0  0  0
   -0.7531    4.9714    2.4236 C   0  0  0  0  0  0  0  0  0  0  0  0
    0.8187    5.6309    2.6207 Cl  0  0  0  0  0  0  0  0  0  0  0  0
   -1.3991    4.2285    3.4484 C   0  0  0  0  0  0  0  0  0  0  0  0
   -0.6973    4.0008    4.9985 Cl  0  0  0  0  0  0  0  0  0  0  0  0
   -4.9162    3.3304    3.9878 C   0  0  0  0  0  0  0  0  0  0  0  0
   -5.8571    2.5478    4.6999 C   0  0  0  0  0  0  0  0  0  0  0  0
   -5.4436    1.3624    5.3314 C   0  0  0  0  0  0  0  0  0  0  0  0
   -6.3531    0.5871    6.1555 C   0  0  0  0  0  0  0  0  0  0  0  0
   -6.5087   -1.1345    5.9742 S   0  0  0  0  0  0  0  0  0  0  0  0
   -7.6510   -1.2510    7.2699 C   0  0  0  0  0  0  0  0  0  0  0  0
   -8.1866   -2.5724    7.6975 C   0  0  0  0  0  0  0  0  0  0  0  0
   -7.1295   -3.3657    8.4690 C   0  0  0  0  0  0  0  0  0  0  0  0
   -7.8819   -0.0202    7.8063 C   0  0  0  0  0  0  0  0  0  0  0  0
   -7.1524    1.0245    7.1759 C   0  0  0  0  0  0  0  0  0  0  0  0
   -7.2193    2.6498    7.7243 Cl  0  0  0  0  0  0  0  0  0  0  0  0
   -8.9473    0.2699    9.1199 Cl  0  0  0  0  0  0  0  0  0  0  0  0
   -4.1190    0.9826    5.1527 C   0  0  0  0  0  0  0  0  0  0  0  0
   -3.3939   -0.4780    5.7613 S   0  0  0  0  0  0  0  0  0  0  0  0
   -7.1666    3.0856    4.6109 C   0  0  0  0  0  0  0  0  0  0  0  0
   -7.2342    4.2322    3.8832 C   0  0  0  0  0  0  0  0  0  0  0  0
   -5.6515    4.7616    3.3318 S   0  0  0  0  0  0  0  0  0  0  0  0
   -8.3880    5.0055    3.5419 C   0  0  0  0  0  0  0  0  0  0  0  0
   -9.5859    5.4060    4.7487 S   0  0  0  0  0  0  0  0  0  0  0  0
  -10.4977    6.4213    3.6722 C   0  0  0  0  0  0  0  0  0  0  0  0
  -11.7528    7.0941    4.1115 C   0  0  0  0  0  0  0  0  0  0  0  0
  -12.9795    6.2206    3.8327 C   0  0  0  0  0  0  0  0  0  0  0  0
   -9.9054    6.4034    2.4402 C   0  0  0  0  0  0  0  0  0  0  0  0
   -8.7246    5.5990    2.3446 C   0  0  0  0  0  0  0  0  0  0  0  0
   -8.2888    5.6745    0.9765 C   0  0  0  0  0  0  0  0  0  0  0  0
   -9.1654    6.5260    0.3477 C   0  0  0  0  0  0  0  0  0  0  0  0
  -10.1287    6.9683    1.2095 N   0  0  0  0  0  0  0  0  0  0  0  0
   -7.2251    4.9341    0.3554 C   0  0  0  0  0  0  0  0  0  0  0  0
   -6.4028    5.3196   -0.6564 C   0  0  0  0  0  0  0  0  0  0  0  0
   -5.4658    4.3253   -1.0397 C   0  0  0  0  0  0  0  0  0  0  0  0
   -4.4546    4.4131   -2.0131 C   0  0  0  0  0  0  0  0  0  0  0  0
   -4.3553    5.5497   -2.9100 C   0  0  0  0  0  0  0  0  0  0  0  0
   -2.8356    6.3348   -3.2193 S   0  0  0  0  0  0  0  0  0  0  0  0
   -3.5377    7.4311   -4.3594 C   0  0  0  0  0  0  0  0  0  0  0  0
   -2.6926    8.4146   -5.0905 C   0  0  0  0  0  0  0  0  0  0  0  0
   -1.7896    7.7093   -6.1049 C   0  0  0  0  0  0  0  0  0  0  0  0
   -4.8720    7.1872   -4.4869 C   0  0  0  0  0  0  0  0  0  0  0  0
   -5.9134    8.0616   -5.5352 Cl  0  0  0  0  0  0  0  0  0  0  0  0
   -5.3393    6.1245   -3.6673 C   0  0  0  0  0  0  0  0  0  0  0  0
   -6.9639    5.5734   -3.7249 Cl  0  0  0  0  0  0  0  0  0  0  0  0
   -3.5778    3.3385   -2.1079 C   0  0  0  0  0  0  0  0  0  0  0  0
   -3.6897    2.1851   -1.2982 C   0  0  0  0  0  0  0  0  0  0  0  0
   -4.6822    2.1042   -0.3028 C   0  0  0  0  0  0  0  0  0  0  0  0
   -4.7098    0.9832    0.6139 C   0  0  0  0  0  0  0  0  0  0  0  0
   -6.2031    0.2119    1.0671 S   0  0  0  0  0  0  0  0  0  0  0  0
   -5.3940   -1.0063    1.9898 C   0  0  0  0  0  0  0  0  0  0  0  0
   -6.1387   -2.1239    2.6294 C   0  0  0  0  0  0  0  0  0  0  0  0
   -6.3074   -3.2964    1.6600 C   0  0  0  0  0  0  0  0  0  0  0  0
   -4.0468   -0.8060    1.9530 C   0  0  0  0  0  0  0  0  0  0  0  0
   -3.6554    0.3389    1.2118 C   0  0  0  0  0  0  0  0  0  0  0  0
   -2.0227    0.8751    1.2038 Cl  0  0  0  0  0  0  0  0  0  0  0  0
   -2.9063   -1.8735    2.6627 Cl  0  0  0  0  0  0  0  0  0  0  0  0
   -5.5833    3.1597   -0.2421 C   0  0  0  0  0  0  0  0  0  0  0  0
   -6.9150    3.2844    0.8605 S   0  0  0  0  0  0  0  0  0  0  0  0
   -2.7303    1.2068   -1.6455 C   0  0  0  0  0  0  0  0  0  0  0  0
   -1.8668    1.6022   -2.6210 C   0  0  0  0  0  0  0  0  0  0  0  0
   -2.2470    3.1987   -3.2306 S   0  0  0  0  0  0  0  0  0  0  0  0
   -0.7246    0.8633   -3.0504 C   0  0  0  0  0  0  0  0  0  0  0  0
    0.0276    0.9769   -4.1789 C   0  0  0  0  0  0  0  0  0  0  0  0
    1.1104    0.0607   -4.2251 C   0  0  0  0  0  0  0  0  0  0  0  0
    2.0676   -0.1033   -5.2427 C   0  0  0  0  0  0  0  0  0  0  0  0
    2.0660    0.7568   -6.4147 C   0  0  0  0  0  0  0  0  0  0  0  0
    2.0849    2.4883   -6.2439 S   0  0  0  0  0  0  0  0  0  0  0  0
    2.0841    2.7386   -7.9568 C   0  0  0  0  0  0  0  0  0  0  0  0
    2.0435    4.1131   -8.5275 C   0  0  0  0  0  0  0  0  0  0  0  0
    0.6668    4.7502   -8.3262 C   0  0  0  0  0  0  0  0  0  0  0  0
    2.0658    1.5419   -8.6077 C   0  0  0  0  0  0  0  0  0  0  0  0
    2.0491    1.3778  -10.3157 Cl  0  0  0  0  0  0  0  0  0  0  0  0
    2.0617    0.4167   -7.7383 C   0  0  0  0  0  0  0  0  0  0  0  0
    1.9644   -1.1907   -8.3230 Cl  0  0  0  0  0  0  0  0  0  0  0  0
    3.0168   -1.1009   -5.0597 C   0  0  0  0  0  0  0  0  0  0  0  0
    3.0664   -1.9134   -3.8980 C   0  0  0  0  0  0  0  0  0  0  0  0
    2.1457   -1.7139   -2.8550 C   0  0  0  0  0  0  0  0  0  0  0  0
    2.2497   -2.4234   -1.5922 C   0  0  0  0  0  0  0  0  0  0  0  0
    0.8528   -3.1057   -0.8098 S   0  0  0  0  0  0  0  0  0  0  0  0
    1.7678   -3.6379    0.5560 C   0  0  0  0  0  0  0  0  0  0  0  0
    1.1176   -4.3423    1.6962 C   0  0  0  0  0  0  0  0  0  0  0  0
    1.4706   -5.8300    1.7342 C   0  0  0  0  0  0  0  0  0  0  0  0
    3.0818   -3.3114    0.3965 C   0  0  0  0  0  0  0  0  0  0  0  0
    3.3573   -2.6139   -0.8084 C   0  0  0  0  0  0  0  0  0  0  0  0
    4.9176   -1.9891   -1.1498 Cl  0  0  0  0  0  0  0  0  0  0  0  0
    4.3081   -3.6906    1.5321 Cl  0  0  0  0  0  0  0  0  0  0  0  0
    1.1602   -0.7579   -3.0708 C   0  0  0  0  0  0  0  0  0  0  0  0
   -0.1199   -0.3729   -1.9638 S   0  0  0  0  0  0  0  0  0  0  0  0
    4.1152   -2.8600   -3.9636 C   0  0  0  0  0  0  0  0  0  0  0  0
    4.8807   -2.7498   -5.0858 C   0  0  0  0  0  0  0  0  0  0  0  0
    4.3160   -1.4844   -6.1539 S   0  0  0  0  0  0  0  0  0  0  0  0
    6.0479   -3.5080   -5.3942 C   0  0  0  0  0  0  0  0  0  0  0  0
    6.7716   -3.5281   -6.5477 C   0  0  0  0  0  0  0  0  0  0  0  0
    7.9206   -4.3569   -6.4768 C   0  0  0  0  0  0  0  0  0  0  0  0
    8.8708   -4.6202   -7.4773 C   0  0  0  0  0  0  0  0  0  0  0  0
    8.8014   -3.9602   -8.7702 C   0  0  0  0  0  0  0  0  0  0  0  0
    8.8110   -4.8624  -10.2555 S   0  0  0  0  0  0  0  0  0  0  0  0
    8.7088   -3.4282  -11.2176 C   0  0  0  0  0  0  0  0  0  0  0  0
    8.6135   -3.4988  -12.7016 C   0  0  0  0  0  0  0  0  0  0  0  0
    7.1601   -3.6751  -13.1483 C   0  0  0  0  0  0  0  0  0  0  0  0
    8.6676   -2.3235  -10.4199 C   0  0  0  0  0  0  0  0  0  0  0  0
    8.5694   -0.7168  -11.0147 Cl  0  0  0  0  0  0  0  0  0  0  0  0
    8.7232   -2.6201   -9.0321 C   0  0  0  0  0  0  0  0  0  0  0  0
    8.7685   -1.3979   -7.8271 Cl  0  0  0  0  0  0  0  0  0  0  0  0
    9.8834   -5.5194   -7.1649 C   0  0  0  0  0  0  0  0  0  0  0  0
   10.0069   -6.1372   -5.8974 C   0  0  0  0  0  0  0  0  0  0  0  0
    9.0559   -5.8781   -4.8990 C   0  0  0  0  0  0  0  0  0  0  0  0
    9.1102   -6.5087   -3.5900 C   0  0  0  0  0  0  0  0  0  0  0  0
    9.0201   -5.5583   -2.1370 S   0  0  0  0  0  0  0  0  0  0  0  0
    9.0718   -6.9598   -1.1229 C   0  0  0  0  0  0  0  0  0  0  0  0
    8.9713   -6.8310    0.3569 C   0  0  0  0  0  0  0  0  0  0  0  0
    7.5683   -6.3846    0.7741 C   0  0  0  0  0  0  0  0  0  0  0  0
    9.1535   -8.0893   -1.8810 C   0  0  0  0  0  0  0  0  0  0  0  0
    9.1798   -7.8379   -3.2800 C   0  0  0  0  0  0  0  0  0  0  0  0
    9.2055   -9.0992   -4.4441 Cl  0  0  0  0  0  0  0  0  0  0  0  0
    9.2174   -9.6790   -1.2357 Cl  0  0  0  0  0  0  0  0  0  0  0  0
    8.0398   -4.9852   -5.2140 C   0  0  0  0  0  0  0  0  0  0  0  0
    6.7396   -4.5329   -4.1521 S   0  0  0  0  0  0  0  0  0  0  0  0
   11.1804   -6.9426   -5.8181 C   0  0  0  0  0  0  0  0  0  0  0  0
   11.8885   -6.9488   -6.9654 C   0  0  0  0  0  0  0  0  0  0  0  0
   11.1944   -5.9758   -8.2162 S   0  0  0  0  0  0  0  0  0  0  0  0
    5.0223   -6.5374    4.8944 H   0  0  0  0  0  0  0  0  0  0  0  0
    5.2033   -4.0103    4.3056 H   0  0  0  0  0  0  0  0  0  0  0  0
    6.0492    2.0757    2.5467 H   0  0  0  0  0  0  0  0  0  0  0  0
    4.7617    1.6369    1.4078 H   0  0  0  0  0  0  0  0  0  0  0  0
    7.4933    0.2729    1.6227 H   0  0  0  0  0  0  0  0  0  0  0  0
    6.2157   -0.1850    0.4944 H   0  0  0  0  0  0  0  0  0  0  0  0
    6.9963    1.3927    0.3503 H   0  0  0  0  0  0  0  0  0  0  0  0
   -2.0569   -9.1475    5.5472 H   0  0  0  0  0  0  0  0  0  0  0  0
   -3.0247   -8.7377    6.9769 H   0  0  0  0  0  0  0  0  0  0  0  0
   -3.5643   -7.7425    4.1344 H   0  0  0  0  0  0  0  0  0  0  0  0
   -4.5312   -7.3497    5.5598 H   0  0  0  0  0  0  0  0  0  0  0  0
   -4.4677   -9.0129    4.9675 H   0  0  0  0  0  0  0  0  0  0  0  0
   -1.7243   -2.7948    5.6753 H   0  0  0  0  0  0  0  0  0  0  0  0
   -1.0669    1.5391    3.8439 H   0  0  0  0  0  0  0  0  0  0  0  0
   -0.0875    5.9725   -0.0185 H   0  0  0  0  0  0  0  0  0  0  0  0
   -1.5034    5.2758   -0.8275 H   0  0  0  0  0  0  0  0  0  0  0  0
   -2.9327    7.0928    0.0911 H   0  0  0  0  0  0  0  0  0  0  0  0
   -1.6025    7.7528   -0.8682 H   0  0  0  0  0  0  0  0  0  0  0  0
   -1.5277    7.7983    0.8979 H   0  0  0  0  0  0  0  0  0  0  0  0
   -8.4942   -3.1419    6.8179 H   0  0  0  0  0  0  0  0  0  0  0  0
   -9.0602   -2.4070    8.3299 H   0  0  0  0  0  0  0  0  0  0  0  0
   -6.2519   -3.5278    7.8475 H   0  0  0  0  0  0  0  0  0  0  0  0
   -6.8266   -2.8229    9.3607 H   0  0  0  0  0  0  0  0  0  0  0  0
   -7.5299   -4.3306    8.7682 H   0  0  0  0  0  0  0  0  0  0  0  0
   -8.0380    2.6078    5.0195 H   0  0  0  0  0  0  0  0  0  0  0  0
  -11.6966    7.3026    5.1810 H   0  0  0  0  0  0  0  0  0  0  0  0
  -11.8533    8.0461    3.5833 H   0  0  0  0  0  0  0  0  0  0  0  0
  -13.0582    5.9983    2.7708 H   0  0  0  0  0  0  0  0  0  0  0  0
  -12.9006    5.2816    4.3748 H   0  0  0  0  0  0  0  0  0  0  0  0
  -13.8851    6.7308    4.1507 H   0  0  0  0  0  0  0  0  0  0  0  0
   -9.1726    6.8223   -0.6838 H   0  0  0  0  0  0  0  0  0  0  0  0
  -10.8981    7.5661    0.9641 H   0  0  0  0  0  0  0  0  0  0  0  0
   -6.4273    6.3064   -1.0802 H   0  0  0  0  0  0  0  0  0  0  0  0
   -3.3453    9.1231   -5.6026 H   0  0  0  0  0  0  0  0  0  0  0  0
   -2.0730    8.9643   -4.3786 H   0  0  0  0  0  0  0  0  0  0  0  0
   -2.3891    7.1680   -6.8325 H   0  0  0  0  0  0  0  0  0  0  0  0
   -1.1373    7.0021   -5.5981 H   0  0  0  0  0  0  0  0  0  0  0  0
   -1.1774    8.4372   -6.6302 H   0  0  0  0  0  0  0  0  0  0  0  0
   -7.1193   -1.7681    2.9475 H   0  0  0  0  0  0  0  0  0  0  0  0
   -5.5861   -2.4537    3.5110 H   0  0  0  0  0  0  0  0  0  0  0  0
   -5.3355   -3.6679    1.3459 H   0  0  0  0  0  0  0  0  0  0  0  0
   -6.8612   -2.9813    0.7791 H   0  0  0  0  0  0  0  0  0  0  0  0
   -6.8497   -4.1037    2.1443 H   0  0  0  0  0  0  0  0  0  0  0  0
   -2.6914    0.2214   -1.2208 H   0  0  0  0  0  0  0  0  0  0  0  0
   -0.1990    1.6819   -4.9576 H   0  0  0  0  0  0  0  0  0  0  0  0
    2.2733    4.0542   -9.5924 H   0  0  0  0  0  0  0  0  0  0  0  0
    2.8009    4.7315   -8.0411 H   0  0  0  0  0  0  0  0  0  0  0  0
    0.4306    4.8101   -7.2663 H   0  0  0  0  0  0  0  0  0  0  0  0
   -0.0990    4.1573   -8.8201 H   0  0  0  0  0  0  0  0  0  0  0  0
    0.6540    5.7531   -8.7440 H   0  0  0  0  0  0  0  0  0  0  0  0
    0.0363   -4.2222    1.6166 H   0  0  0  0  0  0  0  0  0  0  0  0
    1.4463   -3.8734    2.6259 H   0  0  0  0  0  0  0  0  0  0  0  0
    0.9816   -6.3031    2.5823 H   0  0  0  0  0  0  0  0  0  0  0  0
    2.5446   -5.9618    1.8339 H   0  0  0  0  0  0  0  0  0  0  0  0
    1.1424   -6.3216    0.8219 H   0  0  0  0  0  0  0  0  0  0  0  0
    4.2920   -3.6146   -3.2193 H   0  0  0  0  0  0  0  0  0  0  0  0
    6.4813   -2.9751   -7.4223 H   0  0  0  0  0  0  0  0  0  0  0  0
    9.2096   -4.3383  -13.0628 H   0  0  0  0  0  0  0  0  0  0  0  0
    9.0154   -2.5754  -13.1229 H   0  0  0  0  0  0  0  0  0  0  0  0
    6.5569   -2.8376  -12.8073 H   0  0  0  0  0  0  0  0  0  0  0  0
    7.1061   -3.7250  -14.2324 H   0  0  0  0  0  0  0  0  0  0  0  0
    6.7473   -4.5923  -12.7349 H   0  0  0  0  0  0  0  0  0  0  0  0
    9.2044   -7.7971    0.8074 H   0  0  0  0  0  0  0  0  0  0  0  0
    9.7007   -6.0980    0.7086 H   0  0  0  0  0  0  0  0  0  0  0  0
    6.8272   -7.1094    0.4462 H   0  0  0  0  0  0  0  0  0  0  0  0
    7.3308   -5.4211    0.3295 H   0  0  0  0  0  0  0  0  0  0  0  0
    7.5108   -6.2930    1.8555 H   0  0  0  0  0  0  0  0  0  0  0  0
   11.4739   -7.4755   -4.9329 H   0  0  0  0  0  0  0  0  0  0  0  0
   12.8025   -7.4705   -7.1721 H   0  0  0  0  0  0  0  0  0  0  0  0
  1  2  2  0  0  0  0
  2  3  1  0  0  0  0
  3  4  2  0  0  0  0
  4  5  1  0  0  0  0
  5  6  1  0  0  0  0
  6  7  1  0  0  0  0
  7  8  1  0  0  0  0
  8  9  1  0  0  0  0
  7 10  2  0  0  0  0
 10 11  1  0  0  0  0
 10 12  1  0  0  0  0
 12 13  1  0  0  0  0
  4 14  1  0  0  0  0
 14 15  2  0  0  0  0
 15 16  1  0  0  0  0
 16 17  1  0  0  0  0
 17 18  1  0  0  0  0
 18 19  1  0  0  0  0
 19 20  1  0  0  0  0
 20 21  1  0  0  0  0
 19 22  2  0  0  0  0
 22 23  1  0  0  0  0
 23 24  1  0  0  0  0
 22 25  1  0  0  0  0
 16 26  2  0  0  0  0
 26 27  1  0  0  0  0
 15 28  1  0  0  0  0
 28 29  2  0  0  0  0
 29 30  1  0  0  0  0
 29 31  1  0  0  0  0
 31 32  2  0  0  0  0
 32 33  1  0  0  0  0
 33 34  2  0  0  0  0
 34 35  1  0  0  0  0
 35 36  1  0  0  0  0
 36 37  1  0  0  0  0
 37 38  1  0  0  0  0
 38 39  1  0  0  0  0
 37 40  2  0  0  0  0
 40 41  1  0  0  0  0
 40 42  1  0  0  0  0
 42 43  1  0  0  0  0
 34 44  1  0  0  0  0
 44 45  2  0  0  0  0
 45 46  1  0  0  0  0
 46 47  1  0  0  0  0
 47 48  1  0  0  0  0
 48 49  1  0  0  0  0
 49 50  1  0  0  0  0
 50 51  1  0  0  0  0
 49 52  2  0  0  0  0
 52 53  1  0  0  0  0
 53 54  1  0  0  0  0
 52 55  1  0  0  0  0
 46 56  2  0  0  0  0
 56 57  1  0  0  0  0
 45 58  1  0  0  0  0
 58 59  2  0  0  0  0
 59 60  1  0  0  0  0
 59 61  1  0  0  0  0
 61 62  1  0  0  0  0
 62 63  1  0  0  0  0
 63 64  1  0  0  0  0
 64 65  1  0  0  0  0
 63 66  2  0  0  0  0
 66 67  1  0  0  0  0
 67 68  1  0  0  0  0
 68 69  2  0  0  0  0
 69 70  1  0  0  0  0
 68 71  1  0  0  0  0
 71 72  2  0  0  0  0
 72 73  1  0  0  0  0
 73 74  2  0  0  0  0
 74 75  1  0  0  0  0
 75 76  1  0  0  0  0
 76 77  1  0  0  0  0
 77 78  1  0  0  0  0
 78 79  1  0  0  0  0
 77 80  2  0  0  0  0
 80 81  1  0  0  0  0
 80 82  1  0  0  0  0
 82 83  1  0  0  0  0
 74 84  1  0  0  0  0
 84 85  2  0  0  0  0
 85 86  1  0  0  0  0
 86 87  1  0  0  0  0
 87 88  1  0  0  0  0
 88 89  1  0  0  0  0
 89 90  1  0  0  0  0
 90 91  1  0  0  0  0
 89 92  2  0  0  0  0
 92 93  1  0  0  0  0
 93 94  1  0  0  0  0
 92 95  1  0  0  0  0
 86 96  2  0  0  0  0
 96 97  1  0  0  0  0
 85 98  1  0  0  0  0
 98 99  2  0  0  0  0
 99100  1  0  0  0  0
 99101  1  0  0  0  0
101102  2  0  0  0  0
102103  1  0  0  0  0
103104  2  0  0  0  0
104105  1  0  0  0  0
105106  1  0  0  0  0
106107  1  0  0  0  0
107108  1  0  0  0  0
108109  1  0  0  0  0
107110  2  0  0  0  0
110111  1  0  0  0  0
110112  1  0  0  0  0
112113  1  0  0  0  0
104114  1  0  0  0  0
114115  2  0  0  0  0
115116  1  0  0  0  0
116117  1  0  0  0  0
117118  1  0  0  0  0
118119  1  0  0  0  0
119120  1  0  0  0  0
120121  1  0  0  0  0
119122  2  0  0  0  0
122123  1  0  0  0  0
123124  1  0  0  0  0
122125  1  0  0  0  0
116126  2  0  0  0  0
126127  1  0  0  0  0
115128  1  0  0  0  0
128129  2  0  0  0  0
129130  1  0  0  0  0
129131  1  0  0  0  0
131132  2  0  0  0  0
132133  1  0  0  0  0
133134  2  0  0  0  0
134135  1  0  0  0  0
135136  1  0  0  0  0
136137  1  0  0  0  0
137138  1  0  0  0  0
138139  1  0  0  0  0
137140  2  0  0  0  0
140141  1  0  0  0  0
140142  1  0  0  0  0
142143  1  0  0  0  0
134144  1  0  0  0  0
144145  2  0  0  0  0
145146  1  0  0  0  0
146147  1  0  0  0  0
147148  1  0  0  0  0
148149  1  0  0  0  0
149150  1  0  0  0  0
150151  1  0  0  0  0
149152  2  0  0  0  0
152153  1  0  0  0  0
153154  1  0  0  0  0
152155  1  0  0  0  0
146156  2  0  0  0  0
156157  1  0  0  0  0
145158  1  0  0  0  0
158159  2  0  0  0  0
159160  1  0  0  0  0
 27  1  1  0  0  0  0
 57 31  1  0  0  0  0
 67 61  2  0  0  0  0
 97 71  1  0  0  0  0
127101  1  0  0  0  0
157131  1  0  0  0  0
 26  3  1  0  0  0  0
 56 33  1  0  0  0  0
 70 66  1  0  0  0  0
 96 73  1  0  0  0  0
126103  1  0  0  0  0
156133  1  0  0  0  0
 12  5  2  0  0  0  0
 30 14  1  0  0  0  0
 42 35  2  0  0  0  0
 60 44  1  0  0  0  0
 82 75  2  0  0  0  0
100 84  1  0  0  0  0
112105  2  0  0  0  0
130114  1  0  0  0  0
142135  2  0  0  0  0
160144  1  0  0  0  0
 23 17  2  0  0  0  0
 53 47  2  0  0  0  0
 93 87  2  0  0  0  0
123117  2  0  0  0  0
153147  2  0  0  0  0
  1161  1  0  0  0  0
  2162  1  0  0  0  0
  8163  1  0  0  0  0
  8164  1  0  0  0  0
  9165  1  0  0  0  0
  9166  1  0  0  0  0
  9167  1  0  0  0  0
 20168  1  0  0  0  0
 20169  1  0  0  0  0
 21170  1  0  0  0  0
 21171  1  0  0  0  0
 21172  1  0  0  0  0
 28173  1  0  0  0  0
 32174  1  0  0  0  0
 38175  1  0  0  0  0
 38176  1  0  0  0  0
 39177  1  0  0  0  0
 39178  1  0  0  0  0
 39179  1  0  0  0  0
 50180  1  0  0  0  0
 50181  1  0  0  0  0
 51182  1  0  0  0  0
 51183  1  0  0  0  0
 51184  1  0  0  0  0
 58185  1  0  0  0  0
 64186  1  0  0  0  0
 64187  1  0  0  0  0
 65188  1  0  0  0  0
 65189  1  0  0  0  0
 65190  1  0  0  0  0
 69191  1  0  0  0  0
 70192  1  0  0  0  0
 72193  1  0  0  0  0
 78194  1  0  0  0  0
 78195  1  0  0  0  0
 79196  1  0  0  0  0
 79197  1  0  0  0  0
 79198  1  0  0  0  0
 90199  1  0  0  0  0
 90200  1  0  0  0  0
 91201  1  0  0  0  0
 91202  1  0  0  0  0
 91203  1  0  0  0  0
 98204  1  0  0  0  0
102205  1  0  0  0  0
108206  1  0  0  0  0
108207  1  0  0  0  0
109208  1  0  0  0  0
109209  1  0  0  0  0
109210  1  0  0  0  0
120211  1  0  0  0  0
120212  1  0  0  0  0
121213  1  0  0  0  0
121214  1  0  0  0  0
121215  1  0  0  0  0
128216  1  0  0  0  0
132217  1  0  0  0  0
138218  1  0  0  0  0
138219  1  0  0  0  0
139220  1  0  0  0  0
139221  1  0  0  0  0
139222  1  0  0  0  0
150223  1  0  0  0  0
150224  1  0  0  0  0
151225  1  0  0  0  0
151226  1  0  0  0  0
151227  1  0  0  0  0
158228  1  0  0  0  0
159229  1  0  0  0  0
M  END
