220

C         -2.45820       -3.56750        8.40050
C         -1.59750       -2.67390        7.87300
C         -0.96440       -3.14160        6.68180
C         -0.06250       -2.46070        5.84480
C          0.50680       -1.16420        6.23190
C          0.94670       -0.95270        7.54100
C          1.45360        0.26800        7.93250
C          1.58060        1.31780        7.02670
S          2.20980        2.87080        7.58510
C          1.08450        4.06360        6.74770
C          0.61760        5.10800        7.74030
C          1.23140        1.06700        5.70410
F          1.44810        2.00660        4.75720
C          0.66870       -0.13060        5.31140
C          0.27340       -3.09940        4.65730
C         -0.16740       -4.40360        4.31740
C         -1.01970       -5.10310        5.18350
C         -1.51450       -6.44830        4.87060
C         -2.08900       -6.73720        3.63360
C         -2.59260       -7.99180        3.36990
C         -2.52580       -9.01700        4.31300
S         -3.16870      -10.58950        3.82530
C         -3.87580      -11.30430        5.35490
C         -4.93940      -10.41320        5.96410
C         -1.91440       -8.72450        5.52800
C         -1.43610       -7.46280        5.81830
F         -1.75950       -9.67480        6.47710
C         -1.41080       -4.43860        6.33770
S         -2.56340       -5.04110        7.50240
C          0.32670       -4.82500        3.05450
C          1.06080       -3.87550        2.41440
S          1.27050       -2.43480        3.39260
C          1.43980       -3.82110        1.04040
C          1.80780       -2.68530        0.38200
C          1.78260       -2.80680       -1.02800
C          1.93650       -1.79060       -1.98930
C          2.16530       -0.40740       -1.55840
C          3.14770        0.40100       -2.12910
C          3.42030        1.64890       -1.61080
C          2.73590        2.14660       -0.50110
S          3.23100        3.72090        0.12310
C          2.88830        3.62650        1.92430
C          3.67810        4.70820        2.63230
C          1.70510        1.36340        0.00580
F          0.94080        1.78690        1.04060
C          1.41510        0.11830       -0.50970
C          1.81190       -2.17470       -3.31630
C          1.48420       -3.49660       -3.71200
C          1.31600       -4.50240       -2.75040
C          0.93070       -5.87600       -3.10400
C         -0.23670       -6.13220       -3.81420
C         -0.62260       -7.42620       -4.10470
C          0.14930       -8.50860       -3.69970
S         -0.22460      -10.19940       -4.03800
C         -2.03370      -10.19810       -4.29800
C         -2.79510       -9.83220       -3.03880
C          1.32600       -8.23450       -3.00130
C          1.71560       -6.95010       -2.69300
F          2.10910       -9.25790       -2.60930
C          1.47750       -4.13200       -1.42480
S          1.18510       -5.16750       -0.04910
C          1.31640       -3.60310       -5.11920
C          1.48650       -2.42950       -5.77950
S          1.92900       -1.12040       -4.69960
C          1.29490       -2.15000       -7.18000
C          1.94710       -1.22970       -7.91940
C          1.44720       -1.25470       -9.32000
C          0.39680       -2.31110       -9.27240
C          0.30320       -2.82510       -8.03230
C         -0.64260       -3.84710       -7.59950
C         -0.84250       -5.03730       -8.19290
C         -1.87860       -5.81920       -7.46000
C         -2.26020       -4.89720       -6.35540
C         -1.54890       -3.75380       -6.44160
C         -1.61320       -2.61060       -5.56920
C         -1.28920       -1.33140       -5.87910
C         -1.28790       -0.45080       -4.76750
C         -0.85030        0.87960       -4.76110
C         -0.32270        1.48140       -5.99220
C         -1.07800        1.52230       -7.15930
C         -0.53890        1.99460       -8.34000
C          0.77670        2.44010       -8.39140
S          1.59840        2.98170       -9.85730
C          0.23460        3.54620      -10.93400
C         -0.48300        4.75350      -10.36270
C          1.51680        2.40600       -7.20920
F          2.79860        2.82030       -7.22750
C          0.98890        1.94660       -6.02340
C         -0.84920        1.52520       -3.53870
C         -1.29900        0.91240       -2.34200
C         -1.71120       -0.43650       -2.34260
C         -2.13640       -1.08530       -1.09530
C         -2.97960       -0.42120       -0.20130
C         -3.30920       -0.98110        1.01680
C         -2.84890       -2.24330        1.36390
S         -3.23270       -2.94680        2.95660
C         -4.43090       -4.22900        2.43360
C         -5.72830       -3.61800        1.94420
C         -2.07020       -2.92830        0.44030
C         -1.69830       -2.36640       -0.76430
F         -1.66760       -4.18320        0.72150
C         -1.66420       -1.09600       -3.56510
S         -2.02950       -2.77810       -3.86900
C         -1.18970        1.80130       -1.24320
C         -0.70620        3.03420       -1.57280
S         -0.33280        3.16740       -3.27450
C         -0.43490        4.10750       -0.67010
C         -0.78600        4.17190        0.64680
C         -0.21890        5.27520        1.33200
C         -0.32310        5.59740        2.69740
C         -1.06990        4.75770        3.64110
C         -0.92740        3.37250        3.64770
C         -1.60260        2.58480        4.56040
C         -2.44200        3.15090        5.51230
S         -3.31420        2.27470        6.76730
C         -2.86760        0.52270        6.50780
C         -3.62080       -0.12200        5.36050
C         -2.58610        4.53980        5.48740
F         -3.40140        5.12800        6.38700
C         -1.92500        5.33530        4.58000
C          0.35980        6.73330        3.11460
C          1.12350        7.54640        2.24280
C          1.21370        7.23160        0.87960
C          1.98730        8.06020       -0.05340
C          2.94940        7.49570       -0.88450
C          3.67100        8.27310       -1.77010
C          3.45490        9.64340       -1.85600
S          4.27690       10.75130       -2.95180
C          5.63880        9.76340       -3.66040
C          6.75760        9.52410       -2.66410
C          2.48140       10.19340       -1.01940
C          1.75730        9.43250       -0.13060
F          2.23650       11.51900       -1.08210
C          0.54770        6.09010        0.46060
S          0.53580        5.47360       -1.16890
C          1.78830        8.59650        2.94500
C          1.53970        8.58270        4.26910
S          0.48170        7.30500        4.76030
H         -3.05870       -3.46170        9.28290
H         -1.42770       -1.69950        8.29280
H          0.89940       -1.76040        8.25460
H          1.76510        0.43060        8.95240
H          0.24160        3.49670        6.36030
H          1.62670        4.51480        5.91730
H         -0.05200        5.80620        7.24300
H          0.08470        4.63830        8.56380
H          1.46280        5.66080        8.14310
H          0.36660       -0.24360        4.28230
H         -2.16380       -5.96230        2.88870
H         -3.05160       -8.20640        2.41710
H         -4.30270      -12.24670        5.01100
H         -3.07000      -11.51540        6.05410
H         -5.38820      -10.91340        6.81980
H         -4.51130       -9.47210        6.30390
H         -5.71880      -10.19610        5.23650
H         -0.97230       -7.29640        6.77800
H          0.11080       -5.78030        2.61240
H          2.05750       -1.78110        0.90590
H          3.73190        0.03070       -2.95690
H          4.19960        2.25810       -2.04160
H          3.18600        2.63440        2.26010
H          1.82170        3.76680        2.08350
H          3.38410        5.69310        2.27480
H          4.74510        4.58160        2.46350
H          3.48340        4.65230        3.70100
H          0.58530       -0.42950       -0.09070
H         -0.86280       -5.31040       -4.12540
H         -1.53840       -7.58650       -4.65090
H         -2.24500      -11.22490       -4.59620
H         -2.27170       -9.54040       -5.13350
H         -2.55110       -8.82240       -2.71480
H         -2.54330      -10.51990       -2.23510
H         -3.86620       -9.88980       -3.22390
H          2.63140       -6.79470       -2.14460
H          1.07690       -4.52740       -5.61300
H          2.72940       -0.57600       -7.58040
H          1.04390       -0.28530       -9.62340
H          2.24310       -1.49650      -10.02850
H         -0.20580       -2.58270      -10.11970
H         -0.32150       -5.41400       -9.05340
H         -2.73230       -6.07050       -8.09430
H         -1.47270       -6.76280       -7.08580
H         -3.01700       -5.12210       -5.62560
H         -1.02610       -1.01740       -6.87130
H         -2.10370        1.18500       -7.14320
H         -1.15000        1.99800       -9.22860
H          0.73840        3.79720      -11.86720
H         -0.44050        2.71140      -11.11960
H         -1.25280        5.08830      -11.05520
H         -0.95200        4.51410       -9.41030
H          0.22020        5.56750      -10.20350
H          1.60790        1.92510       -5.14050
H         -3.39710        0.53550       -0.47430
H         -3.93860       -0.44820        1.71310
H         -4.58580       -4.83550        3.32540
H         -3.95770       -4.83630        1.66310
H         -5.55550       -3.00250        1.06250
H         -6.17250       -2.99740        2.71930
H         -6.43090       -4.40690        1.68340
H         -1.05280       -2.92580       -1.42250
H         -1.41780        1.52990       -0.23020
H         -1.42430        3.44870        1.11740
H         -0.24890        2.89560        2.95980
H         -1.45330        1.51840        4.53180
H         -1.78690        0.45660        6.38620
H         -3.14030        0.05190        7.45230
H         -3.31300       -1.16090        5.25540
H         -3.42410        0.39000        4.42170
H         -4.69140       -0.09050        5.54880
H         -2.09560        6.39980        4.60260
H          3.15260        6.43720       -0.82820
H          4.40220        7.79270       -2.39890
H          5.22640        8.83730       -4.05810
H          5.98770       10.37340       -4.49370
H          7.56150        8.96410       -3.13820
H          7.15490       10.47330       -2.31240
H          6.40270        8.96150       -1.80330
H          1.00430        9.90730        0.47920
H          2.43490        9.30870        2.46560
H          1.91130        9.25360        5.01860
