
  xtb     03012219593D
 energy: -225.006582298965 gnorm: 0.000359712127 xtb: 6.4.1 (unknown)
109128  0     0  0            999 V2000
    8.3196    1.4491    2.2953 C   0  0  0  0  0  0  0  0  0  0  0  0
    9.8228    2.2788    2.1720 S   0  0  0  0  0  0  0  0  0  0  0  0
    9.0717    3.7074    1.5660 C   0  0  0  0  0  0  0  0  0  0  0  0
    7.7301    3.5334    1.4714 C   0  0  0  0  0  0  0  0  0  0  0  0
    7.2832    2.2338    1.8902 C   0  0  0  0  0  0  0  0  0  0  0  0
    5.8635    2.1099    1.7557 C   0  0  0  0  0  0  0  0  0  0  0  0
    5.3086    3.2779    1.2526 C   0  0  0  0  0  0  0  0  0  0  0  0
    6.4239    4.5759    0.9297 S   0  0  0  0  0  0  0  0  0  0  0  0
    3.6109    3.1768    1.0247 S   0  0  0  0  0  0  0  0  0  0  0  0
    3.6336    1.5233    1.6250 C   0  0  0  0  0  0  0  0  0  0  0  0
    4.8960    1.1122    1.9664 C   0  0  0  0  0  0  0  0  0  0  0  0
    2.4199    0.7827    1.6578 C   0  0  0  0  0  0  0  0  0  0  0  0
    1.1748    1.2373    1.3372 C   0  0  0  0  0  0  0  0  0  0  0  0
    0.1730    0.2406    1.3712 C   0  0  0  0  0  0  0  0  0  0  0  0
   -1.1784    0.3380    0.9791 C   0  0  0  0  0  0  0  0  0  0  0  0
   -1.7176    1.4834    0.2666 C   0  0  0  0  0  0  0  0  0  0  0  0
   -3.4095    1.8977    0.4463 S   0  0  0  0  0  0  0  0  0  0  0  0
   -3.3372    3.1711   -0.7180 C   0  0  0  0  0  0  0  0  0  0  0  0
   -4.5341    3.9869   -1.0578 C   0  0  0  0  0  0  0  0  0  0  0  0
   -4.6644    5.1931   -0.1255 C   0  0  0  0  0  0  0  0  0  0  0  0
   -2.0669    3.2879   -1.1919 C   0  0  0  0  0  0  0  0  0  0  0  0
   -1.5855    4.4458   -2.3654 Cl  0  0  0  0  0  0  0  0  0  0  0  0
   -1.1549    2.3410   -0.6517 C   0  0  0  0  0  0  0  0  0  0  0  0
    0.4423    2.3258   -1.2789 Cl  0  0  0  0  0  0  0  0  0  0  0  0
   -1.9693   -0.7727    1.2855 C   0  0  0  0  0  0  0  0  0  0  0  0
   -1.4856   -1.9620    1.8830 C   0  0  0  0  0  0  0  0  0  0  0  0
   -0.1200   -2.0712    2.2076 C   0  0  0  0  0  0  0  0  0  0  0  0
    0.4155   -3.2342    2.8953 C   0  0  0  0  0  0  0  0  0  0  0  0
    0.1439   -4.8589    2.3378 S   0  0  0  0  0  0  0  0  0  0  0  0
    1.0637   -5.5511    3.6267 C   0  0  0  0  0  0  0  0  0  0  0  0
    1.3110   -7.0171    3.6864 C   0  0  0  0  0  0  0  0  0  0  0  0
    2.4455   -7.4108    2.7370 C   0  0  0  0  0  0  0  0  0  0  0  0
    1.5348   -4.5706    4.4464 C   0  0  0  0  0  0  0  0  0  0  0  0
    1.1607   -3.2603    4.0442 C   0  0  0  0  0  0  0  0  0  0  0  0
    1.5341   -1.8847    4.9948 Cl  0  0  0  0  0  0  0  0  0  0  0  0
    2.4822   -4.8656    5.8461 Cl  0  0  0  0  0  0  0  0  0  0  0  0
    0.6782   -0.9773    1.8994 C   0  0  0  0  0  0  0  0  0  0  0  0
    2.4057   -0.9051    2.1133 S   0  0  0  0  0  0  0  0  0  0  0  0
   -2.5069   -2.9289    2.0652 C   0  0  0  0  0  0  0  0  0  0  0  0
   -3.7302   -2.5338    1.6036 C   0  0  0  0  0  0  0  0  0  0  0  0
   -3.6726   -0.8972    0.9958 S   0  0  0  0  0  0  0  0  0  0  0  0
   -4.9394   -3.2903    1.5595 C   0  0  0  0  0  0  0  0  0  0  0  0
   -5.0577   -4.7322    2.5435 S   0  0  0  0  0  0  0  0  0  0  0  0
   -6.6050   -5.1385    1.9137 C   0  0  0  0  0  0  0  0  0  0  0  0
   -7.0064   -4.2189    0.9997 C   0  0  0  0  0  0  0  0  0  0  0  0
   -6.0831   -3.1403    0.7951 C   0  0  0  0  0  0  0  0  0  0  0  0
   -6.5600   -2.2712   -0.2385 C   0  0  0  0  0  0  0  0  0  0  0  0
   -7.7458   -2.7356   -0.7949 C   0  0  0  0  0  0  0  0  0  0  0  0
   -8.4117   -4.1611   -0.0497 S   0  0  0  0  0  0  0  0  0  0  0  0
   -8.2787   -1.8191   -2.1530 S   0  0  0  0  0  0  0  0  0  0  0  0
   -6.8797   -0.7725   -1.9845 C   0  0  0  0  0  0  0  0  0  0  0  0
   -6.1151   -1.1171   -0.9057 C   0  0  0  0  0  0  0  0  0  0  0  0
   -6.4614    0.2542   -2.8895 C   0  0  0  0  0  0  0  0  0  0  0  0
   -7.5015    1.4066   -3.6772 S   0  0  0  0  0  0  0  0  0  0  0  0
   -6.1658    2.2802   -4.3324 C   0  0  0  0  0  0  0  0  0  0  0  0
   -4.9883    1.7084   -3.9697 C   0  0  0  0  0  0  0  0  0  0  0  0
   -5.1377    0.5398   -3.1591 C   0  0  0  0  0  0  0  0  0  0  0  0
   -3.8680   -0.0572   -2.8716 C   0  0  0  0  0  0  0  0  0  0  0  0
   -2.8308    0.6996   -3.3959 C   0  0  0  0  0  0  0  0  0  0  0  0
   -3.3105    2.1122   -4.2973 S   0  0  0  0  0  0  0  0  0  0  0  0
   -1.2808    0.0259   -3.0759 S   0  0  0  0  0  0  0  0  0  0  0  0
   -2.0224   -1.3234   -2.2367 C   0  0  0  0  0  0  0  0  0  0  0  0
   -3.3906   -1.2193   -2.2391 C   0  0  0  0  0  0  0  0  0  0  0  0
   -1.3006   -2.4204   -1.6768 C   0  0  0  0  0  0  0  0  0  0  0  0
   -2.2668   -3.8249   -1.2497 S   0  0  0  0  0  0  0  0  0  0  0  0
   -0.8982   -4.7184   -0.7290 C   0  0  0  0  0  0  0  0  0  0  0  0
    0.2292   -3.9791   -0.8669 C   0  0  0  0  0  0  0  0  0  0  0  0
    0.0316   -2.6596   -1.4013 C   0  0  0  0  0  0  0  0  0  0  0  0
    1.2871   -1.9711   -1.4873 C   0  0  0  0  0  0  0  0  0  0  0  0
    2.3301   -2.7761   -1.0460 C   0  0  0  0  0  0  0  0  0  0  0  0
    1.8970   -4.3672   -0.5051 S   0  0  0  0  0  0  0  0  0  0  0  0
    3.8655   -2.0194   -1.1189 S   0  0  0  0  0  0  0  0  0  0  0  0
    3.1145   -0.5616   -1.7555 C   0  0  0  0  0  0  0  0  0  0  0  0
    1.7579   -0.7034   -1.8843 C   0  0  0  0  0  0  0  0  0  0  0  0
    3.9366    0.5816   -1.9865 C   0  0  0  0  0  0  0  0  0  0  0  0
    5.5225    0.6188   -1.2448 S   0  0  0  0  0  0  0  0  0  0  0  0
    5.8139    2.2360   -1.7496 C   0  0  0  0  0  0  0  0  0  0  0  0
    4.7588    2.7095   -2.4589 C   0  0  0  0  0  0  0  0  0  0  0  0
    3.6902    1.7692   -2.6477 C   0  0  0  0  0  0  0  0  0  0  0  0
    2.6797    2.3267   -3.4963 C   0  0  0  0  0  0  0  0  0  0  0  0
    2.9585    3.6510   -3.7989 C   0  0  0  0  0  0  0  0  0  0  0  0
    4.4582    4.2791   -3.1740 S   0  0  0  0  0  0  0  0  0  0  0  0
    1.7802    4.3837   -4.8108 S   0  0  0  0  0  0  0  0  0  0  0  0
    0.9191    2.8816   -4.8779 C   0  0  0  0  0  0  0  0  0  0  0  0
    1.5027    1.8934   -4.1595 C   0  0  0  0  0  0  0  0  0  0  0  0
    8.2953    0.4407    2.6540 H   0  0  0  0  0  0  0  0  0  0  0  0
    9.6632    4.5661    1.3247 H   0  0  0  0  0  0  0  0  0  0  0  0
    5.1096    0.1276    2.3407 H   0  0  0  0  0  0  0  0  0  0  0  0
    0.9865    2.2736    1.1337 H   0  0  0  0  0  0  0  0  0  0  0  0
   -4.4373    4.3319   -2.0895 H   0  0  0  0  0  0  0  0  0  0  0  0
   -5.4277    3.3648   -0.9784 H   0  0  0  0  0  0  0  0  0  0  0  0
   -3.7827    5.8241   -0.2016 H   0  0  0  0  0  0  0  0  0  0  0  0
   -4.7692    4.8631    0.9052 H   0  0  0  0  0  0  0  0  0  0  0  0
   -5.5379    5.7799   -0.3956 H   0  0  0  0  0  0  0  0  0  0  0  0
    0.4011   -7.5514    3.4065 H   0  0  0  0  0  0  0  0  0  0  0  0
    1.5757   -7.2875    4.7099 H   0  0  0  0  0  0  0  0  0  0  0  0
    2.1975   -7.1306    1.7156 H   0  0  0  0  0  0  0  0  0  0  0  0
    3.3652   -6.9053    3.0197 H   0  0  0  0  0  0  0  0  0  0  0  0
    2.6107   -8.4840    2.7765 H   0  0  0  0  0  0  0  0  0  0  0  0
   -2.3368   -3.8997    2.4939 H   0  0  0  0  0  0  0  0  0  0  0  0
   -7.1059   -6.0249    2.2443 H   0  0  0  0  0  0  0  0  0  0  0  0
   -5.2872   -0.5110   -0.6092 H   0  0  0  0  0  0  0  0  0  0  0  0
   -6.3414    3.1444   -4.9391 H   0  0  0  0  0  0  0  0  0  0  0  0
   -4.0219   -1.9763   -1.8136 H   0  0  0  0  0  0  0  0  0  0  0  0
   -1.0114   -5.7151   -0.3575 H   0  0  0  0  0  0  0  0  0  0  0  0
    1.1183    0.0879   -2.2110 H   0  0  0  0  0  0  0  0  0  0  0  0
    6.7327    2.7243   -1.4977 H   0  0  0  0  0  0  0  0  0  0  0  0
    0.0191    2.8308   -5.4576 H   0  0  0  0  0  0  0  0  0  0  0  0
    1.1266    0.8888   -4.1336 H   0  0  0  0  0  0  0  0  0  0  0  0
  1  2  1  0  0  0  0
  2  3  1  0  0  0  0
  3  4  2  0  0  0  0
  4  5  1  0  0  0  0
  5  6  1  0  0  0  0
  6  7  2  0  0  0  0
  7  8  1  0  0  0  0
  7  9  1  0  0  0  0
  9 10  1  0  0  0  0
 10 11  2  0  0  0  0
 10 12  1  0  0  0  0
 12 13  2  0  0  0  0
 13 14  1  0  0  0  0
 14 15  2  0  0  0  0
 15 16  1  0  0  0  0
 16 17  1  0  0  0  0
 17 18  1  0  0  0  0
 18 19  1  0  0  0  0
 19 20  1  0  0  0  0
 18 21  2  0  0  0  0
 21 22  1  0  0  0  0
 21 23  1  0  0  0  0
 23 24  1  0  0  0  0
 15 25  1  0  0  0  0
 25 26  2  0  0  0  0
 26 27  1  0  0  0  0
 27 28  1  0  0  0  0
 28 29  1  0  0  0  0
 29 30  1  0  0  0  0
 30 31  1  0  0  0  0
 31 32  1  0  0  0  0
 30 33  2  0  0  0  0
 33 34  1  0  0  0  0
 34 35  1  0  0  0  0
 33 36  1  0  0  0  0
 27 37  2  0  0  0  0
 37 38  1  0  0  0  0
 26 39  1  0  0  0  0
 39 40  2  0  0  0  0
 40 41  1  0  0  0  0
 40 42  1  0  0  0  0
 42 43  1  0  0  0  0
 43 44  1  0  0  0  0
 44 45  2  0  0  0  0
 45 46  1  0  0  0  0
 46 47  1  0  0  0  0
 47 48  2  0  0  0  0
 48 49  1  0  0  0  0
 48 50  1  0  0  0  0
 50 51  1  0  0  0  0
 51 52  2  0  0  0  0
 51 53  1  0  0  0  0
 53 54  1  0  0  0  0
 54 55  1  0  0  0  0
 55 56  2  0  0  0  0
 56 57  1  0  0  0  0
 57 58  1  0  0  0  0
 58 59  2  0  0  0  0
 59 60  1  0  0  0  0
 59 61  1  0  0  0  0
 61 62  1  0  0  0  0
 62 63  2  0  0  0  0
 62 64  1  0  0  0  0
 64 65  1  0  0  0  0
 65 66  1  0  0  0  0
 66 67  2  0  0  0  0
 67 68  1  0  0  0  0
 68 69  1  0  0  0  0
 69 70  2  0  0  0  0
 70 71  1  0  0  0  0
 70 72  1  0  0  0  0
 72 73  1  0  0  0  0
 73 74  2  0  0  0  0
 73 75  1  0  0  0  0
 75 76  1  0  0  0  0
 76 77  1  0  0  0  0
 77 78  2  0  0  0  0
 78 79  1  0  0  0  0
 79 80  1  0  0  0  0
 80 81  2  0  0  0  0
 81 82  1  0  0  0  0
 81 83  1  0  0  0  0
 83 84  1  0  0  0  0
 84 85  2  0  0  0  0
  5  1  2  0  0  0  0
 11  6  1  0  0  0  0
 38 12  1  0  0  0  0
 46 42  2  0  0  0  0
 52 47  1  0  0  0  0
 57 53  2  0  0  0  0
 63 58  1  0  0  0  0
 68 64  2  0  0  0  0
 74 69  1  0  0  0  0
 79 75  2  0  0  0  0
 85 80  1  0  0  0  0
  8  4  1  0  0  0  0
 37 14  1  0  0  0  0
 49 45  1  0  0  0  0
 60 56  1  0  0  0  0
 71 67  1  0  0  0  0
 82 78  1  0  0  0  0
 23 16  2  0  0  0  0
 41 25  1  0  0  0  0
 34 28  2  0  0  0  0
  1 86  1  0  0  0  0
  3 87  1  0  0  0  0
 11 88  1  0  0  0  0
 13 89  1  0  0  0  0
 19 90  1  0  0  0  0
 19 91  1  0  0  0  0
 20 92  1  0  0  0  0
 20 93  1  0  0  0  0
 20 94  1  0  0  0  0
 31 95  1  0  0  0  0
 31 96  1  0  0  0  0
 32 97  1  0  0  0  0
 32 98  1  0  0  0  0
 32 99  1  0  0  0  0
 39100  1  0  0  0  0
 44101  1  0  0  0  0
 52102  1  0  0  0  0
 55103  1  0  0  0  0
 63104  1  0  0  0  0
 66105  1  0  0  0  0
 74106  1  0  0  0  0
 77107  1  0  0  0  0
 84108  1  0  0  0  0
 85109  1  0  0  0  0
M  END
