167

C         11.09010       -0.84530        2.00390
S         12.29740       -1.84870        1.29900
C         12.86120       -0.58140        0.27580
C         12.14100        0.54910        0.48110
C         11.11370        0.40930        1.47520
C         10.39990        1.63810        1.65260
C         10.90190        2.63140        0.82680
S         12.22120        2.16010       -0.21190
S         10.10610        4.14110        1.02720
C          9.05370        3.42460        2.23930
C          9.34140        2.10260        2.45590
C          8.04770        4.20540        2.89250
S          8.33100        5.86540        3.35410
C          6.79920        5.99480        4.13270
C          6.11110        4.82940        4.03350
C          6.80190        3.80120        3.31520
C          5.98710        2.63470        3.17530
C          4.77090        2.79090        3.82740
S          4.52370        4.33410        4.59840
S          3.74460        1.42150        3.68410
C          4.95150        0.62430        2.69310
C          6.07190        1.39480        2.51790
C          4.73320       -0.67380        2.13920
C          5.38570       -1.20260        1.06450
C          4.99030       -2.52630        0.75900
C          5.47030       -3.35870       -0.26710
C          6.57690       -2.93690       -1.10690
S          6.48960       -3.01710       -2.84190
C          8.07030       -2.34030       -3.03290
C          8.63710       -2.06850       -4.38240
C          8.21600       -0.68550       -4.88550
C          8.62020       -2.06920       -1.81540
Cl        10.17430       -1.37170       -1.59910
C          7.78220       -2.41430       -0.72290
Cl         8.29760       -2.26380        0.90620
C          4.83930       -4.58610       -0.42380
C          3.79410       -5.03170        0.42230
C          3.36690       -4.22990        1.49540
C          2.39410       -4.68100        2.48040
S          2.83100       -4.65580        4.16710
C          1.29680       -5.28060        4.66120
C          0.96730       -5.46970        6.10050
C          0.47910       -4.15930        6.72280
C          0.49930       -5.48050        3.57550
C          1.11990       -5.15200        2.33920
Cl         0.27930       -5.28850        0.85230
Cl        -1.10830       -6.07790        3.66190
C          3.97430       -2.98780        1.62920
S          3.56960       -1.78620        2.82190
C          3.34120       -6.32540        0.05180
C          4.00350       -6.85280       -1.01230
S          5.25730       -5.78830       -1.61320
C          3.66330       -8.09050       -1.66620
S          4.73420       -9.44760       -1.87900
C          3.48290      -10.42750       -2.55320
C          2.31390       -9.74080       -2.62350
C          2.41320       -8.40040       -2.13580
C          1.18590       -7.69120       -2.29100
C          0.19170       -8.51110       -2.80250
S          0.69340      -10.14140       -3.17830
S         -1.31420       -7.69720       -2.98100
C         -0.58050       -6.21080       -2.39400
C          0.74410       -6.37490       -2.08800
C         -1.33640       -5.01420       -2.23000
C         -2.68830       -4.84510       -2.22890
C         -3.09010       -3.51690       -1.94120
C         -4.39760       -3.00570       -1.87020
C         -5.55230       -3.84210       -2.15300
S         -5.66530       -4.74120       -3.63850
C         -7.22570       -5.37050       -3.23310
C         -7.92520       -6.33010       -4.13080
C         -7.37270       -7.74650       -3.95370
C         -7.61660       -4.91050       -2.01160
Cl        -9.10470       -5.32430       -1.26410
C         -6.67550       -4.03930       -1.39900
Cl        -6.91490       -3.38990        0.16860
C         -4.53130       -1.65990       -1.55210
C         -3.42050       -0.81720       -1.30170
C         -2.10910       -1.32190       -1.38400
C         -0.96660       -0.43830       -1.22010
S         -0.91930        1.06620       -2.09970
C          0.61330        1.50880       -1.43350
C          1.22440        2.82950       -1.74740
C          0.39950        3.96880       -1.14440
C          1.05650        0.53280       -0.59330
C          0.17030       -0.57320       -0.47100
Cl         0.49750       -1.87060        0.60000
Cl         2.54990        0.60430        0.24950
C         -1.97980       -2.66820       -1.69870
S         -0.48060       -3.52230       -1.89720
C         -3.82460        0.50390       -0.99980
C         -5.17250        0.69460       -1.06810
S         -6.02960       -0.77400       -1.47720
C         -5.85580        1.92800       -0.86170
C         -7.18800        2.19680       -0.95240
C         -7.50540        3.55850       -0.71280
C         -8.76920        4.17020       -0.70340
C         -9.98250        3.40500       -0.94120
S        -10.35600        1.99230        0.00290
C        -11.85070        1.73350       -0.82880
C        -12.76610        0.62400       -0.44500
C        -13.66770        1.03790        0.72040
C        -12.03710        2.69540       -1.77600
Cl       -13.40650        2.76990       -2.80710
C        -10.98000        3.64240       -1.84540
Cl       -10.94450        4.89400       -3.01510
C         -8.80880        5.53290       -0.42770
C         -7.64890        6.30580       -0.17870
C         -6.38360        5.69990       -0.21050
C         -5.15910        6.44190        0.04790
S         -4.95490        7.37020        1.50500
C         -3.33300        7.81170        1.09390
C         -2.49290        8.62560        2.01500
C         -1.74570        7.72980        3.00610
C         -2.98370        7.26060       -0.10210
C         -4.01550        6.48910       -0.70090
Cl        -3.83750        5.77680       -2.24990
Cl        -1.44820        7.46900       -0.83760
C         -6.34620        4.33510       -0.46780
S         -4.91260        3.35390       -0.48030
C         -7.97270        7.66830        0.08510
C         -9.30090        7.90250        0.06770
S        -10.24810        6.50070       -0.28380
H         10.44420       -1.24230        2.76000
H         13.67240       -0.75570       -0.40040
H          8.83900        1.50320        3.19240
H          6.51420        6.91240        4.60430
H          6.91770        1.07770        1.93790
H          6.09480       -0.64550        0.48200
H          9.72600       -2.11890       -4.32270
H          8.28830       -2.83130       -5.08020
H          8.63440       -0.50410       -5.87170
H          7.13230       -0.62090       -4.94780
H          8.57260        0.08670       -4.20850
H          0.18800       -6.22930        6.18510
H          1.85470       -5.81630        6.63280
H         -0.41500       -3.81010        6.21260
H          0.24520       -4.30940        7.77330
H          1.24710       -3.39400        6.64010
H          2.55500       -6.84980        0.56260
H          3.69740      -11.43470       -2.84590
H          1.37000       -5.57780       -1.73180
H         -3.37260       -5.65540       -2.40340
H         -8.99000       -6.31820       -3.89210
H         -7.79500       -6.01810       -5.16860
H         -7.89870       -8.43660       -4.60760
H         -6.31340       -7.77170       -4.19840
H         -7.50040       -8.07520       -2.92530
H          1.27780        2.95930       -2.83070
H          2.23840        2.84920       -1.34470
H          0.85740        4.92640       -1.37710
H         -0.61050        3.95920       -1.54780
H          0.34210        3.86410       -0.06350
H         -3.14960        1.29740       -0.73690
H         -7.91550        1.44190       -1.18950
H        -12.17760       -0.24880       -0.15710
H        -13.38100        0.36340       -1.30850
H        -14.26830        1.90080        0.44390
H        -13.06670        1.29620        1.58910
H        -14.33280        0.22070        0.98600
H         -1.77270        9.19390        1.42310
H         -3.12720        9.32480        2.56220
H         -2.45120        7.15700        3.60330
H         -1.13650        8.33600        3.67090
H         -1.09850        7.03750        2.47370
H         -7.23600        8.42580        0.27910
H         -9.80720        8.83270        0.23670
