138

C         -0.15410        3.37200        5.15810
S         -0.73890        4.93890        5.56770
C         -0.45860        5.54200        3.97710
C          0.06100        4.57090        3.18530
C          0.24070        3.31330        3.85600
C          0.76900        2.32790        2.96330
C          0.96850        2.85040        1.69500
S          0.55350        4.53190        1.49940
S          1.57410        1.69550        0.57620
C          1.53340        0.46490        1.83010
C          1.11110        0.96660        3.03400
C          1.92500       -0.88220        1.56910
S          3.14530       -1.26740        0.38420
C          3.16670       -2.92930        0.82940
C          2.26960       -3.17200        1.81740
C          1.52730       -2.02140        2.23690
C          0.54170       -2.37720        3.21240
C          0.64550       -3.71970        3.54940
S          1.85400       -4.63410        2.69280
S         -0.54270       -4.22730        4.67780
C         -1.26530       -2.62810        4.65510
C         -0.55760       -1.77030        3.84850
C         -2.45190       -2.29060        5.37240
S         -2.84200       -0.58530        5.47880
C         -4.32730       -0.88120        6.29110
C         -4.50760       -2.21230        6.47430
C         -3.44530       -3.03940        5.97320
C         -3.76190       -4.42200        6.17230
C         -5.01270       -4.57950        6.75700
S         -5.84690       -3.10860        7.16430
S         -5.49430       -6.22110        6.92760
C         -3.98350       -6.73130        6.19510
C         -3.17440       -5.66930        5.89360
C         -3.65900       -8.09000        5.89240
S         -4.09550       -9.45050        6.88990
C         -3.18890      -10.55190        5.92090
C         -2.59500       -9.90630        4.88440
C         -2.87470       -8.50450        4.83670
C         -2.27840       -7.89550        3.68830
C         -1.51110       -8.80990        2.97850
S         -1.53240      -10.44120        3.59100
S         -0.72930       -8.12200        1.60880
C         -1.47820       -6.57390        1.96440
C         -2.27640       -6.62990        3.07580
C         -1.21980       -5.41590        1.17800
C         -0.37140       -5.26470        0.12340
C         -0.33430       -3.94520       -0.39110
C          0.45660       -3.46030       -1.44940
C          1.21370       -4.37000       -2.29180
S          0.42120       -5.80130       -2.90100
C          1.79780       -6.27860       -3.82990
C          1.76980       -7.49230       -4.69100
C          1.17590       -7.17340       -6.06530
C          2.80170       -5.37100       -3.67670
Cl         4.33190       -5.50270       -4.44260
C          2.47830       -4.29080       -2.81050
Cl         3.64040       -3.08620       -2.44240
C          0.38150       -2.09510       -1.70370
C         -0.47320       -1.21730       -0.98750
C         -1.29410       -1.70820        0.05100
C         -2.18200       -0.82300        0.78660
S         -1.62680        0.74360        1.31260
C         -3.14460        1.16650        2.01590
C         -3.36730        2.52050        2.59930
C         -3.44820        2.50250        4.12490
C         -4.01810        0.12960        1.87950
C         -3.48580       -0.98820        1.17900
Cl        -4.48420       -2.31680        0.76240
Cl        -5.63060        0.16170        2.46360
C         -1.19060       -3.06890        0.32430
S         -2.03530       -3.91930        1.58290
C         -0.41710        0.09770       -1.50740
C          0.44940        0.24100       -2.55200
S          1.22960       -1.26020       -2.96940
C          0.76030        1.44170       -3.25790
C          0.15050        2.65510       -3.13030
C          0.70620        3.65660       -3.96350
C          0.32560        5.00620       -4.06960
C         -0.71770        5.55080       -3.21780
S         -0.64030        5.32210       -1.49490
C         -2.10200        6.20670       -1.22810
C         -2.62050        6.43300        0.14910
C         -1.83490        7.53920        0.85640
C         -2.60470        6.65310       -2.41340
Cl        -4.04850        7.56890       -2.55700
C         -1.82680        6.28040       -3.54410
Cl        -2.31360        6.64240       -5.14610
C          1.02060        5.78590       -4.98690
C          2.07520        5.27830       -5.78540
C          2.47720        3.94080       -5.65230
C          3.61650        3.40820       -6.38180
S          3.49900        1.94160       -7.30650
C          5.16910        1.99860       -7.75470
C          5.78530        0.90960       -8.56110
C          6.15200       -0.27960       -7.66970
C          5.77090        3.09120       -7.20520
C          4.89330        3.89540       -6.42960
Cl         5.42910        5.28370       -5.57390
Cl         7.42910        3.48030       -7.41640
C          1.76300        3.15290       -4.75870
S          2.06130        1.47170       -4.42650
C          2.60380        6.27710       -6.65410
C          2.01720        7.47940       -6.48620
S          0.77570        7.48310       -5.28340
H         -0.13630        2.60040        5.90050
H         -0.68670        6.56020        3.74060
H          1.07850        0.38600        3.93590
H          3.83310       -3.60950        0.34130
H         -0.86020       -0.75230        3.68630
H         -4.96440       -0.06680        6.56780
H         -2.17750       -5.80560        5.52890
H         -3.15510      -11.58930        6.18260
H         -2.85170       -5.78720        3.41070
H          0.23060       -6.07320       -0.24840
H          1.17170       -8.26630       -4.20730
H          2.79050       -7.86020       -4.81060
H          0.15800       -6.80570       -5.96020
H          1.77050       -6.41320       -6.56550
H          1.16250       -8.06780       -6.68210
H         -4.30240        2.92010        2.19780
H         -2.54910        3.17200        2.28620
H         -3.61350        3.51010        4.49760
H         -4.26850        1.87000        4.45090
H         -2.52360        2.12110        4.54970
H         -0.99940        0.91560       -1.13020
H         -0.68000        2.82470       -2.47200
H         -2.53610        5.50900        0.72480
H         -3.67350        6.71150        0.08350
H         -0.78930        7.25220        0.95250
H         -1.89280        8.46540        0.28930
H         -2.24670        7.71250        1.84720
H          5.08280        0.58360       -9.33010
H          6.68310        1.29620       -9.04650
H          5.26390       -0.67030       -7.17850
H          6.59920       -1.07010       -8.26640
H          6.86360        0.02660       -6.90700
H          3.37890        6.08680       -7.37310
H          2.22730        8.39330       -7.00660
