
  xtb     03012210423D
 energy: -225.010326287847 gnorm: 0.000185919444 xtb: 6.4.1 (unknown)
109128  0     0  0            999 V2000
    3.4341   -5.7289    5.3772 C   0  0  0  0  0  0  0  0  0  0  0  0
    3.3143   -6.8100    6.7105 S   0  0  0  0  0  0  0  0  0  0  0  0
    2.1720   -5.8056    7.5210 C   0  0  0  0  0  0  0  0  0  0  0  0
    1.9088   -4.6981    6.7844 C   0  0  0  0  0  0  0  0  0  0  0  0
    2.6291   -4.6433    5.5423 C   0  0  0  0  0  0  0  0  0  0  0  0
    2.2867   -3.4668    4.8005 C   0  0  0  0  0  0  0  0  0  0  0  0
    1.3630   -2.7012    5.4932 C   0  0  0  0  0  0  0  0  0  0  0  0
    0.8532   -3.3190    7.0396 S   0  0  0  0  0  0  0  0  0  0  0  0
    0.8977   -1.2867    4.6427 S   0  0  0  0  0  0  0  0  0  0  0  0
    1.9434   -1.7277    3.3023 C   0  0  0  0  0  0  0  0  0  0  0  0
    2.6146   -2.8996    3.5565 C   0  0  0  0  0  0  0  0  0  0  0  0
    2.0761   -0.9125    2.1396 C   0  0  0  0  0  0  0  0  0  0  0  0
    3.4121   -1.2687    1.0600 S   0  0  0  0  0  0  0  0  0  0  0  0
    3.0096    0.0183   -0.0052 C   0  0  0  0  0  0  0  0  0  0  0  0
    1.9119    0.6758    0.4418 C   0  0  0  0  0  0  0  0  0  0  0  0
    1.3513    0.1623    1.6610 C   0  0  0  0  0  0  0  0  0  0  0  0
    0.1375    0.8569    1.9800 C   0  0  0  0  0  0  0  0  0  0  0  0
   -0.1455    1.8273    1.0263 C   0  0  0  0  0  0  0  0  0  0  0  0
    1.0237    2.0195   -0.2465 S   0  0  0  0  0  0  0  0  0  0  0  0
   -1.6607    2.5932    1.2595 S   0  0  0  0  0  0  0  0  0  0  0  0
   -1.9550    1.5948    2.6734 C   0  0  0  0  0  0  0  0  0  0  0  0
   -0.8984    0.7648    2.9318 C   0  0  0  0  0  0  0  0  0  0  0  0
   -3.1971    1.7144    3.3674 C   0  0  0  0  0  0  0  0  0  0  0  0
   -4.1433    3.1665    3.1418 S   0  0  0  0  0  0  0  0  0  0  0  0
   -5.3952    2.6197    4.1831 C   0  0  0  0  0  0  0  0  0  0  0  0
   -5.1010    1.3883    4.6704 C   0  0  0  0  0  0  0  0  0  0  0  0
   -3.8530    0.8427    4.2173 C   0  0  0  0  0  0  0  0  0  0  0  0
   -3.6761   -0.4852    4.7302 C   0  0  0  0  0  0  0  0  0  0  0  0
   -4.7471   -0.8625    5.5319 C   0  0  0  0  0  0  0  0  0  0  0  0
   -6.0030    0.3228    5.7310 S   0  0  0  0  0  0  0  0  0  0  0  0
   -4.6252   -2.4640    6.1418 S   0  0  0  0  0  0  0  0  0  0  0  0
   -3.1013   -2.6655    5.2931 C   0  0  0  0  0  0  0  0  0  0  0  0
   -2.7407   -1.5316    4.6167 C   0  0  0  0  0  0  0  0  0  0  0  0
   -2.3698   -3.8908    5.3517 C   0  0  0  0  0  0  0  0  0  0  0  0
   -2.5268   -4.9597    6.7222 S   0  0  0  0  0  0  0  0  0  0  0  0
   -1.3404   -6.0478    6.1147 C   0  0  0  0  0  0  0  0  0  0  0  0
   -0.8599   -5.6132    4.9222 C   0  0  0  0  0  0  0  0  0  0  0  0
   -1.4440   -4.3901    4.4566 C   0  0  0  0  0  0  0  0  0  0  0  0
   -0.9120   -4.0299    3.1758 C   0  0  0  0  0  0  0  0  0  0  0  0
    0.0725   -4.9255    2.7753 C   0  0  0  0  0  0  0  0  0  0  0  0
    0.3520   -6.2723    3.8388 S   0  0  0  0  0  0  0  0  0  0  0  0
    0.7920   -4.5315    1.2651 S   0  0  0  0  0  0  0  0  0  0  0  0
   -0.2746   -3.1455    1.1305 C   0  0  0  0  0  0  0  0  0  0  0  0
   -1.1177   -3.0326    2.2031 C   0  0  0  0  0  0  0  0  0  0  0  0
   -0.2154   -2.2754    0.0053 C   0  0  0  0  0  0  0  0  0  0  0  0
    0.6950   -2.2540   -1.0064 C   0  0  0  0  0  0  0  0  0  0  0  0
    0.4471   -1.2416   -1.9654 C   0  0  0  0  0  0  0  0  0  0  0  0
    1.2329   -0.9160   -3.0815 C   0  0  0  0  0  0  0  0  0  0  0  0
    2.4180   -1.6868   -3.4171 C   0  0  0  0  0  0  0  0  0  0  0  0
    3.9680   -0.9216   -3.6059 S   0  0  0  0  0  0  0  0  0  0  0  0
    4.7529   -2.4218   -3.9632 C   0  0  0  0  0  0  0  0  0  0  0  0
    6.2009   -2.4706   -4.3044 C   0  0  0  0  0  0  0  0  0  0  0  0
    6.4203   -2.1621   -5.7876 C   0  0  0  0  0  0  0  0  0  0  0  0
    3.8516   -3.4437   -3.9440 C   0  0  0  0  0  0  0  0  0  0  0  0
    4.2536   -5.0805   -4.2655 Cl  0  0  0  0  0  0  0  0  0  0  0  0
    2.5286   -3.0325   -3.6267 C   0  0  0  0  0  0  0  0  0  0  0  0
    1.2035   -4.1229   -3.5885 Cl  0  0  0  0  0  0  0  0  0  0  0  0
    0.8318    0.1763   -3.8356 C   0  0  0  0  0  0  0  0  0  0  0  0
   -0.3093    0.9533   -3.5249 C   0  0  0  0  0  0  0  0  0  0  0  0
   -1.0970    0.6380   -2.3987 C   0  0  0  0  0  0  0  0  0  0  0  0
   -2.2047    1.4882   -2.0016 C   0  0  0  0  0  0  0  0  0  0  0  0
   -2.0112    3.2237   -1.9891 S   0  0  0  0  0  0  0  0  0  0  0  0
   -3.5918    3.4871   -1.3368 C   0  0  0  0  0  0  0  0  0  0  0  0
   -4.0880    4.8621   -1.0571 C   0  0  0  0  0  0  0  0  0  0  0  0
   -3.2867    5.5405    0.0542 C   0  0  0  0  0  0  0  0  0  0  0  0
   -4.2211    2.2947   -1.1456 C   0  0  0  0  0  0  0  0  0  0  0  0
   -3.4491    1.1643   -1.5312 C   0  0  0  0  0  0  0  0  0  0  0  0
   -4.1121   -0.4156   -1.5084 Cl  0  0  0  0  0  0  0  0  0  0  0  0
   -5.7998    2.1376   -0.4919 Cl  0  0  0  0  0  0  0  0  0  0  0  0
   -0.7010   -0.4704   -1.6532 C   0  0  0  0  0  0  0  0  0  0  0  0
   -1.4401   -1.0377   -0.1828 S   0  0  0  0  0  0  0  0  0  0  0  0
   -0.5148    1.9792   -4.4796 C   0  0  0  0  0  0  0  0  0  0  0  0
    0.4086    1.9911   -5.4824 C   0  0  0  0  0  0  0  0  0  0  0  0
    1.6175    0.7391   -5.2817 S   0  0  0  0  0  0  0  0  0  0  0  0
    0.4800    2.8918   -6.5873 C   0  0  0  0  0  0  0  0  0  0  0  0
    2.0294    3.2901   -7.2868 S   0  0  0  0  0  0  0  0  0  0  0  0
    1.3334    4.4105   -8.3885 C   0  0  0  0  0  0  0  0  0  0  0  0
   -0.0146    4.4617   -8.2332 C   0  0  0  0  0  0  0  0  0  0  0  0
   -0.5296    3.5914   -7.2169 C   0  0  0  0  0  0  0  0  0  0  0  0
   -1.9593    3.6514   -7.1724 C   0  0  0  0  0  0  0  0  0  0  0  0
   -2.4437    4.5742   -8.0877 C   0  0  0  0  0  0  0  0  0  0  0  0
   -1.2500    5.3888   -9.0595 S   0  0  0  0  0  0  0  0  0  0  0  0
   -4.1571    4.6865   -8.1012 S   0  0  0  0  0  0  0  0  0  0  0  0
   -4.2361    3.4611   -6.8783 C   0  0  0  0  0  0  0  0  0  0  0  0
   -3.0215    3.0062   -6.4882 C   0  0  0  0  0  0  0  0  0  0  0  0
    4.0779   -5.9657    4.5553 H   0  0  0  0  0  0  0  0  0  0  0  0
    1.7801   -6.0941    8.4742 H   0  0  0  0  0  0  0  0  0  0  0  0
    3.3084   -3.3368    2.8616 H   0  0  0  0  0  0  0  0  0  0  0  0
    3.5935    0.1969   -0.8846 H   0  0  0  0  0  0  0  0  0  0  0  0
   -0.8592    0.1570    3.8090 H   0  0  0  0  0  0  0  0  0  0  0  0
   -6.2560    3.2300    4.3618 H   0  0  0  0  0  0  0  0  0  0  0  0
   -1.8138   -1.4692    4.0896 H   0  0  0  0  0  0  0  0  0  0  0  0
   -1.0768   -6.9243    6.6696 H   0  0  0  0  0  0  0  0  0  0  0  0
   -1.8725   -2.2701    2.2439 H   0  0  0  0  0  0  0  0  0  0  0  0
    1.5298   -2.9294   -1.0502 H   0  0  0  0  0  0  0  0  0  0  0  0
    6.5813   -3.4680   -4.0769 H   0  0  0  0  0  0  0  0  0  0  0  0
    6.7416   -1.7417   -3.6982 H   0  0  0  0  0  0  0  0  0  0  0  0
    7.4810   -2.1915   -6.0217 H   0  0  0  0  0  0  0  0  0  0  0  0
    6.0355   -1.1739   -6.0282 H   0  0  0  0  0  0  0  0  0  0  0  0
    5.9065   -2.8948   -6.4047 H   0  0  0  0  0  0  0  0  0  0  0  0
   -5.1386    4.7972   -0.7703 H   0  0  0  0  0  0  0  0  0  0  0  0
   -4.0141    5.4611   -1.9685 H   0  0  0  0  0  0  0  0  0  0  0  0
   -2.2337    5.5842   -0.2132 H   0  0  0  0  0  0  0  0  0  0  0  0
   -3.3859    4.9871    0.9843 H   0  0  0  0  0  0  0  0  0  0  0  0
   -3.6511    6.5521    0.2101 H   0  0  0  0  0  0  0  0  0  0  0  0
   -1.2969    2.7097   -4.4134 H   0  0  0  0  0  0  0  0  0  0  0  0
    1.9540    4.9528   -9.0717 H   0  0  0  0  0  0  0  0  0  0  0  0
   -5.1999    3.1505   -6.5273 H   0  0  0  0  0  0  0  0  0  0  0  0
   -2.8916    2.2240   -5.7644 H   0  0  0  0  0  0  0  0  0  0  0  0
  1  2  1  0  0  0  0
  2  3  1  0  0  0  0
  3  4  2  0  0  0  0
  4  5  1  0  0  0  0
  5  6  1  0  0  0  0
  6  7  2  0  0  0  0
  7  8  1  0  0  0  0
  7  9  1  0  0  0  0
  9 10  1  0  0  0  0
 10 11  2  0  0  0  0
 10 12  1  0  0  0  0
 12 13  1  0  0  0  0
 13 14  1  0  0  0  0
 14 15  2  0  0  0  0
 15 16  1  0  0  0  0
 16 17  1  0  0  0  0
 17 18  2  0  0  0  0
 18 19  1  0  0  0  0
 18 20  1  0  0  0  0
 20 21  1  0  0  0  0
 21 22  2  0  0  0  0
 21 23  1  0  0  0  0
 23 24  1  0  0  0  0
 24 25  1  0  0  0  0
 25 26  2  0  0  0  0
 26 27  1  0  0  0  0
 27 28  1  0  0  0  0
 28 29  2  0  0  0  0
 29 30  1  0  0  0  0
 29 31  1  0  0  0  0
 31 32  1  0  0  0  0
 32 33  2  0  0  0  0
 32 34  1  0  0  0  0
 34 35  1  0  0  0  0
 35 36  1  0  0  0  0
 36 37  2  0  0  0  0
 37 38  1  0  0  0  0
 38 39  1  0  0  0  0
 39 40  2  0  0  0  0
 40 41  1  0  0  0  0
 40 42  1  0  0  0  0
 42 43  1  0  0  0  0
 43 44  2  0  0  0  0
 43 45  1  0  0  0  0
 45 46  2  0  0  0  0
 46 47  1  0  0  0  0
 47 48  2  0  0  0  0
 48 49  1  0  0  0  0
 49 50  1  0  0  0  0
 50 51  1  0  0  0  0
 51 52  1  0  0  0  0
 52 53  1  0  0  0  0
 51 54  2  0  0  0  0
 54 55  1  0  0  0  0
 54 56  1  0  0  0  0
 56 57  1  0  0  0  0
 48 58  1  0  0  0  0
 58 59  2  0  0  0  0
 59 60  1  0  0  0  0
 60 61  1  0  0  0  0
 61 62  1  0  0  0  0
 62 63  1  0  0  0  0
 63 64  1  0  0  0  0
 64 65  1  0  0  0  0
 63 66  2  0  0  0  0
 66 67  1  0  0  0  0
 67 68  1  0  0  0  0
 66 69  1  0  0  0  0
 60 70  2  0  0  0  0
 70 71  1  0  0  0  0
 59 72  1  0  0  0  0
 72 73  2  0  0  0  0
 73 74  1  0  0  0  0
 73 75  1  0  0  0  0
 75 76  1  0  0  0  0
 76 77  1  0  0  0  0
 77 78  2  0  0  0  0
 78 79  1  0  0  0  0
 79 80  1  0  0  0  0
 80 81  2  0  0  0  0
 81 82  1  0  0  0  0
 81 83  1  0  0  0  0
 83 84  1  0  0  0  0
 84 85  2  0  0  0  0
  5  1  2  0  0  0  0
 11  6  1  0  0  0  0
 16 12  2  0  0  0  0
 22 17  1  0  0  0  0
 27 23  2  0  0  0  0
 33 28  1  0  0  0  0
 38 34  2  0  0  0  0
 44 39  1  0  0  0  0
 71 45  1  0  0  0  0
 79 75  2  0  0  0  0
 85 80  1  0  0  0  0
  8  4  1  0  0  0  0
 19 15  1  0  0  0  0
 30 26  1  0  0  0  0
 41 37  1  0  0  0  0
 70 47  1  0  0  0  0
 82 78  1  0  0  0  0
 56 49  2  0  0  0  0
 74 58  1  0  0  0  0
 67 61  2  0  0  0  0
  1 86  1  0  0  0  0
  3 87  1  0  0  0  0
 11 88  1  0  0  0  0
 14 89  1  0  0  0  0
 22 90  1  0  0  0  0
 25 91  1  0  0  0  0
 33 92  1  0  0  0  0
 36 93  1  0  0  0  0
 44 94  1  0  0  0  0
 46 95  1  0  0  0  0
 52 96  1  0  0  0  0
 52 97  1  0  0  0  0
 53 98  1  0  0  0  0
 53 99  1  0  0  0  0
 53100  1  0  0  0  0
 64101  1  0  0  0  0
 64102  1  0  0  0  0
 65103  1  0  0  0  0
 65104  1  0  0  0  0
 65105  1  0  0  0  0
 72106  1  0  0  0  0
 77107  1  0  0  0  0
 84108  1  0  0  0  0
 85109  1  0  0  0  0
M  END
