
  xtb     03022209503D
 energy: -204.321920837004 gnorm: 0.000146612627 xtb: 6.4.1 (unknown)
140152  0     0  0            999 V2000
    0.9965    6.3944   -1.5459 C   0  0  0  0  0  0  0  0  0  0  0  0
    0.8883    5.9183    0.0891 S   0  0  0  0  0  0  0  0  0  0  0  0
   -0.7957    5.5093   -0.0583 C   0  0  0  0  0  0  0  0  0  0  0  0
   -1.2514    5.7937   -1.3450 C   0  0  0  0  0  0  0  0  0  0  0  0
   -0.2091    6.2778   -2.2025 C   0  0  0  0  0  0  0  0  0  0  0  0
   -0.4846    6.5750   -3.5596 C   0  0  0  0  0  0  0  0  0  0  0  0
   -1.7505    6.4478   -4.0531 C   0  0  0  0  0  0  0  0  0  0  0  0
   -2.1093    6.7328   -5.5018 C   0  0  0  0  0  0  0  0  0  0  0  0
   -3.1205    7.8868   -5.5520 C   0  0  0  0  0  0  0  0  0  0  0  0
   -2.7242    5.4693   -6.1206 C   0  0  0  0  0  0  0  0  0  0  0  0
   -0.8915    7.1294   -6.3408 C   0  0  0  0  0  0  0  0  0  0  0  0
   -2.7906    6.0516   -3.1648 C   0  0  0  0  0  0  0  0  0  0  0  0
   -2.5656    5.7390   -1.8597 C   0  0  0  0  0  0  0  0  0  0  0  0
   -1.4631    4.8840    1.0340 C   0  0  0  0  0  0  0  0  0  0  0  0
   -1.0894    5.3579    2.6609 S   0  0  0  0  0  0  0  0  0  0  0  0
   -2.0685    4.1062    3.3414 C   0  0  0  0  0  0  0  0  0  0  0  0
   -2.6859    3.3611    2.3394 C   0  0  0  0  0  0  0  0  0  0  0  0
   -2.3397    3.7947    1.0233 C   0  0  0  0  0  0  0  0  0  0  0  0
   -2.8284    3.0789   -0.0919 C   0  0  0  0  0  0  0  0  0  0  0  0
   -3.6634    2.0083    0.0706 C   0  0  0  0  0  0  0  0  0  0  0  0
   -4.1846    1.1917   -1.1003 C   0  0  0  0  0  0  0  0  0  0  0  0
   -3.5965   -0.2234   -1.0009 C   0  0  0  0  0  0  0  0  0  0  0  0
   -5.7177    1.1258   -1.0434 C   0  0  0  0  0  0  0  0  0  0  0  0
   -3.7926    1.7887   -2.4550 C   0  0  0  0  0  0  0  0  0  0  0  0
   -4.0501    1.6362    1.3860 C   0  0  0  0  0  0  0  0  0  0  0  0
   -3.5881    2.2849    2.4885 C   0  0  0  0  0  0  0  0  0  0  0  0
   -2.1634    3.8784    4.7471 C   0  0  0  0  0  0  0  0  0  0  0  0
   -2.4814    5.1577    5.8979 S   0  0  0  0  0  0  0  0  0  0  0  0
   -2.5589    4.0540    7.2215 C   0  0  0  0  0  0  0  0  0  0  0  0
   -2.3407    2.7828    6.8005 C   0  0  0  0  0  0  0  0  0  0  0  0
   -2.0954    2.6666    5.3954 C   0  0  0  0  0  0  0  0  0  0  0  0
   -1.7543    1.3251    5.0345 C   0  0  0  0  0  0  0  0  0  0  0  0
   -1.8233    0.4862    6.1365 C   0  0  0  0  0  0  0  0  0  0  0  0
   -2.2623    1.2445    7.6446 S   0  0  0  0  0  0  0  0  0  0  0  0
   -1.3917   -1.1371    5.7708 S   0  0  0  0  0  0  0  0  0  0  0  0
   -1.0596   -0.6850    4.0972 C   0  0  0  0  0  0  0  0  0  0  0  0
   -1.3100    0.6530    3.8837 C   0  0  0  0  0  0  0  0  0  0  0  0
   -0.5239   -1.5930    3.1526 C   0  0  0  0  0  0  0  0  0  0  0  0
    0.1081   -0.9538    1.6657 S   0  0  0  0  0  0  0  0  0  0  0  0
    0.6953   -2.5002    1.1127 C   0  0  0  0  0  0  0  0  0  0  0  0
    0.3329   -3.4964    2.0475 C   0  0  0  0  0  0  0  0  0  0  0  0
   -0.3390   -2.9809    3.1981 C   0  0  0  0  0  0  0  0  0  0  0  0
   -0.7510   -3.8554    4.2184 C   0  0  0  0  0  0  0  0  0  0  0  0
   -0.5217   -5.2065    4.1415 C   0  0  0  0  0  0  0  0  0  0  0  0
   -0.9742   -6.1056    5.2812 C   0  0  0  0  0  0  0  0  0  0  0  0
   -0.2970   -5.6428    6.5790 C   0  0  0  0  0  0  0  0  0  0  0  0
   -2.4989   -5.9996    5.4256 C   0  0  0  0  0  0  0  0  0  0  0  0
   -0.6147   -7.5764    5.0542 C   0  0  0  0  0  0  0  0  0  0  0  0
    0.1104   -5.7068    2.9844 C   0  0  0  0  0  0  0  0  0  0  0  0
    0.5175   -4.8868    1.9684 C   0  0  0  0  0  0  0  0  0  0  0  0
    1.4830   -2.6187   -0.0470 C   0  0  0  0  0  0  0  0  0  0  0  0
    2.3924   -4.0744   -0.3324 S   0  0  0  0  0  0  0  0  0  0  0  0
    3.1545   -3.4877   -1.7798 C   0  0  0  0  0  0  0  0  0  0  0  0
    2.6811   -2.1876   -2.0528 C   0  0  0  0  0  0  0  0  0  0  0  0
    1.7647   -1.6930   -1.0754 C   0  0  0  0  0  0  0  0  0  0  0  0
    1.2426   -0.3949   -1.2085 C   0  0  0  0  0  0  0  0  0  0  0  0
    1.5987    0.4171   -2.2554 C   0  0  0  0  0  0  0  0  0  0  0  0
    1.0835    1.8379   -2.4009 C   0  0  0  0  0  0  0  0  0  0  0  0
    2.2694    2.8047   -2.5247 C   0  0  0  0  0  0  0  0  0  0  0  0
    0.2113    1.9293   -3.6612 C   0  0  0  0  0  0  0  0  0  0  0  0
    0.2492    2.2781   -1.1975 C   0  0  0  0  0  0  0  0  0  0  0  0
    2.4650   -0.1057   -3.2395 C   0  0  0  0  0  0  0  0  0  0  0  0
    2.9875   -1.3635   -3.1510 C   0  0  0  0  0  0  0  0  0  0  0  0
    4.1247   -4.2680   -2.4430 C   0  0  0  0  0  0  0  0  0  0  0  0
    5.0987   -3.5945   -3.7252 S   0  0  0  0  0  0  0  0  0  0  0  0
    6.0171   -5.0177   -3.9127 C   0  0  0  0  0  0  0  0  0  0  0  0
    5.6190   -6.0046   -3.0386 C   0  0  0  0  0  0  0  0  0  0  0  0
    4.5352   -5.5952   -2.1949 C   0  0  0  0  0  0  0  0  0  0  0  0
    4.0274   -6.5217   -1.2697 C   0  0  0  0  0  0  0  0  0  0  0  0
    4.5642   -7.7788   -1.1327 C   0  0  0  0  0  0  0  0  0  0  0  0
    3.9742   -8.7172   -0.0899 C   0  0  0  0  0  0  0  0  0  0  0  0
    2.4964   -8.9709   -0.4211 C   0  0  0  0  0  0  0  0  0  0  0  0
    4.6898  -10.0697   -0.0347 C   0  0  0  0  0  0  0  0  0  0  0  0
    4.0875   -8.0615    1.2946 C   0  0  0  0  0  0  0  0  0  0  0  0
    5.6453   -8.1539   -1.9655 C   0  0  0  0  0  0  0  0  0  0  0  0
    6.1559   -7.3033   -2.8991 C   0  0  0  0  0  0  0  0  0  0  0  0
    1.9316    6.7401   -1.9393 H   0  0  0  0  0  0  0  0  0  0  0  0
    0.3396    6.9070   -4.1692 H   0  0  0  0  0  0  0  0  0  0  0  0
   -3.3677    8.1217   -6.5851 H   0  0  0  0  0  0  0  0  0  0  0  0
   -4.0407    7.6350   -5.0322 H   0  0  0  0  0  0  0  0  0  0  0  0
   -2.6989    8.7757   -5.0872 H   0  0  0  0  0  0  0  0  0  0  0  0
   -2.9751    5.6487   -7.1638 H   0  0  0  0  0  0  0  0  0  0  0  0
   -2.0161    4.6443   -6.0732 H   0  0  0  0  0  0  0  0  0  0  0  0
   -3.6301    5.1698   -5.6009 H   0  0  0  0  0  0  0  0  0  0  0  0
   -0.1448    6.3386   -6.3444 H   0  0  0  0  0  0  0  0  0  0  0  0
   -1.2013    7.3043   -7.3690 H   0  0  0  0  0  0  0  0  0  0  0  0
   -0.4396    8.0451   -5.9667 H   0  0  0  0  0  0  0  0  0  0  0  0
   -3.8029    6.0066   -3.5362 H   0  0  0  0  0  0  0  0  0  0  0  0
   -3.3825    5.4742   -1.2057 H   0  0  0  0  0  0  0  0  0  0  0  0
   -2.5160    3.3963   -1.0699 H   0  0  0  0  0  0  0  0  0  0  0  0
   -2.5100   -0.1877   -1.0578 H   0  0  0  0  0  0  0  0  0  0  0  0
   -3.9630   -0.8415   -1.8178 H   0  0  0  0  0  0  0  0  0  0  0  0
   -3.8694   -0.6988   -0.0622 H   0  0  0  0  0  0  0  0  0  0  0  0
   -6.1371    2.1299   -1.0433 H   0  0  0  0  0  0  0  0  0  0  0  0
   -6.0675    0.6092   -0.1544 H   0  0  0  0  0  0  0  0  0  0  0  0
   -6.0990    0.5934   -1.9121 H   0  0  0  0  0  0  0  0  0  0  0  0
   -2.7137    1.8106   -2.5818 H   0  0  0  0  0  0  0  0  0  0  0  0
   -4.2104    1.1791   -3.2538 H   0  0  0  0  0  0  0  0  0  0  0  0
   -4.1803    2.7992   -2.5628 H   0  0  0  0  0  0  0  0  0  0  0  0
   -4.7278    0.8078    1.5215 H   0  0  0  0  0  0  0  0  0  0  0  0
   -3.9006    1.9886    3.4777 H   0  0  0  0  0  0  0  0  0  0  0  0
   -2.7534    4.4176    8.2093 H   0  0  0  0  0  0  0  0  0  0  0  0
   -1.1632    1.1240    2.9293 H   0  0  0  0  0  0  0  0  0  0  0  0
   -1.2687   -3.4410    5.0671 H   0  0  0  0  0  0  0  0  0  0  0  0
    0.7851   -5.6934    6.4771 H   0  0  0  0  0  0  0  0  0  0  0  0
   -0.5684   -4.6201    6.8254 H   0  0  0  0  0  0  0  0  0  0  0  0
   -0.5962   -6.2833    7.4060 H   0  0  0  0  0  0  0  0  0  0  0  0
   -2.8455   -6.6524    6.2238 H   0  0  0  0  0  0  0  0  0  0  0  0
   -2.9868   -6.2973    4.4995 H   0  0  0  0  0  0  0  0  0  0  0  0
   -2.8032   -4.9834    5.6604 H   0  0  0  0  0  0  0  0  0  0  0  0
   -1.1101   -7.9708    4.1698 H   0  0  0  0  0  0  0  0  0  0  0  0
   -0.9415   -8.1639    5.9098 H   0  0  0  0  0  0  0  0  0  0  0  0
    0.4604   -7.7048    4.9500 H   0  0  0  0  0  0  0  0  0  0  0  0
    0.2730   -6.7660    2.8755 H   0  0  0  0  0  0  0  0  0  0  0  0
    0.9602   -5.3257    1.0901 H   0  0  0  0  0  0  0  0  0  0  0  0
    0.5498   -0.0486   -0.4640 H   0  0  0  0  0  0  0  0  0  0  0  0
    1.9038    3.8268   -2.6045 H   0  0  0  0  0  0  0  0  0  0  0  0
    2.9053    2.7333   -1.6448 H   0  0  0  0  0  0  0  0  0  0  0  0
    2.8734    2.5909   -3.4019 H   0  0  0  0  0  0  0  0  0  0  0  0
   -0.2064    2.9305   -3.7546 H   0  0  0  0  0  0  0  0  0  0  0  0
   -0.6068    1.2136   -3.6071 H   0  0  0  0  0  0  0  0  0  0  0  0
    0.7887    1.7146   -4.5566 H   0  0  0  0  0  0  0  0  0  0  0  0
   -0.0763    3.3040   -1.3464 H   0  0  0  0  0  0  0  0  0  0  0  0
    0.8323    2.2386   -0.2803 H   0  0  0  0  0  0  0  0  0  0  0  0
   -0.6368    1.6602   -1.0758 H   0  0  0  0  0  0  0  0  0  0  0  0
    2.7212    0.4978   -4.0963 H   0  0  0  0  0  0  0  0  0  0  0  0
    3.6275   -1.7251   -3.9378 H   0  0  0  0  0  0  0  0  0  0  0  0
    6.7958   -5.0557   -4.6475 H   0  0  0  0  0  0  0  0  0  0  0  0
    3.1919   -6.2385   -0.6551 H   0  0  0  0  0  0  0  0  0  0  0  0
    1.9223   -8.0487   -0.4019 H   0  0  0  0  0  0  0  0  0  0  0  0
    2.4022   -9.4107   -1.4119 H   0  0  0  0  0  0  0  0  0  0  0  0
    2.0634   -9.6573    0.3036 H   0  0  0  0  0  0  0  0  0  0  0  0
    4.6090  -10.5967   -0.9827 H   0  0  0  0  0  0  0  0  0  0  0  0
    4.2307  -10.6901    0.7325 H   0  0  0  0  0  0  0  0  0  0  0  0
    5.7404   -9.9473    0.2191 H   0  0  0  0  0  0  0  0  0  0  0  0
    5.1295   -7.8519    1.5273 H   0  0  0  0  0  0  0  0  0  0  0  0
    3.5348   -7.1272    1.3406 H   0  0  0  0  0  0  0  0  0  0  0  0
    3.6920   -8.7292    2.0573 H   0  0  0  0  0  0  0  0  0  0  0  0
    6.0777   -9.1362   -1.8730 H   0  0  0  0  0  0  0  0  0  0  0  0
    6.9729   -7.6023   -3.5390 H   0  0  0  0  0  0  0  0  0  0  0  0
  1  2  1  0  0  0  0
  2  3  1  0  0  0  0
  3  4  2  0  0  0  0
  4  5  1  0  0  0  0
  5  6  1  0  0  0  0
  6  7  2  0  0  0  0
  7  8  1  0  0  0  0
  8  9  1  0  0  0  0
  8 10  1  0  0  0  0
  8 11  1  0  0  0  0
  7 12  1  0  0  0  0
 12 13  2  0  0  0  0
  3 14  1  0  0  0  0
 14 15  1  0  0  0  0
 15 16  1  0  0  0  0
 16 17  2  0  0  0  0
 17 18  1  0  0  0  0
 18 19  1  0  0  0  0
 19 20  2  0  0  0  0
 20 21  1  0  0  0  0
 21 22  1  0  0  0  0
 21 23  1  0  0  0  0
 21 24  1  0  0  0  0
 20 25  1  0  0  0  0
 25 26  2  0  0  0  0
 16 27  1  0  0  0  0
 27 28  1  0  0  0  0
 28 29  1  0  0  0  0
 29 30  2  0  0  0  0
 30 31  1  0  0  0  0
 31 32  1  0  0  0  0
 32 33  2  0  0  0  0
 33 34  1  0  0  0  0
 33 35  1  0  0  0  0
 35 36  1  0  0  0  0
 36 37  2  0  0  0  0
 36 38  1  0  0  0  0
 38 39  1  0  0  0  0
 39 40  1  0  0  0  0
 40 41  2  0  0  0  0
 41 42  1  0  0  0  0
 42 43  1  0  0  0  0
 43 44  2  0  0  0  0
 44 45  1  0  0  0  0
 45 46  1  0  0  0  0
 45 47  1  0  0  0  0
 45 48  1  0  0  0  0
 44 49  1  0  0  0  0
 49 50  2  0  0  0  0
 40 51  1  0  0  0  0
 51 52  1  0  0  0  0
 52 53  1  0  0  0  0
 53 54  2  0  0  0  0
 54 55  1  0  0  0  0
 55 56  1  0  0  0  0
 56 57  2  0  0  0  0
 57 58  1  0  0  0  0
 58 59  1  0  0  0  0
 58 60  1  0  0  0  0
 58 61  1  0  0  0  0
 57 62  1  0  0  0  0
 62 63  2  0  0  0  0
 53 64  1  0  0  0  0
 64 65  1  0  0  0  0
 65 66  1  0  0  0  0
 66 67  2  0  0  0  0
 67 68  1  0  0  0  0
 68 69  1  0  0  0  0
 69 70  2  0  0  0  0
 70 71  1  0  0  0  0
 71 72  1  0  0  0  0
 71 73  1  0  0  0  0
 71 74  1  0  0  0  0
 70 75  1  0  0  0  0
 75 76  2  0  0  0  0
  5  1  2  0  0  0  0
 18 14  2  0  0  0  0
 31 27  2  0  0  0  0
 37 32  1  0  0  0  0
 42 38  2  0  0  0  0
 55 51  2  0  0  0  0
 68 64  2  0  0  0  0
 13  4  1  0  0  0  0
 26 17  1  0  0  0  0
 34 30  1  0  0  0  0
 50 41  1  0  0  0  0
 63 54  1  0  0  0  0
 76 67  1  0  0  0  0
  1 77  1  0  0  0  0
  6 78  1  0  0  0  0
  9 79  1  0  0  0  0
  9 80  1  0  0  0  0
  9 81  1  0  0  0  0
 10 82  1  0  0  0  0
 10 83  1  0  0  0  0
 10 84  1  0  0  0  0
 11 85  1  0  0  0  0
 11 86  1  0  0  0  0
 11 87  1  0  0  0  0
 12 88  1  0  0  0  0
 13 89  1  0  0  0  0
 19 90  1  0  0  0  0
 22 91  1  0  0  0  0
 22 92  1  0  0  0  0
 22 93  1  0  0  0  0
 23 94  1  0  0  0  0
 23 95  1  0  0  0  0
 23 96  1  0  0  0  0
 24 97  1  0  0  0  0
 24 98  1  0  0  0  0
 24 99  1  0  0  0  0
 25100  1  0  0  0  0
 26101  1  0  0  0  0
 29102  1  0  0  0  0
 37103  1  0  0  0  0
 43104  1  0  0  0  0
 46105  1  0  0  0  0
 46106  1  0  0  0  0
 46107  1  0  0  0  0
 47108  1  0  0  0  0
 47109  1  0  0  0  0
 47110  1  0  0  0  0
 48111  1  0  0  0  0
 48112  1  0  0  0  0
 48113  1  0  0  0  0
 49114  1  0  0  0  0
 50115  1  0  0  0  0
 56116  1  0  0  0  0
 59117  1  0  0  0  0
 59118  1  0  0  0  0
 59119  1  0  0  0  0
 60120  1  0  0  0  0
 60121  1  0  0  0  0
 60122  1  0  0  0  0
 61123  1  0  0  0  0
 61124  1  0  0  0  0
 61125  1  0  0  0  0
 62126  1  0  0  0  0
 63127  1  0  0  0  0
 66128  1  0  0  0  0
 69129  1  0  0  0  0
 72130  1  0  0  0  0
 72131  1  0  0  0  0
 72132  1  0  0  0  0
 73133  1  0  0  0  0
 73134  1  0  0  0  0
 73135  1  0  0  0  0
 74136  1  0  0  0  0
 74137  1  0  0  0  0
 74138  1  0  0  0  0
 75139  1  0  0  0  0
 76140  1  0  0  0  0
M  END
