196

C          3.58000      -10.08510        4.51940
C          4.66990       -9.30120        4.39000
C          4.34990       -7.97300        3.98420
C          5.21700       -6.89000        3.77030
C          6.66100       -7.04270        3.83340
S          7.64160       -5.98080        4.79860
C          9.10670       -6.76170        4.30910
C         10.43050       -6.26460        4.77420
C         10.82350       -4.98630        4.02980
C          8.83530       -7.77830        3.44300
Cl        10.03400       -8.77920        2.73090
C          7.44960       -7.94430        3.17420
Cl         6.85910       -9.10940        2.06050
C          4.63440       -5.66570        3.46930
C          3.23530       -5.48510        3.34890
C          2.37140       -6.57820        3.51490
C          0.92850       -6.45240        3.36440
S         -0.00520       -5.40130        4.38570
C         -1.49850       -5.89940        3.66510
C         -2.79990       -5.36750        4.15420
C         -3.08420       -3.96980        3.60680
C         -1.26550       -6.79390        2.66440
C          0.10810       -7.12310        2.50210
Cl         0.66650       -8.20850        1.29940
Cl        -2.49680       -7.47090        1.67990
C          2.95320       -7.79880        3.83370
S          2.09420       -9.27530        4.16400
C          2.90470       -4.15770        2.97640
C          3.99160       -3.35790        2.79160
S          5.49710       -4.19460        3.11690
C          4.01550       -2.01400        2.31370
C          5.08440       -1.17150        2.24820
C          4.78510        0.07290        1.64280
C          5.64070        1.17250        1.46030
C          7.03710        1.11660        1.85990
S          8.08870       -0.14590        1.28830
C          9.44720        0.48320        2.15500
C         10.79050       -0.15120        2.05750
C         11.57300        0.40600        0.86580
C          9.09310        1.60950        2.83580
Cl        10.17400        2.51430        3.81390
C          7.72820        1.96950        2.67530
Cl         7.02680        3.29180        3.50880
C          5.08560        2.31010        0.89170
C          3.73030        2.39640        0.48380
C          2.89240        1.27330        0.60450
C          1.54340        1.23540        0.06320
S          0.32300        2.42180        0.43300
C         -0.88920        1.58980       -0.47850
C         -2.31170        2.02790       -0.52690
C         -2.56580        3.32930        0.21730
C         -0.35020        0.48180       -1.06120
C          1.02060        0.27800       -0.76380
Cl         1.90110       -1.02080       -1.44860
Cl        -1.23920       -0.62560       -2.01610
C          3.43600        0.14910        1.21990
S          2.57090       -1.30700        1.62260
C          3.41810        3.67260       -0.04590
C          4.47930        4.53050       -0.08060
S          5.94100        3.77710        0.53470
C          4.54970        5.91120       -0.43440
S          6.03990        6.74180       -0.04010
C          5.41780        8.26720       -0.50980
C          4.14120        8.14120       -0.95280
C          3.62290        6.80190       -0.95060
C          2.28200        6.78940       -1.46340
C          1.84760        8.08550       -1.72820
S          3.00000        9.35680       -1.48190
S          0.23080        8.18300       -2.28350
C          0.11980        6.43270       -2.22810
C          1.27880        5.85030       -1.79200
C         -1.11740        5.82050       -2.59380
C         -2.33990        6.42030       -2.59410
C         -3.39610        5.55420       -2.96470
C         -4.77150        5.83530       -2.96690
C         -5.27570        7.11750       -2.50410
S         -6.33100        8.09230       -3.48080
C         -6.43770        9.32430       -2.27100
C         -7.20830       10.57570       -2.50860
C         -6.34310       11.62670       -3.20860
C         -5.69180        8.98650       -1.18100
Cl        -5.55440        9.96160        0.22490
C         -5.03510        7.73380       -1.30730
Cl        -4.10350        7.04400       -0.04060
C         -5.61940        4.82010       -3.38400
C         -5.14950        3.54990       -3.79570
C         -3.76950        3.26560       -3.79620
C         -3.26640        1.97980       -4.25430
S         -3.93390        0.47610       -3.68160
C         -2.87380       -0.47410       -4.66090
C         -2.95080       -1.95980       -4.65370
C         -4.21830       -2.45890       -5.34770
C         -2.05930        0.33820       -5.39070
C         -2.27520        1.72510       -5.16300
Cl        -1.43090        2.92820       -6.04220
Cl        -0.87160       -0.23330       -6.48910
C         -2.92420        4.27370       -3.34520
S         -1.19880        4.14930       -3.11280
C         -6.21980        2.69630       -4.15730
C         -7.45180        3.25600       -3.98840
S         -7.35860        4.91000       -3.42580
C         -8.69010        2.58310       -4.23490
S        -10.06730        3.34070       -4.98840
C        -10.91350        1.84520       -5.12230
C        -10.18300        0.82690       -4.59820
C         -8.92480        1.23800       -4.05630
C         -8.23300        0.14190       -3.45630
C         -8.91100       -1.04990       -3.66880
S        -10.44600       -0.90610       -4.48460
S         -8.08370       -2.41620       -3.03250
C         -6.82900       -1.35830       -2.40120
C         -7.06500       -0.04400       -2.69090
C         -5.69030       -1.90620       -1.73050
C         -5.10380       -3.11140       -1.95490
C         -3.92270       -3.31170       -1.19530
C         -2.99400       -4.34960       -1.33940
C         -3.21280       -5.43430       -2.28410
S         -4.57890       -6.49720       -2.13690
C         -4.10570       -7.42050       -3.52300
C         -4.88120       -8.61810       -3.94750
C         -4.51970       -9.83300       -3.08980
C         -2.95420       -6.92150       -4.05420
Cl        -2.17960       -7.56650       -5.44350
C         -2.44580       -5.79290       -3.35570
Cl        -1.04960       -4.93750       -3.86390
C         -1.83860       -4.26940       -0.57550
C         -1.61490       -3.25270        0.38480
C         -2.56910       -2.22920        0.56270
C         -2.42470       -1.20950        1.58630
S         -0.88560       -0.47720        1.93990
C         -1.54810        0.56840        3.14460
C         -0.70230        1.56060        3.86450
C          0.71330        1.04870        4.10500
C         -2.88350        0.33220        3.28000
C         -3.38200       -0.67670        2.41360
Cl        -5.00280       -1.21580        2.53890
Cl        -3.89220        1.16530        4.39230
C         -3.66880       -2.24710       -0.29730
S         -4.84410       -0.97700       -0.51230
C         -0.37010       -3.45320        1.04970
C          0.30710       -4.52750        0.59190
S         -0.52310       -5.40130       -0.63830
H          3.54300      -11.11680        4.80980
H          5.67120       -9.63560        4.58810
H         11.17720       -7.04020        4.59690
H         10.38650       -6.05930        5.84550
H         10.07940       -4.21090        4.19660
H         10.89220       -5.17830        2.96200
H         11.78720       -4.62980        4.38320
H         -3.59240       -6.05030        3.84310
H         -2.78070       -5.32980        5.24550
H         -4.01010       -3.58730        4.02610
H         -2.27660       -3.28900        3.86640
H         -3.17980       -4.00110        2.52480
H          1.89750       -3.80710        2.84880
H          6.05390       -1.43730        2.62850
H         11.33950        0.04920        2.97960
H         10.67470       -1.23050        1.94510
H         11.03960        0.20960       -0.06110
H         11.70400        1.47990        0.97070
H         12.55250       -0.06110        0.81130
H         -2.93290        1.23100       -0.10280
H         -2.60890        2.12970       -1.57360
H         -3.60540        3.62570        0.10540
H         -2.35220        3.21140        1.27720
H         -1.93640        4.12590       -0.17350
H          2.42540        3.95000       -0.33500
H          6.01480        9.15160       -0.42480
H          1.38200        4.78300       -1.74040
H         -2.48020        7.45160       -2.32680
H         -7.54910       10.96530       -1.54750
H         -8.07980       10.35200       -3.12580
H         -6.00300       11.25460       -4.17210
H         -6.91640       12.53580       -3.36760
H         -5.47380       11.86460       -2.60090
H         -2.94190       -2.32080       -3.62250
H         -2.07030       -2.35460       -5.16250
H         -5.10200       -2.07330       -4.84320
H         -4.24770       -3.54520       -5.32610
H         -4.23710       -2.13070       -6.38410
H         -6.08780        1.70870       -4.55640
H        -11.88100        1.81870       -5.57970
H         -6.41910        0.74880       -2.36390
H         -5.47640       -3.81990       -2.67210
H         -4.65620       -8.82710       -4.99480
H         -5.94910       -8.41230       -3.85240
H         -5.09140      -10.69990       -3.40970
H         -4.74050       -9.63490       -2.04350
H         -3.46060      -10.05930       -3.18400
H         -0.65050        2.48110        3.27330
H         -1.18770        1.80190        4.81250
H          1.20490        0.84150        3.15740
H          0.69440        0.13350        4.69150
H          1.29540        1.79370        4.64020
H          0.00570       -2.80640        1.81950
H          1.27500       -4.87610        0.89430
