228

C          1.75000       -1.53070       10.15210
C          2.67000       -1.59080        9.16860
C          2.15200       -2.13000        7.95270
C          2.81910       -2.32570        6.73350
C          4.24070       -1.99360        6.56820
C          4.65680       -1.15980        5.53480
C          5.98780       -0.82400        5.37780
C          6.95380       -1.31860        6.24670
S          8.68420       -1.00150        6.14390
C          8.80760        0.49030        5.09760
C          8.29530        1.72820        5.80810
C          6.52350       -2.17110        7.26580
F          7.43350       -2.68550        8.11710
C          5.19940       -2.50520        7.43960
C          2.06820       -2.84600        5.68950
C          0.68860       -3.13300        5.81020
C          0.01860       -2.93050        7.02340
C         -1.41890       -3.22480        7.12200
C         -2.31540       -2.56970        6.28280
C         -3.66760       -2.84150        6.33330
C         -4.16870       -3.78380        7.22370
S         -5.87930       -4.18490        7.37060
C         -6.71120       -2.63210        6.87130
C         -7.16090       -2.62730        5.42290
C         -3.25650       -4.44860        8.04300
C         -1.90520       -4.17670        8.01240
F         -3.70510       -5.38580        8.90190
C          0.77780       -2.45250        8.07810
S          0.18780       -2.11150        9.68270
C          0.15560       -3.69840        4.62560
C          1.08260       -3.89850        3.65020
S          2.66880       -3.30460        4.11330
C          0.83710       -4.51550        2.38530
S          1.71220       -4.03450        0.95580
C          0.77780       -5.06210       -0.05760
C         -0.14080       -5.74690        0.67070
C         -0.11680       -5.46440        2.07640
C         -1.08500       -6.25850        2.77720
C         -1.81090       -7.03980        1.88960
S         -1.36980       -6.91120        0.21130
S         -3.03940       -7.97470        2.63780
C         -2.61050       -7.27750        4.19820
C         -1.53950       -6.43780        4.10700
C         -3.46750       -7.53730        5.32650
S         -2.93690       -8.13260        6.87660
C         -4.53700       -8.11130        7.52290
C         -5.42670       -7.66310        6.60120
C         -4.82490       -7.33380        5.34710
C         -5.77000       -6.75060        4.45430
C         -7.03150       -6.67270        5.02130
S         -7.15630       -7.34120        6.62960
S         -8.15830       -5.83960        4.01210
C         -6.90310       -5.58320        2.81290
C         -5.71340       -6.13870        3.19500
C         -6.98630       -4.78240        1.62440
C         -7.47230       -3.52520        1.43830
C         -6.95770       -2.88940        0.27230
C         -7.03470       -1.53280       -0.08960
C         -7.79350       -0.55300        0.69880
C         -8.69390        0.31130        0.08530
C         -9.39920        1.24940        0.81520
C         -9.21780        1.36390        2.18910
S        -10.04260        2.50510        3.24160
C        -11.03530        3.51730        2.08300
C        -11.73480        4.60780        2.87240
C         -8.30060        0.49800        2.78780
F         -8.08840        0.58650        4.11970
C         -7.59710       -0.44350        2.07430
C         -6.26320       -1.12740       -1.17070
C         -5.45780       -2.01920       -1.91780
C         -5.39450       -3.37580       -1.57600
C         -4.47970       -4.28670       -2.28500
C         -4.95350       -5.36890       -3.02050
C         -4.08110       -6.15520       -3.74040
C         -2.70450       -5.91450       -3.75100
S         -1.78210       -6.94460       -4.84770
C         -0.01850       -6.81490       -4.38530
C          0.27340       -7.49950       -3.06590
C         -2.24410       -4.86170       -2.96730
C         -3.11000       -4.05740       -2.25180
F         -0.92790       -4.56480       -2.86750
C         -6.13600       -3.76890       -0.47930
S         -6.00130       -5.32910        0.27430
C         -4.65080       -1.34980       -2.86570
C         -4.75630        0.00920       -2.81120
S         -5.97390        0.52760       -1.66070
C         -3.81740        0.89630       -3.42610
C         -2.91820        0.54310       -4.38960
C         -1.85070        1.46060       -4.53700
C         -0.71040        1.31440       -5.34300
C         -0.51040        0.10600       -6.15510
C         -0.23220        0.16690       -7.51780
C         -0.08180       -0.99010       -8.25250
C         -0.17030       -2.25090       -7.66090
S          0.06690       -3.64260       -8.72210
C         -0.90930       -5.00390       -7.98190
C         -2.37970       -4.66670       -7.84760
C         -0.38480       -2.29110       -6.28640
F         -0.41190       -3.46470       -5.61530
C         -0.57370       -1.14310       -5.54540
C          0.26130        2.29330       -5.22380
C          0.14790        3.38230       -4.32450
C         -1.02040        3.56350       -3.56510
C         -1.16910        4.72390       -2.67990
C         -0.92190        6.01090       -3.15900
C         -1.09160        7.10830       -2.34480
C         -1.49500        6.97330       -1.01540
S         -1.64310        8.45620       -0.07270
C         -2.92950        8.07200        1.18210
C         -3.53310        9.37220        1.67520
C         -1.70130        5.68100       -0.54160
C         -1.56120        4.57450       -1.35470
F         -2.03450        5.45710        0.74990
C         -1.98910        2.57710       -3.67560
S         -3.45900        2.46750       -2.73810
C          1.37480        4.08480       -4.19840
C          2.37030        3.59050       -4.98240
S          1.83340        2.25120       -5.98180
C          3.75900        3.94010       -4.93900
C          4.70360        3.86400       -5.91250
C          6.01410        4.18010       -5.45770
C          7.21240        4.16680       -6.18770
C          7.21930        3.93990       -7.63740
C          6.38290        4.67510       -8.47670
C          6.39140        4.46190       -9.83790
C          7.23180        3.51400      -10.42010
S          7.17820        3.36640      -12.18110
C          7.36400        1.57190      -12.49400
C          6.28400        0.76080      -11.80710
C          8.08080        2.80810       -9.57290
F          8.94930        1.89700      -10.06300
C          8.07380        3.00200       -8.20650
C          8.38130        4.39200       -5.47130
C          8.40480        4.60320       -4.07160
C          7.20790        4.61850       -3.34340
C          7.17020        4.68760       -1.87630
C          6.33510        5.57860       -1.20660
C          6.20770        5.52410        0.16660
C          6.90340        4.58050        0.91410
S          6.64730        4.51250        2.66900
C          6.20780        2.74670        2.89410
C          4.98060        2.35770        2.09430
C          7.77910        3.73610        0.24000
C          7.91170        3.77350       -1.13270
F          8.51350        2.82950        0.92110
C          6.03680        4.44670       -4.06720
S          4.43250        4.40830       -3.38650
C          9.73040        4.82440       -3.59330
C         10.65380        4.78640       -4.57490
S          9.99030        4.47310       -6.14160
H          1.88080       -1.17310       11.15480
H          3.68540       -1.25710        9.28160
H          3.92580       -0.75420        4.85160
H          6.26860       -0.17490        4.56410
H          8.29430        0.30360        4.15560
H          9.87570        0.57260        4.89760
H          8.85420        1.89000        6.72690
H          7.24240        1.62330        6.06330
H          8.41700        2.60100        5.16960
H          4.92510       -3.17700        8.23790
H         -1.94800       -1.82680        5.59050
H         -4.33440       -2.31280        5.67180
H         -7.57320       -2.56230        7.53450
H         -6.02880       -1.81380        7.09500
H         -7.93060       -3.37870        5.26480
H         -7.57280       -1.65050        5.17940
H         -6.33400       -2.84270        4.74780
H         -1.24290       -4.71270        8.67380
H         -0.88560       -3.92420        4.49730
H          0.95690       -5.07980       -1.11250
H         -1.11470       -5.96210        4.97110
H         -4.69960       -8.40500        8.53900
H         -4.82350       -6.05490        2.60120
H         -8.11750       -3.04100        2.14870
H         -8.85890        0.23970       -0.97900
H        -10.09530        1.89200        0.30210
H        -11.75940        2.86340        1.59660
H        -10.35570        3.94430        1.34550
H        -12.33100        5.22440        2.20330
H        -12.38990        4.17340        3.62400
H        -11.00660        5.24010        3.37500
H         -6.87870       -1.06510        2.58470
H         -6.01200       -5.57810       -3.04320
H         -4.45310       -6.97880       -4.33020
H          0.26800       -5.76640       -4.38530
H          0.48930       -7.32150       -5.20740
H          1.33850       -7.44580       -2.84940
H         -0.26970       -7.02320       -2.25290
H         -0.02240       -8.54540       -3.10620
H         -2.69760       -3.24910       -1.66650
H         -3.95950       -1.86530       -3.50590
H         -2.99760       -0.36110       -4.96380
H         -0.16220        1.12650       -8.00650
H          0.10800       -0.94060       -9.31340
H         -0.46860       -5.28020       -7.02750
H         -0.76000       -5.82080       -8.68800
H         -2.80170       -4.39430       -8.81250
H         -2.91100       -5.53300       -7.45880
H         -2.53040       -3.83910       -7.15740
H         -0.73100       -1.23470       -4.48140
H         -0.62430        6.14780       -4.18750
H         -0.91690        8.10290       -2.72470
H         -2.46250        7.52140        1.99720
H         -3.67860        7.44910        0.69580
H         -3.98590        9.92090        0.85240
H         -2.76950        9.99980        2.12910
H         -4.29820        9.16080        2.41910
H         -1.72790        3.59900       -0.92620
H          1.52520        4.89800       -3.51060
H          4.47820        3.57050       -6.92220
H          5.73390        5.42820       -8.05610
H          5.74270        5.03230      -10.48450
H          8.36220        1.26000      -12.19550
H          7.27930        1.50060      -13.57850
H          6.36890        0.83700      -10.72470
H          5.29690        1.11130      -12.10160
H          6.38080       -0.28670      -12.08510
H          8.73840        2.40940       -7.59760
H          5.77820        6.31390       -1.76640
H          5.54770        6.20380        0.68230
H          7.07260        2.13990        2.63270
H          6.02030        2.66540        3.96420
H          4.13680        2.99080        2.35980
H          5.16420        2.45860        1.02570
H          4.71860        1.32160        2.30170
H          8.57260        3.07010       -1.61530
H          9.95980        5.02290       -2.56200
H         11.71390        4.92450       -4.48820
