
  xtb     03012215133D
 energy: -451.356326181612 gnorm: 0.000517335232 xtb: 6.4.1 (unknown)
225252  0     0  0            999 V2000
    2.1599  -12.2059   -1.5576 C   0  0  0  0  0  0  0  0  0  0  0  0
    3.1533  -11.4460   -1.0531 C   0  0  0  0  0  0  0  0  0  0  0  0
    2.7099  -10.1513   -0.6548 C   0  0  0  0  0  0  0  0  0  0  0  0
    3.4654   -9.0994   -0.1153 C   0  0  0  0  0  0  0  0  0  0  0  0
    4.9109   -9.1886    0.0102 C   0  0  0  0  0  0  0  0  0  0  0  0
    5.7348   -8.8072    1.4918 S   0  0  0  0  0  0  0  0  0  0  0  0
    7.2912   -9.0704    0.7835 C   0  0  0  0  0  0  0  0  0  0  0  0
    8.5418   -8.8430    1.5579 C   0  0  0  0  0  0  0  0  0  0  0  0
    8.9751   -7.3778    1.4658 C   0  0  0  0  0  0  0  0  0  0  0  0
    7.1641   -9.4197   -0.5284 C   0  0  0  0  0  0  0  0  0  0  0  0
    8.4922   -9.7375   -1.5691 Cl  0  0  0  0  0  0  0  0  0  0  0  0
    5.8166   -9.4938   -0.9691 C   0  0  0  0  0  0  0  0  0  0  0  0
    5.3964   -9.8326   -2.5999 Cl  0  0  0  0  0  0  0  0  0  0  0  0
    2.7781   -7.9446    0.2366 C   0  0  0  0  0  0  0  0  0  0  0  0
    1.3905   -7.7748    0.0134 C   0  0  0  0  0  0  0  0  0  0  0  0
    0.6306   -8.8314   -0.5162 C   0  0  0  0  0  0  0  0  0  0  0  0
   -0.8126   -8.7347   -0.6695 C   0  0  0  0  0  0  0  0  0  0  0  0
   -1.5772   -7.4581   -1.5718 S   0  0  0  0  0  0  0  0  0  0  0  0
   -3.1629   -8.0774   -1.2552 C   0  0  0  0  0  0  0  0  0  0  0  0
   -4.3784   -7.4298   -1.8181 C   0  0  0  0  0  0  0  0  0  0  0  0
   -4.5772   -7.8150   -3.2851 C   0  0  0  0  0  0  0  0  0  0  0  0
   -3.0869   -9.2071   -0.4977 C   0  0  0  0  0  0  0  0  0  0  0  0
   -1.7590   -9.5796   -0.1581 C   0  0  0  0  0  0  0  0  0  0  0  0
   -1.4190  -10.9047    0.8734 Cl  0  0  0  0  0  0  0  0  0  0  0  0
   -4.4523  -10.1070    0.0214 Cl  0  0  0  0  0  0  0  0  0  0  0  0
    1.3152   -9.9964   -0.8440 C   0  0  0  0  0  0  0  0  0  0  0  0
    0.6213  -11.4190   -1.5679 S   0  0  0  0  0  0  0  0  0  0  0  0
    0.9514   -6.4856    0.4027 C   0  0  0  0  0  0  0  0  0  0  0  0
    1.9442   -5.7009    0.9110 C   0  0  0  0  0  0  0  0  0  0  0  0
    3.4838   -6.5262    0.9575 S   0  0  0  0  0  0  0  0  0  0  0  0
    1.8093   -4.3718    1.4106 C   0  0  0  0  0  0  0  0  0  0  0  0
    2.7146   -3.6094    2.0872 C   0  0  0  0  0  0  0  0  0  0  0  0
    2.1969   -2.3606    2.5232 C   0  0  0  0  0  0  0  0  0  0  0  0
    2.8257   -1.3605    3.2972 C   0  0  0  0  0  0  0  0  0  0  0  0
    4.1313   -1.5692    3.8918 C   0  0  0  0  0  0  0  0  0  0  0  0
    5.3486   -0.3247    3.8677 S   0  0  0  0  0  0  0  0  0  0  0  0
    6.4943   -1.3143    4.7002 C   0  0  0  0  0  0  0  0  0  0  0  0
    7.8452   -0.7994    5.0536 C   0  0  0  0  0  0  0  0  0  0  0  0
    7.7998   -0.0077    6.3627 C   0  0  0  0  0  0  0  0  0  0  0  0
    5.9424   -2.5230    5.0053 C   0  0  0  0  0  0  0  0  0  0  0  0
    6.7715   -3.7664    5.8478 Cl  0  0  0  0  0  0  0  0  0  0  0  0
    4.6047   -2.6720    4.5544 C   0  0  0  0  0  0  0  0  0  0  0  0
    3.6745   -4.0627    4.9411 Cl  0  0  0  0  0  0  0  0  0  0  0  0
    2.1174   -0.1737    3.4836 C   0  0  0  0  0  0  0  0  0  0  0  0
    0.7844   -0.0224    3.0442 C   0  0  0  0  0  0  0  0  0  0  0  0
    0.1156   -1.0532    2.3690 C   0  0  0  0  0  0  0  0  0  0  0  0
   -1.2860   -0.9101    2.0153 C   0  0  0  0  0  0  0  0  0  0  0  0
   -1.8613   -1.1519    0.3914 S   0  0  0  0  0  0  0  0  0  0  0  0
   -3.4882   -0.7512    0.8281 C   0  0  0  0  0  0  0  0  0  0  0  0
   -4.5941   -0.7989   -0.1664 C   0  0  0  0  0  0  0  0  0  0  0  0
   -5.1804   -2.2089   -0.2605 C   0  0  0  0  0  0  0  0  0  0  0  0
   -3.5680   -0.4703    2.1592 C   0  0  0  0  0  0  0  0  0  0  0  0
   -2.3212   -0.5482    2.8337 C   0  0  0  0  0  0  0  0  0  0  0  0
   -2.1792   -0.2739    4.5227 Cl  0  0  0  0  0  0  0  0  0  0  0  0
   -5.0203   -0.0525    2.9633 Cl  0  0  0  0  0  0  0  0  0  0  0  0
    0.8604   -2.1841    2.0835 C   0  0  0  0  0  0  0  0  0  0  0  0
    0.2671   -3.5634    1.2131 S   0  0  0  0  0  0  0  0  0  0  0  0
    0.2710    1.2598    3.3362 C   0  0  0  0  0  0  0  0  0  0  0  0
    1.1512    2.0757    3.9763 C   0  0  0  0  0  0  0  0  0  0  0  0
    2.6804    1.2872    4.2704 S   0  0  0  0  0  0  0  0  0  0  0  0
    0.7193    3.4394    4.2022 C   0  0  0  0  0  0  0  0  0  0  0  0
   -0.4891    3.7133    4.7613 C   0  0  0  0  0  0  0  0  0  0  0  0
   -1.1084    4.8839    4.2471 C   0  0  0  0  0  0  0  0  0  0  0  0
   -2.4891    5.1500    4.2967 C   0  0  0  0  0  0  0  0  0  0  0  0
   -3.3395    4.3703    5.1808 C   0  0  0  0  0  0  0  0  0  0  0  0
   -4.6466    3.4081    4.5562 S   0  0  0  0  0  0  0  0  0  0  0  0
   -5.0093    2.7473    6.1129 C   0  0  0  0  0  0  0  0  0  0  0  0
   -6.1327    1.7860    6.2833 C   0  0  0  0  0  0  0  0  0  0  0  0
   -7.4701    2.4211    5.9022 C   0  0  0  0  0  0  0  0  0  0  0  0
   -4.1631    3.2567    7.0526 C   0  0  0  0  0  0  0  0  0  0  0  0
   -4.2170    2.8512    8.7203 Cl  0  0  0  0  0  0  0  0  0  0  0  0
   -3.2049    4.1638    6.5249 C   0  0  0  0  0  0  0  0  0  0  0  0
   -2.0311    4.9519    7.4969 Cl  0  0  0  0  0  0  0  0  0  0  0  0
   -3.0015    5.9648    3.2976 C   0  0  0  0  0  0  0  0  0  0  0  0
   -2.1859    6.5882    2.3203 C   0  0  0  0  0  0  0  0  0  0  0  0
   -0.7932    6.3964    2.3380 C   0  0  0  0  0  0  0  0  0  0  0  0
    0.0044    6.8045    1.1829 C   0  0  0  0  0  0  0  0  0  0  0  0
    1.2341    8.0232    1.2197 S   0  0  0  0  0  0  0  0  0  0  0  0
    1.5647    7.8467   -0.4716 C   0  0  0  0  0  0  0  0  0  0  0  0
    2.6448    8.6244   -1.1383 C   0  0  0  0  0  0  0  0  0  0  0  0
    3.9714    7.8626   -1.0801 C   0  0  0  0  0  0  0  0  0  0  0  0
    0.7680    6.8828   -1.0135 C   0  0  0  0  0  0  0  0  0  0  0  0
   -0.1114    6.2846   -0.0751 C   0  0  0  0  0  0  0  0  0  0  0  0
   -1.1722    4.9926   -0.4858 Cl  0  0  0  0  0  0  0  0  0  0  0  0
    0.7587    6.4389   -2.6700 Cl  0  0  0  0  0  0  0  0  0  0  0  0
   -0.2874    5.5233    3.2881 C   0  0  0  0  0  0  0  0  0  0  0  0
    1.2758    4.7466    3.1637 S   0  0  0  0  0  0  0  0  0  0  0  0
   -2.9410    7.0415    1.2085 C   0  0  0  0  0  0  0  0  0  0  0  0
   -4.2546    6.6649    1.2625 C   0  0  0  0  0  0  0  0  0  0  0  0
   -4.6849    6.0440    2.8528 S   0  0  0  0  0  0  0  0  0  0  0  0
   -5.0322    6.2240    0.1423 C   0  0  0  0  0  0  0  0  0  0  0  0
   -4.4659    5.8938   -1.0594 C   0  0  0  0  0  0  0  0  0  0  0  0
   -5.1160    4.8244   -1.7154 C   0  0  0  0  0  0  0  0  0  0  0  0
   -4.5772    4.0420   -2.7529 C   0  0  0  0  0  0  0  0  0  0  0  0
   -3.4105    4.4763   -3.4906 C   0  0  0  0  0  0  0  0  0  0  0  0
   -2.0896    3.3903   -3.8088 S   0  0  0  0  0  0  0  0  0  0  0  0
   -1.2136    4.5906   -4.6865 C   0  0  0  0  0  0  0  0  0  0  0  0
    0.0679    4.2384   -5.3478 C   0  0  0  0  0  0  0  0  0  0  0  0
   -0.1858    3.3729   -6.5829 C   0  0  0  0  0  0  0  0  0  0  0  0
   -1.9067    5.7632   -4.7171 C   0  0  0  0  0  0  0  0  0  0  0  0
   -1.3483    7.1827   -5.5021 Cl  0  0  0  0  0  0  0  0  0  0  0  0
   -3.1500    5.7067   -4.0335 C   0  0  0  0  0  0  0  0  0  0  0  0
   -4.2404    7.0307   -4.0009 Cl  0  0  0  0  0  0  0  0  0  0  0  0
   -5.1486    2.7893   -2.9437 C   0  0  0  0  0  0  0  0  0  0  0  0
   -6.3038    2.3576   -2.2529 C   0  0  0  0  0  0  0  0  0  0  0  0
   -6.8969    3.1842   -1.2811 C   0  0  0  0  0  0  0  0  0  0  0  0
   -8.0367    2.7148   -0.5035 C   0  0  0  0  0  0  0  0  0  0  0  0
   -9.5717    2.3908   -1.2496 S   0  0  0  0  0  0  0  0  0  0  0  0
  -10.2836    1.9034    0.2514 C   0  0  0  0  0  0  0  0  0  0  0  0
  -11.7202    1.5224    0.3384 C   0  0  0  0  0  0  0  0  0  0  0  0
  -12.5973    2.7537    0.5783 C   0  0  0  0  0  0  0  0  0  0  0  0
   -9.3713    1.9942    1.2594 C   0  0  0  0  0  0  0  0  0  0  0  0
   -8.0927    2.4470    0.8350 C   0  0  0  0  0  0  0  0  0  0  0  0
   -6.7496    2.5585    1.8978 Cl  0  0  0  0  0  0  0  0  0  0  0  0
   -9.7053    1.5892    2.8918 Cl  0  0  0  0  0  0  0  0  0  0  0  0
   -6.2582    4.3817   -1.0011 C   0  0  0  0  0  0  0  0  0  0  0  0
   -6.5660    5.4045    0.3791 S   0  0  0  0  0  0  0  0  0  0  0  0
   -6.6059    0.9991   -2.5249 C   0  0  0  0  0  0  0  0  0  0  0  0
   -5.6931    0.3939   -3.3365 C   0  0  0  0  0  0  0  0  0  0  0  0
   -4.4824    1.5121   -3.9222 S   0  0  0  0  0  0  0  0  0  0  0  0
   -5.6358   -1.0038   -3.6444 C   0  0  0  0  0  0  0  0  0  0  0  0
   -7.1452   -1.8543   -3.8709 S   0  0  0  0  0  0  0  0  0  0  0  0
   -6.3593   -3.3794   -3.9638 C   0  0  0  0  0  0  0  0  0  0  0  0
   -5.0177   -3.2335   -3.8254 C   0  0  0  0  0  0  0  0  0  0  0  0
   -4.5692   -1.8787   -3.6603 C   0  0  0  0  0  0  0  0  0  0  0  0
   -3.1471   -1.8386   -3.4449 C   0  0  0  0  0  0  0  0  0  0  0  0
   -2.6261   -3.1275   -3.4150 C   0  0  0  0  0  0  0  0  0  0  0  0
   -3.7406   -4.4239   -3.7114 S   0  0  0  0  0  0  0  0  0  0  0  0
   -0.9475   -3.1962   -3.0927 S   0  0  0  0  0  0  0  0  0  0  0  0
   -0.8944   -1.4394   -3.0497 C   0  0  0  0  0  0  0  0  0  0  0  0
   -2.1276   -0.8772   -3.2493 C   0  0  0  0  0  0  0  0  0  0  0  0
    0.3912   -0.8388   -2.8626 C   0  0  0  0  0  0  0  0  0  0  0  0
    1.4931   -1.4618   -2.3554 C   0  0  0  0  0  0  0  0  0  0  0  0
    2.6614   -0.6611   -2.3653 C   0  0  0  0  0  0  0  0  0  0  0  0
    3.9466   -1.0101   -1.9271 C   0  0  0  0  0  0  0  0  0  0  0  0
    4.3039   -2.3432   -1.4673 C   0  0  0  0  0  0  0  0  0  0  0  0
    4.1257   -3.7403   -2.4895 S   0  0  0  0  0  0  0  0  0  0  0  0
    5.0279   -4.7458   -1.4053 C   0  0  0  0  0  0  0  0  0  0  0  0
    5.3861   -6.1440   -1.7636 C   0  0  0  0  0  0  0  0  0  0  0  0
    6.5520   -6.1715   -2.7538 C   0  0  0  0  0  0  0  0  0  0  0  0
    5.4034   -4.0360   -0.3045 C   0  0  0  0  0  0  0  0  0  0  0  0
    6.3006   -4.6809    1.0062 Cl  0  0  0  0  0  0  0  0  0  0  0  0
    4.9953   -2.6775   -0.3379 C   0  0  0  0  0  0  0  0  0  0  0  0
    5.3079   -1.5911    0.9463 Cl  0  0  0  0  0  0  0  0  0  0  0  0
    4.9384   -0.0400   -2.0341 C   0  0  0  0  0  0  0  0  0  0  0  0
    4.7021    1.2303   -2.6038 C   0  0  0  0  0  0  0  0  0  0  0  0
    3.4245    1.5627   -3.0796 C   0  0  0  0  0  0  0  0  0  0  0  0
    3.2814    2.7993   -3.8456 C   0  0  0  0  0  0  0  0  0  0  0  0
    3.4336    4.3783   -3.1442 S   0  0  0  0  0  0  0  0  0  0  0  0
    3.4265    5.1522   -4.6949 C   0  0  0  0  0  0  0  0  0  0  0  0
    3.5959    6.6246   -4.8305 C   0  0  0  0  0  0  0  0  0  0  0  0
    5.0725    7.0164   -4.7426 C   0  0  0  0  0  0  0  0  0  0  0  0
    3.3115    4.2238   -5.6858 C   0  0  0  0  0  0  0  0  0  0  0  0
    3.2244    2.8887   -5.2065 C   0  0  0  0  0  0  0  0  0  0  0  0
    3.1071    1.5214   -6.2363 Cl  0  0  0  0  0  0  0  0  0  0  0  0
    3.2813    4.6075   -7.3589 Cl  0  0  0  0  0  0  0  0  0  0  0  0
    2.4183    0.6221   -2.9207 C   0  0  0  0  0  0  0  0  0  0  0  0
    0.7436    0.7992   -3.3838 S   0  0  0  0  0  0  0  0  0  0  0  0
    5.8996    2.0003   -2.6927 C   0  0  0  0  0  0  0  0  0  0  0  0
    6.9778    1.3434   -2.2203 C   0  0  0  0  0  0  0  0  0  0  0  0
    6.6214   -0.2441   -1.6382 S   0  0  0  0  0  0  0  0  0  0  0  0
    2.2235  -13.2100   -1.9291 H   0  0  0  0  0  0  0  0  0  0  0  0
    4.1674  -11.7841   -0.9478 H   0  0  0  0  0  0  0  0  0  0  0  0
    9.3282   -9.4833    1.1538 H   0  0  0  0  0  0  0  0  0  0  0  0
    8.3756   -9.1081    2.6032 H   0  0  0  0  0  0  0  0  0  0  0  0
    8.2038   -6.7300    1.8746 H   0  0  0  0  0  0  0  0  0  0  0  0
    9.8931   -7.2241    2.0263 H   0  0  0  0  0  0  0  0  0  0  0  0
    9.1480   -7.1001    0.4291 H   0  0  0  0  0  0  0  0  0  0  0  0
   -5.2430   -7.7488   -1.2336 H   0  0  0  0  0  0  0  0  0  0  0  0
   -4.2825   -6.3456   -1.7399 H   0  0  0  0  0  0  0  0  0  0  0  0
   -3.7193   -7.5026   -3.8751 H   0  0  0  0  0  0  0  0  0  0  0  0
   -5.4652   -7.3295   -3.6806 H   0  0  0  0  0  0  0  0  0  0  0  0
   -4.6946   -8.8914   -3.3802 H   0  0  0  0  0  0  0  0  0  0  0  0
   -0.0651   -6.1473    0.3132 H   0  0  0  0  0  0  0  0  0  0  0  0
    3.7215   -3.9389    2.2642 H   0  0  0  0  0  0  0  0  0  0  0  0
    8.2083   -0.1550    4.2512 H   0  0  0  0  0  0  0  0  0  0  0  0
    8.5263   -1.6458    5.1600 H   0  0  0  0  0  0  0  0  0  0  0  0
    7.1217    0.8372    6.2682 H   0  0  0  0  0  0  0  0  0  0  0  0
    8.7906    0.3642    6.6090 H   0  0  0  0  0  0  0  0  0  0  0  0
    7.4538   -0.6422    7.1747 H   0  0  0  0  0  0  0  0  0  0  0  0
   -5.3733   -0.0972    0.1388 H   0  0  0  0  0  0  0  0  0  0  0  0
   -4.2139   -0.4940   -1.1421 H   0  0  0  0  0  0  0  0  0  0  0  0
   -5.5506   -2.5278    0.7104 H   0  0  0  0  0  0  0  0  0  0  0  0
   -6.0043   -2.2263   -0.9686 H   0  0  0  0  0  0  0  0  0  0  0  0
   -4.4184   -2.9119   -0.5894 H   0  0  0  0  0  0  0  0  0  0  0  0
   -0.7035    1.5912    3.0276 H   0  0  0  0  0  0  0  0  0  0  0  0
   -0.9873    3.0248    5.4194 H   0  0  0  0  0  0  0  0  0  0  0  0
   -6.1543    1.4567    7.3234 H   0  0  0  0  0  0  0  0  0  0  0  0
   -5.9583    0.9129    5.6489 H   0  0  0  0  0  0  0  0  0  0  0  0
   -7.4512    2.7412    4.8633 H   0  0  0  0  0  0  0  0  0  0  0  0
   -7.6724    3.2872    6.5281 H   0  0  0  0  0  0  0  0  0  0  0  0
   -8.2752    1.7023    6.0301 H   0  0  0  0  0  0  0  0  0  0  0  0
    2.3629    8.7947   -2.1794 H   0  0  0  0  0  0  0  0  0  0  0  0
    2.7560    9.5909   -0.6451 H   0  0  0  0  0  0  0  0  0  0  0  0
    3.8668    6.8858   -1.5469 H   0  0  0  0  0  0  0  0  0  0  0  0
    4.2765    7.7189   -0.0466 H   0  0  0  0  0  0  0  0  0  0  0  0
    4.7454    8.4221   -1.5984 H   0  0  0  0  0  0  0  0  0  0  0  0
   -2.4945    7.4989    0.3454 H   0  0  0  0  0  0  0  0  0  0  0  0
   -3.5164    6.2782   -1.3795 H   0  0  0  0  0  0  0  0  0  0  0  0
    0.6906    3.6829   -4.6443 H   0  0  0  0  0  0  0  0  0  0  0  0
    0.5841    5.1563   -5.6330 H   0  0  0  0  0  0  0  0  0  0  0  0
   -0.6759    2.4460   -6.2944 H   0  0  0  0  0  0  0  0  0  0  0  0
    0.7538    3.1326   -7.0701 H   0  0  0  0  0  0  0  0  0  0  0  0
   -0.8198    3.9009   -7.2910 H   0  0  0  0  0  0  0  0  0  0  0  0
  -12.0229    1.0348   -0.5896 H   0  0  0  0  0  0  0  0  0  0  0  0
  -11.8470    0.8182    1.1631 H   0  0  0  0  0  0  0  0  0  0  0  0
  -12.3111    3.2447    1.5049 H   0  0  0  0  0  0  0  0  0  0  0  0
  -12.4860    3.4618   -0.2394 H   0  0  0  0  0  0  0  0  0  0  0  0
  -13.6413    2.4605    0.6469 H   0  0  0  0  0  0  0  0  0  0  0  0
   -7.4261    0.4714   -2.0723 H   0  0  0  0  0  0  0  0  0  0  0  0
   -6.9289   -4.2749   -4.1022 H   0  0  0  0  0  0  0  0  0  0  0  0
   -2.2814    0.1866   -3.2609 H   0  0  0  0  0  0  0  0  0  0  0  0
    1.4716   -2.4688   -1.9777 H   0  0  0  0  0  0  0  0  0  0  0  0
    4.5231   -6.6485   -2.2023 H   0  0  0  0  0  0  0  0  0  0  0  0
    5.6736   -6.6698   -0.8524 H   0  0  0  0  0  0  0  0  0  0  0  0
    6.8089   -7.1990   -2.9948 H   0  0  0  0  0  0  0  0  0  0  0  0
    7.4241   -5.6862   -2.3221 H   0  0  0  0  0  0  0  0  0  0  0  0
    6.2831   -5.6539   -3.6714 H   0  0  0  0  0  0  0  0  0  0  0  0
    3.0384    7.1283   -4.0404 H   0  0  0  0  0  0  0  0  0  0  0  0
    3.1914    6.9347   -5.7957 H   0  0  0  0  0  0  0  0  0  0  0  0
    5.1786    8.0937   -4.8359 H   0  0  0  0  0  0  0  0  0  0  0  0
    5.6370    6.5415   -5.5412 H   0  0  0  0  0  0  0  0  0  0  0  0
    5.4902    6.7048   -3.7881 H   0  0  0  0  0  0  0  0  0  0  0  0
    5.9375    2.9953   -3.0963 H   0  0  0  0  0  0  0  0  0  0  0  0
    7.9910    1.6912   -2.1695 H   0  0  0  0  0  0  0  0  0  0  0  0
  1  2  2  0  0  0  0
  2  3  1  0  0  0  0
  3  4  2  0  0  0  0
  4  5  1  0  0  0  0
  5  6  1  0  0  0  0
  6  7  1  0  0  0  0
  7  8  1  0  0  0  0
  8  9  1  0  0  0  0
  7 10  2  0  0  0  0
 10 11  1  0  0  0  0
 10 12  1  0  0  0  0
 12 13  1  0  0  0  0
  4 14  1  0  0  0  0
 14 15  2  0  0  0  0
 15 16  1  0  0  0  0
 16 17  1  0  0  0  0
 17 18  1  0  0  0  0
 18 19  1  0  0  0  0
 19 20  1  0  0  0  0
 20 21  1  0  0  0  0
 19 22  2  0  0  0  0
 22 23  1  0  0  0  0
 23 24  1  0  0  0  0
 22 25  1  0  0  0  0
 16 26  2  0  0  0  0
 26 27  1  0  0  0  0
 15 28  1  0  0  0  0
 28 29  2  0  0  0  0
 29 30  1  0  0  0  0
 29 31  1  0  0  0  0
 31 32  2  0  0  0  0
 32 33  1  0  0  0  0
 33 34  2  0  0  0  0
 34 35  1  0  0  0  0
 35 36  1  0  0  0  0
 36 37  1  0  0  0  0
 37 38  1  0  0  0  0
 38 39  1  0  0  0  0
 37 40  2  0  0  0  0
 40 41  1  0  0  0  0
 40 42  1  0  0  0  0
 42 43  1  0  0  0  0
 34 44  1  0  0  0  0
 44 45  2  0  0  0  0
 45 46  1  0  0  0  0
 46 47  1  0  0  0  0
 47 48  1  0  0  0  0
 48 49  1  0  0  0  0
 49 50  1  0  0  0  0
 50 51  1  0  0  0  0
 49 52  2  0  0  0  0
 52 53  1  0  0  0  0
 53 54  1  0  0  0  0
 52 55  1  0  0  0  0
 46 56  2  0  0  0  0
 56 57  1  0  0  0  0
 45 58  1  0  0  0  0
 58 59  2  0  0  0  0
 59 60  1  0  0  0  0
 59 61  1  0  0  0  0
 61 62  2  0  0  0  0
 62 63  1  0  0  0  0
 63 64  2  0  0  0  0
 64 65  1  0  0  0  0
 65 66  1  0  0  0  0
 66 67  1  0  0  0  0
 67 68  1  0  0  0  0
 68 69  1  0  0  0  0
 67 70  2  0  0  0  0
 70 71  1  0  0  0  0
 70 72  1  0  0  0  0
 72 73  1  0  0  0  0
 64 74  1  0  0  0  0
 74 75  2  0  0  0  0
 75 76  1  0  0  0  0
 76 77  1  0  0  0  0
 77 78  1  0  0  0  0
 78 79  1  0  0  0  0
 79 80  1  0  0  0  0
 80 81  1  0  0  0  0
 79 82  2  0  0  0  0
 82 83  1  0  0  0  0
 83 84  1  0  0  0  0
 82 85  1  0  0  0  0
 76 86  2  0  0  0  0
 86 87  1  0  0  0  0
 75 88  1  0  0  0  0
 88 89  2  0  0  0  0
 89 90  1  0  0  0  0
 89 91  1  0  0  0  0
 91 92  2  0  0  0  0
 92 93  1  0  0  0  0
 93 94  2  0  0  0  0
 94 95  1  0  0  0  0
 95 96  1  0  0  0  0
 96 97  1  0  0  0  0
 97 98  1  0  0  0  0
 98 99  1  0  0  0  0
 97100  2  0  0  0  0
100101  1  0  0  0  0
100102  1  0  0  0  0
102103  1  0  0  0  0
 94104  1  0  0  0  0
104105  2  0  0  0  0
105106  1  0  0  0  0
106107  1  0  0  0  0
107108  1  0  0  0  0
108109  1  0  0  0  0
109110  1  0  0  0  0
110111  1  0  0  0  0
109112  2  0  0  0  0
112113  1  0  0  0  0
113114  1  0  0  0  0
112115  1  0  0  0  0
106116  2  0  0  0  0
116117  1  0  0  0  0
105118  1  0  0  0  0
118119  2  0  0  0  0
119120  1  0  0  0  0
119121  1  0  0  0  0
121122  1  0  0  0  0
122123  1  0  0  0  0
123124  2  0  0  0  0
124125  1  0  0  0  0
125126  1  0  0  0  0
126127  2  0  0  0  0
127128  1  0  0  0  0
127129  1  0  0  0  0
129130  1  0  0  0  0
130131  2  0  0  0  0
130132  1  0  0  0  0
132133  2  0  0  0  0
133134  1  0  0  0  0
134135  2  0  0  0  0
135136  1  0  0  0  0
136137  1  0  0  0  0
137138  1  0  0  0  0
138139  1  0  0  0  0
139140  1  0  0  0  0
138141  2  0  0  0  0
141142  1  0  0  0  0
141143  1  0  0  0  0
143144  1  0  0  0  0
135145  1  0  0  0  0
145146  2  0  0  0  0
146147  1  0  0  0  0
147148  1  0  0  0  0
148149  1  0  0  0  0
149150  1  0  0  0  0
150151  1  0  0  0  0
151152  1  0  0  0  0
150153  2  0  0  0  0
153154  1  0  0  0  0
154155  1  0  0  0  0
153156  1  0  0  0  0
147157  2  0  0  0  0
157158  1  0  0  0  0
146159  1  0  0  0  0
159160  2  0  0  0  0
160161  1  0  0  0  0
 27  1  1  0  0  0  0
 57 31  1  0  0  0  0
 87 61  1  0  0  0  0
117 91  1  0  0  0  0
125121  2  0  0  0  0
131126  1  0  0  0  0
158132  1  0  0  0  0
 26  3  1  0  0  0  0
 56 33  1  0  0  0  0
 86 63  1  0  0  0  0
116 93  1  0  0  0  0
128124  1  0  0  0  0
157134  1  0  0  0  0
 12  5  2  0  0  0  0
 30 14  1  0  0  0  0
 42 35  2  0  0  0  0
 60 44  1  0  0  0  0
 72 65  2  0  0  0  0
 90 74  1  0  0  0  0
102 95  2  0  0  0  0
120104  1  0  0  0  0
143136  2  0  0  0  0
161145  1  0  0  0  0
 23 17  2  0  0  0  0
 53 47  2  0  0  0  0
 83 77  2  0  0  0  0
113107  2  0  0  0  0
154148  2  0  0  0  0
  1162  1  0  0  0  0
  2163  1  0  0  0  0
  8164  1  0  0  0  0
  8165  1  0  0  0  0
  9166  1  0  0  0  0
  9167  1  0  0  0  0
  9168  1  0  0  0  0
 20169  1  0  0  0  0
 20170  1  0  0  0  0
 21171  1  0  0  0  0
 21172  1  0  0  0  0
 21173  1  0  0  0  0
 28174  1  0  0  0  0
 32175  1  0  0  0  0
 38176  1  0  0  0  0
 38177  1  0  0  0  0
 39178  1  0  0  0  0
 39179  1  0  0  0  0
 39180  1  0  0  0  0
 50181  1  0  0  0  0
 50182  1  0  0  0  0
 51183  1  0  0  0  0
 51184  1  0  0  0  0
 51185  1  0  0  0  0
 58186  1  0  0  0  0
 62187  1  0  0  0  0
 68188  1  0  0  0  0
 68189  1  0  0  0  0
 69190  1  0  0  0  0
 69191  1  0  0  0  0
 69192  1  0  0  0  0
 80193  1  0  0  0  0
 80194  1  0  0  0  0
 81195  1  0  0  0  0
 81196  1  0  0  0  0
 81197  1  0  0  0  0
 88198  1  0  0  0  0
 92199  1  0  0  0  0
 98200  1  0  0  0  0
 98201  1  0  0  0  0
 99202  1  0  0  0  0
 99203  1  0  0  0  0
 99204  1  0  0  0  0
110205  1  0  0  0  0
110206  1  0  0  0  0
111207  1  0  0  0  0
111208  1  0  0  0  0
111209  1  0  0  0  0
118210  1  0  0  0  0
123211  1  0  0  0  0
131212  1  0  0  0  0
133213  1  0  0  0  0
139214  1  0  0  0  0
139215  1  0  0  0  0
140216  1  0  0  0  0
140217  1  0  0  0  0
140218  1  0  0  0  0
151219  1  0  0  0  0
151220  1  0  0  0  0
152221  1  0  0  0  0
152222  1  0  0  0  0
152223  1  0  0  0  0
159224  1  0  0  0  0
160225  1  0  0  0  0
M  END
