
  xtb     03012217223D
 energy: -451.377396539806 gnorm: 0.000386419321 xtb: 6.4.1 (unknown)
225252  0     0  0            999 V2000
    4.0536  -10.0685    6.5596 C   0  0  0  0  0  0  0  0  0  0  0  0
    3.5555  -11.0708    5.8082 C   0  0  0  0  0  0  0  0  0  0  0  0
    2.5193  -10.6414    4.9278 C   0  0  0  0  0  0  0  0  0  0  0  0
    1.8055  -11.4019    3.9875 C   0  0  0  0  0  0  0  0  0  0  0  0
    1.9916  -12.8389    3.8725 C   0  0  0  0  0  0  0  0  0  0  0  0
    2.3325  -13.5919    2.3439 S   0  0  0  0  0  0  0  0  0  0  0  0
    2.3671  -15.1737    3.0435 C   0  0  0  0  0  0  0  0  0  0  0  0
    2.5740  -16.3824    2.1997 C   0  0  0  0  0  0  0  0  0  0  0  0
    1.2617  -16.8128    1.5397 C   0  0  0  0  0  0  0  0  0  0  0  0
    2.1149  -15.1071    4.3814 C   0  0  0  0  0  0  0  0  0  0  0  0
    2.0541  -16.4759    5.4151 Cl  0  0  0  0  0  0  0  0  0  0  0  0
    1.9066  -13.7846    4.8566 C   0  0  0  0  0  0  0  0  0  0  0  0
    1.5048  -13.4427    6.4901 Cl  0  0  0  0  0  0  0  0  0  0  0  0
    0.8980  -10.7232    3.1843 C   0  0  0  0  0  0  0  0  0  0  0  0
    0.6481   -9.3364    3.3168 C   0  0  0  0  0  0  0  0  0  0  0  0
    1.3683   -8.5712    4.2504 C   0  0  0  0  0  0  0  0  0  0  0  0
    1.1653   -7.1354    4.3404 C   0  0  0  0  0  0  0  0  0  0  0  0
    0.8255   -6.3498    5.8533 S   0  0  0  0  0  0  0  0  0  0  0  0
    0.6916   -4.7953    5.1063 C   0  0  0  0  0  0  0  0  0  0  0  0
    0.3363   -3.5825    5.8941 C   0  0  0  0  0  0  0  0  0  0  0  0
   -1.1717   -3.3228    5.8527 C   0  0  0  0  0  0  0  0  0  0  0  0
    0.8974   -4.8946    3.7620 C   0  0  0  0  0  0  0  0  0  0  0  0
    1.1756   -6.2165    3.3255 C   0  0  0  0  0  0  0  0  0  0  0  0
    1.5708   -6.5811    1.6938 Cl  0  0  0  0  0  0  0  0  0  0  0  0
    0.8290   -3.5599    2.6841 Cl  0  0  0  0  0  0  0  0  0  0  0  0
    2.2805   -9.2511    5.0469 C   0  0  0  0  0  0  0  0  0  0  0  0
    3.3146   -8.5348    6.2505 S   0  0  0  0  0  0  0  0  0  0  0  0
   -0.3762   -8.9002    2.4450 C   0  0  0  0  0  0  0  0  0  0  0  0
   -0.8634   -9.8861    1.6364 C   0  0  0  0  0  0  0  0  0  0  0  0
   -0.1053  -11.4313    1.9488 S   0  0  0  0  0  0  0  0  0  0  0  0
   -1.8437   -9.7143    0.6124 C   0  0  0  0  0  0  0  0  0  0  0  0
   -2.4873   -8.5485    0.3114 C   0  0  0  0  0  0  0  0  0  0  0  0
   -3.3565   -8.6557   -0.7960 C   0  0  0  0  0  0  0  0  0  0  0  0
   -4.0919   -7.6262   -1.4008 C   0  0  0  0  0  0  0  0  0  0  0  0
   -4.1124   -6.2718   -0.8759 C   0  0  0  0  0  0  0  0  0  0  0  0
   -4.5917   -5.9050    0.7533 S   0  0  0  0  0  0  0  0  0  0  0  0
   -4.5057   -4.1984    0.4751 C   0  0  0  0  0  0  0  0  0  0  0  0
   -4.7459   -3.2242    1.5742 C   0  0  0  0  0  0  0  0  0  0  0  0
   -3.4482   -2.9533    2.3410 C   0  0  0  0  0  0  0  0  0  0  0  0
   -4.1157   -3.9403   -0.8060 C   0  0  0  0  0  0  0  0  0  0  0  0
   -4.0158   -2.3618   -1.4766 Cl  0  0  0  0  0  0  0  0  0  0  0  0
   -3.8688   -5.1156   -1.5628 C   0  0  0  0  0  0  0  0  0  0  0  0
   -3.1849   -5.1042   -3.1305 Cl  0  0  0  0  0  0  0  0  0  0  0  0
   -4.8056   -7.9541   -2.5446 C   0  0  0  0  0  0  0  0  0  0  0  0
   -4.8178   -9.2532   -3.1093 C   0  0  0  0  0  0  0  0  0  0  0  0
   -4.0936  -10.2888   -2.4885 C   0  0  0  0  0  0  0  0  0  0  0  0
   -4.0835  -11.6375   -3.0289 C   0  0  0  0  0  0  0  0  0  0  0  0
   -3.6682  -11.9440   -4.6900 S   0  0  0  0  0  0  0  0  0  0  0  0
   -3.8374  -13.6554   -4.5008 C   0  0  0  0  0  0  0  0  0  0  0  0
   -3.6547  -14.5808   -5.6525 C   0  0  0  0  0  0  0  0  0  0  0  0
   -4.9329  -14.6686   -6.4900 C   0  0  0  0  0  0  0  0  0  0  0  0
   -4.2072  -13.9550   -3.2239 C   0  0  0  0  0  0  0  0  0  0  0  0
   -4.3405  -12.8163   -2.3847 C   0  0  0  0  0  0  0  0  0  0  0  0
   -4.8625  -12.9346   -0.7570 Cl  0  0  0  0  0  0  0  0  0  0  0  0
   -4.4848  -15.5506   -2.6576 Cl  0  0  0  0  0  0  0  0  0  0  0  0
   -3.3708   -9.9610   -1.3459 C   0  0  0  0  0  0  0  0  0  0  0  0
   -2.3075  -11.0173   -0.4587 S   0  0  0  0  0  0  0  0  0  0  0  0
   -5.6311   -9.3083   -4.2690 C   0  0  0  0  0  0  0  0  0  0  0  0
   -6.2040   -8.1126   -4.5979 C   0  0  0  0  0  0  0  0  0  0  0  0
   -5.8100   -6.8598   -3.4438 S   0  0  0  0  0  0  0  0  0  0  0  0
   -7.0898   -7.8426   -5.6840 C   0  0  0  0  0  0  0  0  0  0  0  0
   -8.0062   -9.1744   -6.3552 S   0  0  0  0  0  0  0  0  0  0  0  0
   -8.8697   -8.1454   -7.4267 C   0  0  0  0  0  0  0  0  0  0  0  0
   -8.4648   -6.8580   -7.2846 C   0  0  0  0  0  0  0  0  0  0  0  0
   -7.4347   -6.6583   -6.3059 C   0  0  0  0  0  0  0  0  0  0  0  0
   -7.0240   -5.2842   -6.2815 C   0  0  0  0  0  0  0  0  0  0  0  0
   -7.7855   -4.5225   -7.1620 C   0  0  0  0  0  0  0  0  0  0  0  0
   -8.9785   -5.3869   -8.0854 S   0  0  0  0  0  0  0  0  0  0  0  0
   -7.3474   -2.8648   -7.1962 S   0  0  0  0  0  0  0  0  0  0  0  0
   -6.0757   -3.1818   -6.0300 C   0  0  0  0  0  0  0  0  0  0  0  0
   -6.0371   -4.4989   -5.6527 C   0  0  0  0  0  0  0  0  0  0  0  0
   -5.2086   -2.1359   -5.5844 C   0  0  0  0  0  0  0  0  0  0  0  0
   -4.0077   -2.2871   -4.9569 C   0  0  0  0  0  0  0  0  0  0  0  0
   -3.3837   -1.0656   -4.6101 C   0  0  0  0  0  0  0  0  0  0  0  0
   -2.1800   -0.8751   -3.9058 C   0  0  0  0  0  0  0  0  0  0  0  0
   -1.3407   -1.9931   -3.5106 C   0  0  0  0  0  0  0  0  0  0  0  0
   -0.7919   -2.1683   -1.8685 S   0  0  0  0  0  0  0  0  0  0  0  0
    0.0108   -3.6607   -2.2082 C   0  0  0  0  0  0  0  0  0  0  0  0
    0.7479   -4.3906   -1.1411 C   0  0  0  0  0  0  0  0  0  0  0  0
    2.0981   -3.7304   -0.8561 C   0  0  0  0  0  0  0  0  0  0  0  0
   -0.1159   -3.9751   -3.5282 C   0  0  0  0  0  0  0  0  0  0  0  0
    0.5515   -5.3847   -4.2462 Cl  0  0  0  0  0  0  0  0  0  0  0  0
   -0.8817   -3.0349   -4.2688 C   0  0  0  0  0  0  0  0  0  0  0  0
   -1.1242   -3.1789   -5.9621 Cl  0  0  0  0  0  0  0  0  0  0  0  0
   -1.8522    0.4325   -3.5719 C   0  0  0  0  0  0  0  0  0  0  0  0
   -2.6429    1.5470   -3.9417 C   0  0  0  0  0  0  0  0  0  0  0  0
   -3.8191    1.3603   -4.6914 C   0  0  0  0  0  0  0  0  0  0  0  0
   -4.6412    2.4863   -5.1007 C   0  0  0  0  0  0  0  0  0  0  0  0
   -5.1917    3.6709   -3.9502 S   0  0  0  0  0  0  0  0  0  0  0  0
   -6.0404    4.5713   -5.1594 C   0  0  0  0  0  0  0  0  0  0  0  0
   -6.8313    5.7835   -4.8095 C   0  0  0  0  0  0  0  0  0  0  0  0
   -8.2696    5.4102   -4.4424 C   0  0  0  0  0  0  0  0  0  0  0  0
   -5.9052    3.9716   -6.3752 C   0  0  0  0  0  0  0  0  0  0  0  0
   -5.1113    2.7930   -6.3478 C   0  0  0  0  0  0  0  0  0  0  0  0
   -4.7237    1.9181   -7.7690 Cl  0  0  0  0  0  0  0  0  0  0  0  0
   -6.6049    4.5761   -7.8201 Cl  0  0  0  0  0  0  0  0  0  0  0  0
   -4.1660    0.0515   -4.9990 C   0  0  0  0  0  0  0  0  0  0  0  0
   -5.6281   -0.4501   -5.7991 S   0  0  0  0  0  0  0  0  0  0  0  0
   -2.0762    2.7653   -3.4968 C   0  0  0  0  0  0  0  0  0  0  0  0
   -0.9081    2.6036   -2.8104 C   0  0  0  0  0  0  0  0  0  0  0  0
   -0.4319    0.9250   -2.6948 S   0  0  0  0  0  0  0  0  0  0  0  0
   -0.1216    3.6357   -2.2135 C   0  0  0  0  0  0  0  0  0  0  0  0
   -0.5265    4.9086   -1.9350 C   0  0  0  0  0  0  0  0  0  0  0  0
    0.4819    5.7043   -1.3417 C   0  0  0  0  0  0  0  0  0  0  0  0
    0.3726    7.0248   -0.8714 C   0  0  0  0  0  0  0  0  0  0  0  0
   -0.8646    7.7724   -1.0255 C   0  0  0  0  0  0  0  0  0  0  0  0
   -1.6227    7.9418   -2.5831 S   0  0  0  0  0  0  0  0  0  0  0  0
   -2.9267    8.8776   -1.9378 C   0  0  0  0  0  0  0  0  0  0  0  0
   -3.9973    9.4258   -2.8156 C   0  0  0  0  0  0  0  0  0  0  0  0
   -3.6123   10.8072   -3.3506 C   0  0  0  0  0  0  0  0  0  0  0  0
   -2.7645    9.0497   -0.5957 C   0  0  0  0  0  0  0  0  0  0  0  0
   -3.8615    9.9223    0.3936 Cl  0  0  0  0  0  0  0  0  0  0  0  0
   -1.6012    8.4221   -0.0739 C   0  0  0  0  0  0  0  0  0  0  0  0
   -1.2395    8.4165    1.6007 Cl  0  0  0  0  0  0  0  0  0  0  0  0
    1.4918    7.5659   -0.2524 C   0  0  0  0  0  0  0  0  0  0  0  0
    2.7099    6.8546   -0.1027 C   0  0  0  0  0  0  0  0  0  0  0  0
    2.8288    5.5448   -0.6019 C   0  0  0  0  0  0  0  0  0  0  0  0
    4.0783    4.8065   -0.5283 C   0  0  0  0  0  0  0  0  0  0  0  0
    4.9611    4.6227    0.9605 S   0  0  0  0  0  0  0  0  0  0  0  0
    6.1932    3.6675    0.2107 C   0  0  0  0  0  0  0  0  0  0  0  0
    7.3805    3.1831    0.9680 C   0  0  0  0  0  0  0  0  0  0  0  0
    8.6091    4.0426    0.6607 C   0  0  0  0  0  0  0  0  0  0  0  0
    5.9280    3.5161   -1.1174 C   0  0  0  0  0  0  0  0  0  0  0  0
    4.7338    4.1581   -1.5402 C   0  0  0  0  0  0  0  0  0  0  0  0
    4.2515    4.1844   -3.1840 Cl  0  0  0  0  0  0  0  0  0  0  0  0
    6.9267    2.6288   -2.1935 Cl  0  0  0  0  0  0  0  0  0  0  0  0
    1.6967    4.9908   -1.1880 C   0  0  0  0  0  0  0  0  0  0  0  0
    1.5402    3.3537   -1.7545 S   0  0  0  0  0  0  0  0  0  0  0  0
    3.6976    7.6348    0.5442 C   0  0  0  0  0  0  0  0  0  0  0  0
    3.2706    8.8868    0.8809 C   0  0  0  0  0  0  0  0  0  0  0  0
    1.6203    9.1782    0.3851 S   0  0  0  0  0  0  0  0  0  0  0  0
    4.0026    9.8847    1.5951 C   0  0  0  0  0  0  0  0  0  0  0  0
    5.1872    9.7207    2.2524 C   0  0  0  0  0  0  0  0  0  0  0  0
    5.6381   10.8950    2.9030 C   0  0  0  0  0  0  0  0  0  0  0  0
    6.7840   11.0581    3.6988 C   0  0  0  0  0  0  0  0  0  0  0  0
    7.6697    9.9409    3.9856 C   0  0  0  0  0  0  0  0  0  0  0  0
    7.0505    8.4731    4.6863 S   0  0  0  0  0  0  0  0  0  0  0  0
    8.6217    7.7519    4.7609 C   0  0  0  0  0  0  0  0  0  0  0  0
    8.8075    6.3628    5.2640 C   0  0  0  0  0  0  0  0  0  0  0  0
    8.5609    5.3421    4.1508 C   0  0  0  0  0  0  0  0  0  0  0  0
    9.5570    8.6034    4.2542 C   0  0  0  0  0  0  0  0  0  0  0  0
   11.2288    8.2324    4.1460 Cl  0  0  0  0  0  0  0  0  0  0  0  0
    9.0233    9.8483    3.8220 C   0  0  0  0  0  0  0  0  0  0  0  0
    9.9919   11.0612    3.0964 Cl  0  0  0  0  0  0  0  0  0  0  0  0
    7.0015   12.3196    4.2399 C   0  0  0  0  0  0  0  0  0  0  0  0
    6.1278   13.4121    4.0213 C   0  0  0  0  0  0  0  0  0  0  0  0
    4.9852   13.2500    3.2235 C   0  0  0  0  0  0  0  0  0  0  0  0
    4.0491   14.3401    2.9948 C   0  0  0  0  0  0  0  0  0  0  0  0
    3.2981   15.1797    4.3200 S   0  0  0  0  0  0  0  0  0  0  0  0
    2.3750   16.1900    3.2609 C   0  0  0  0  0  0  0  0  0  0  0  0
    1.4009   17.1820    3.7931 C   0  0  0  0  0  0  0  0  0  0  0  0
    0.0524   16.5191    4.0852 C   0  0  0  0  0  0  0  0  0  0  0  0
    2.6411   15.8797    1.9609 C   0  0  0  0  0  0  0  0  0  0  0  0
    3.5901   14.8332    1.8057 C   0  0  0  0  0  0  0  0  0  0  0  0
    4.1462   14.3164    0.2693 Cl  0  0  0  0  0  0  0  0  0  0  0  0
    1.9185   16.6715    0.6214 Cl  0  0  0  0  0  0  0  0  0  0  0  0
    4.7649   11.9888    2.6836 C   0  0  0  0  0  0  0  0  0  0  0  0
    3.3893   11.5164    1.7307 S   0  0  0  0  0  0  0  0  0  0  0  0
    6.5734   14.5835    4.7004 C   0  0  0  0  0  0  0  0  0  0  0  0
    7.7001   14.3783    5.4125 C   0  0  0  0  0  0  0  0  0  0  0  0
    8.3069   12.7637    5.3017 S   0  0  0  0  0  0  0  0  0  0  0  0
    4.8315  -10.1213    7.2958 H   0  0  0  0  0  0  0  0  0  0  0  0
    3.9113  -12.0832    5.8552 H   0  0  0  0  0  0  0  0  0  0  0  0
    3.3139  -16.1643    1.4275 H   0  0  0  0  0  0  0  0  0  0  0  0
    2.9512  -17.1902    2.8293 H   0  0  0  0  0  0  0  0  0  0  0  0
    0.8762  -16.0137    0.9110 H   0  0  0  0  0  0  0  0  0  0  0  0
    1.4242  -17.6945    0.9258 H   0  0  0  0  0  0  0  0  0  0  0  0
    0.5183  -17.0477    2.2973 H   0  0  0  0  0  0  0  0  0  0  0  0
    0.6564   -3.7191    6.9278 H   0  0  0  0  0  0  0  0  0  0  0  0
    0.8625   -2.7222    5.4748 H   0  0  0  0  0  0  0  0  0  0  0  0
   -1.4129   -2.4387    6.4365 H   0  0  0  0  0  0  0  0  0  0  0  0
   -1.7129   -4.1714    6.2641 H   0  0  0  0  0  0  0  0  0  0  0  0
   -1.4975   -3.1631    4.8281 H   0  0  0  0  0  0  0  0  0  0  0  0
   -0.7431   -7.8922    2.4268 H   0  0  0  0  0  0  0  0  0  0  0  0
   -2.3374   -7.6310    0.8481 H   0  0  0  0  0  0  0  0  0  0  0  0
   -5.1167   -2.2926    1.1435 H   0  0  0  0  0  0  0  0  0  0  0  0
   -5.4981   -3.6206    2.2580 H   0  0  0  0  0  0  0  0  0  0  0  0
   -2.6931   -2.5472    1.6723 H   0  0  0  0  0  0  0  0  0  0  0  0
   -3.6293   -2.2382    3.1390 H   0  0  0  0  0  0  0  0  0  0  0  0
   -3.0698   -3.8758    2.7762 H   0  0  0  0  0  0  0  0  0  0  0  0
   -2.8345  -14.2249   -6.2784 H   0  0  0  0  0  0  0  0  0  0  0  0
   -3.3994  -15.5700   -5.2685 H   0  0  0  0  0  0  0  0  0  0  0  0
   -5.1934  -13.6894   -6.8847 H   0  0  0  0  0  0  0  0  0  0  0  0
   -4.7879  -15.3530   -7.3213 H   0  0  0  0  0  0  0  0  0  0  0  0
   -5.7581  -15.0293   -5.8812 H   0  0  0  0  0  0  0  0  0  0  0  0
   -5.7795  -10.1972   -4.8546 H   0  0  0  0  0  0  0  0  0  0  0  0
   -9.6098   -8.5506   -8.0855 H   0  0  0  0  0  0  0  0  0  0  0  0
   -5.3229   -4.8762   -4.9486 H   0  0  0  0  0  0  0  0  0  0  0  0
   -3.5840   -3.2470   -4.7441 H   0  0  0  0  0  0  0  0  0  0  0  0
    0.1511   -4.3956   -0.2264 H   0  0  0  0  0  0  0  0  0  0  0  0
    0.9003   -5.4227   -1.4621 H   0  0  0  0  0  0  0  0  0  0  0  0
    2.7154   -3.7288   -1.7510 H   0  0  0  0  0  0  0  0  0  0  0  0
    1.9526   -2.7027   -0.5312 H   0  0  0  0  0  0  0  0  0  0  0  0
    2.6194   -4.2743   -0.0732 H   0  0  0  0  0  0  0  0  0  0  0  0
   -6.3603    6.2917   -3.9663 H   0  0  0  0  0  0  0  0  0  0  0  0
   -6.8381    6.4573   -5.6685 H   0  0  0  0  0  0  0  0  0  0  0  0
   -8.2784    4.7386   -3.5873 H   0  0  0  0  0  0  0  0  0  0  0  0
   -8.7542    4.9138   -5.2792 H   0  0  0  0  0  0  0  0  0  0  0  0
   -8.8350    6.3035   -4.1916 H   0  0  0  0  0  0  0  0  0  0  0  0
   -2.5069    3.7285   -3.6949 H   0  0  0  0  0  0  0  0  0  0  0  0
   -1.5252    5.2560   -2.1209 H   0  0  0  0  0  0  0  0  0  0  0  0
   -4.1638    8.7447   -3.6520 H   0  0  0  0  0  0  0  0  0  0  0  0
   -4.9193    9.5042   -2.2359 H   0  0  0  0  0  0  0  0  0  0  0  0
   -4.4048   11.1962   -3.9842 H   0  0  0  0  0  0  0  0  0  0  0  0
   -2.6971   10.7444   -3.9342 H   0  0  0  0  0  0  0  0  0  0  0  0
   -3.4528   11.4984   -2.5271 H   0  0  0  0  0  0  0  0  0  0  0  0
    7.5850    2.1490    0.6821 H   0  0  0  0  0  0  0  0  0  0  0  0
    7.1652    3.2147    2.0367 H   0  0  0  0  0  0  0  0  0  0  0  0
    8.8492    3.9904   -0.3976 H   0  0  0  0  0  0  0  0  0  0  0  0
    8.4200    5.0808    0.9220 H   0  0  0  0  0  0  0  0  0  0  0  0
    9.4638    3.6870    1.2294 H   0  0  0  0  0  0  0  0  0  0  0  0
    4.6902    7.2815    0.7492 H   0  0  0  0  0  0  0  0  0  0  0  0
    5.7152    8.7864    2.2851 H   0  0  0  0  0  0  0  0  0  0  0  0
    8.1135    6.1796    6.0859 H   0  0  0  0  0  0  0  0  0  0  0  0
    9.8282    6.2589    5.6360 H   0  0  0  0  0  0  0  0  0  0  0  0
    7.5479    5.4400    3.7668 H   0  0  0  0  0  0  0  0  0  0  0  0
    9.2623    5.5026    3.3365 H   0  0  0  0  0  0  0  0  0  0  0  0
    8.6950    4.3336    4.5327 H   0  0  0  0  0  0  0  0  0  0  0  0
    1.7951   17.6233    4.7102 H   0  0  0  0  0  0  0  0  0  0  0  0
    1.2671   17.9725    3.0522 H   0  0  0  0  0  0  0  0  0  0  0  0
   -0.3582   16.0849    3.1772 H   0  0  0  0  0  0  0  0  0  0  0  0
    0.1719   15.7305    4.8244 H   0  0  0  0  0  0  0  0  0  0  0  0
   -0.6497   17.2544    4.4688 H   0  0  0  0  0  0  0  0  0  0  0  0
    6.0645   15.5282    4.6490 H   0  0  0  0  0  0  0  0  0  0  0  0
    8.2390   15.0871    6.0103 H   0  0  0  0  0  0  0  0  0  0  0  0
  1  2  2  0  0  0  0
  2  3  1  0  0  0  0
  3  4  2  0  0  0  0
  4  5  1  0  0  0  0
  5  6  1  0  0  0  0
  6  7  1  0  0  0  0
  7  8  1  0  0  0  0
  8  9  1  0  0  0  0
  7 10  2  0  0  0  0
 10 11  1  0  0  0  0
 10 12  1  0  0  0  0
 12 13  1  0  0  0  0
  4 14  1  0  0  0  0
 14 15  2  0  0  0  0
 15 16  1  0  0  0  0
 16 17  1  0  0  0  0
 17 18  1  0  0  0  0
 18 19  1  0  0  0  0
 19 20  1  0  0  0  0
 20 21  1  0  0  0  0
 19 22  2  0  0  0  0
 22 23  1  0  0  0  0
 23 24  1  0  0  0  0
 22 25  1  0  0  0  0
 16 26  2  0  0  0  0
 26 27  1  0  0  0  0
 15 28  1  0  0  0  0
 28 29  2  0  0  0  0
 29 30  1  0  0  0  0
 29 31  1  0  0  0  0
 31 32  2  0  0  0  0
 32 33  1  0  0  0  0
 33 34  2  0  0  0  0
 34 35  1  0  0  0  0
 35 36  1  0  0  0  0
 36 37  1  0  0  0  0
 37 38  1  0  0  0  0
 38 39  1  0  0  0  0
 37 40  2  0  0  0  0
 40 41  1  0  0  0  0
 40 42  1  0  0  0  0
 42 43  1  0  0  0  0
 34 44  1  0  0  0  0
 44 45  2  0  0  0  0
 45 46  1  0  0  0  0
 46 47  1  0  0  0  0
 47 48  1  0  0  0  0
 48 49  1  0  0  0  0
 49 50  1  0  0  0  0
 50 51  1  0  0  0  0
 49 52  2  0  0  0  0
 52 53  1  0  0  0  0
 53 54  1  0  0  0  0
 52 55  1  0  0  0  0
 46 56  2  0  0  0  0
 56 57  1  0  0  0  0
 45 58  1  0  0  0  0
 58 59  2  0  0  0  0
 59 60  1  0  0  0  0
 59 61  1  0  0  0  0
 61 62  1  0  0  0  0
 62 63  1  0  0  0  0
 63 64  2  0  0  0  0
 64 65  1  0  0  0  0
 65 66  1  0  0  0  0
 66 67  2  0  0  0  0
 67 68  1  0  0  0  0
 67 69  1  0  0  0  0
 69 70  1  0  0  0  0
 70 71  2  0  0  0  0
 70 72  1  0  0  0  0
 72 73  2  0  0  0  0
 73 74  1  0  0  0  0
 74 75  2  0  0  0  0
 75 76  1  0  0  0  0
 76 77  1  0  0  0  0
 77 78  1  0  0  0  0
 78 79  1  0  0  0  0
 79 80  1  0  0  0  0
 78 81  2  0  0  0  0
 81 82  1  0  0  0  0
 81 83  1  0  0  0  0
 83 84  1  0  0  0  0
 75 85  1  0  0  0  0
 85 86  2  0  0  0  0
 86 87  1  0  0  0  0
 87 88  1  0  0  0  0
 88 89  1  0  0  0  0
 89 90  1  0  0  0  0
 90 91  1  0  0  0  0
 91 92  1  0  0  0  0
 90 93  2  0  0  0  0
 93 94  1  0  0  0  0
 94 95  1  0  0  0  0
 93 96  1  0  0  0  0
 87 97  2  0  0  0  0
 97 98  1  0  0  0  0
 86 99  1  0  0  0  0
 99100  2  0  0  0  0
100101  1  0  0  0  0
100102  1  0  0  0  0
102103  2  0  0  0  0
103104  1  0  0  0  0
104105  2  0  0  0  0
105106  1  0  0  0  0
106107  1  0  0  0  0
107108  1  0  0  0  0
108109  1  0  0  0  0
109110  1  0  0  0  0
108111  2  0  0  0  0
111112  1  0  0  0  0
111113  1  0  0  0  0
113114  1  0  0  0  0
105115  1  0  0  0  0
115116  2  0  0  0  0
116117  1  0  0  0  0
117118  1  0  0  0  0
118119  1  0  0  0  0
119120  1  0  0  0  0
120121  1  0  0  0  0
121122  1  0  0  0  0
120123  2  0  0  0  0
123124  1  0  0  0  0
124125  1  0  0  0  0
123126  1  0  0  0  0
117127  2  0  0  0  0
127128  1  0  0  0  0
116129  1  0  0  0  0
129130  2  0  0  0  0
130131  1  0  0  0  0
130132  1  0  0  0  0
132133  2  0  0  0  0
133134  1  0  0  0  0
134135  2  0  0  0  0
135136  1  0  0  0  0
136137  1  0  0  0  0
137138  1  0  0  0  0
138139  1  0  0  0  0
139140  1  0  0  0  0
138141  2  0  0  0  0
141142  1  0  0  0  0
141143  1  0  0  0  0
143144  1  0  0  0  0
135145  1  0  0  0  0
145146  2  0  0  0  0
146147  1  0  0  0  0
147148  1  0  0  0  0
148149  1  0  0  0  0
149150  1  0  0  0  0
150151  1  0  0  0  0
151152  1  0  0  0  0
150153  2  0  0  0  0
153154  1  0  0  0  0
154155  1  0  0  0  0
153156  1  0  0  0  0
147157  2  0  0  0  0
157158  1  0  0  0  0
146159  1  0  0  0  0
159160  2  0  0  0  0
160161  1  0  0  0  0
 27  1  1  0  0  0  0
 57 31  1  0  0  0  0
 65 61  2  0  0  0  0
 71 66  1  0  0  0  0
 98 72  1  0  0  0  0
128102  1  0  0  0  0
158132  1  0  0  0  0
 26  3  1  0  0  0  0
 56 33  1  0  0  0  0
 68 64  1  0  0  0  0
 97 74  1  0  0  0  0
127104  1  0  0  0  0
157134  1  0  0  0  0
 12  5  2  0  0  0  0
 30 14  1  0  0  0  0
 42 35  2  0  0  0  0
 60 44  1  0  0  0  0
 83 76  2  0  0  0  0
101 85  1  0  0  0  0
113106  2  0  0  0  0
131115  1  0  0  0  0
143136  2  0  0  0  0
161145  1  0  0  0  0
 23 17  2  0  0  0  0
 53 47  2  0  0  0  0
 94 88  2  0  0  0  0
124118  2  0  0  0  0
154148  2  0  0  0  0
  1162  1  0  0  0  0
  2163  1  0  0  0  0
  8164  1  0  0  0  0
  8165  1  0  0  0  0
  9166  1  0  0  0  0
  9167  1  0  0  0  0
  9168  1  0  0  0  0
 20169  1  0  0  0  0
 20170  1  0  0  0  0
 21171  1  0  0  0  0
 21172  1  0  0  0  0
 21173  1  0  0  0  0
 28174  1  0  0  0  0
 32175  1  0  0  0  0
 38176  1  0  0  0  0
 38177  1  0  0  0  0
 39178  1  0  0  0  0
 39179  1  0  0  0  0
 39180  1  0  0  0  0
 50181  1  0  0  0  0
 50182  1  0  0  0  0
 51183  1  0  0  0  0
 51184  1  0  0  0  0
 51185  1  0  0  0  0
 58186  1  0  0  0  0
 63187  1  0  0  0  0
 71188  1  0  0  0  0
 73189  1  0  0  0  0
 79190  1  0  0  0  0
 79191  1  0  0  0  0
 80192  1  0  0  0  0
 80193  1  0  0  0  0
 80194  1  0  0  0  0
 91195  1  0  0  0  0
 91196  1  0  0  0  0
 92197  1  0  0  0  0
 92198  1  0  0  0  0
 92199  1  0  0  0  0
 99200  1  0  0  0  0
103201  1  0  0  0  0
109202  1  0  0  0  0
109203  1  0  0  0  0
110204  1  0  0  0  0
110205  1  0  0  0  0
110206  1  0  0  0  0
121207  1  0  0  0  0
121208  1  0  0  0  0
122209  1  0  0  0  0
122210  1  0  0  0  0
122211  1  0  0  0  0
129212  1  0  0  0  0
133213  1  0  0  0  0
139214  1  0  0  0  0
139215  1  0  0  0  0
140216  1  0  0  0  0
140217  1  0  0  0  0
140218  1  0  0  0  0
151219  1  0  0  0  0
151220  1  0  0  0  0
152221  1  0  0  0  0
152222  1  0  0  0  0
152223  1  0  0  0  0
159224  1  0  0  0  0
160225  1  0  0  0  0
M  END
