
  xtb     03022201423D
 energy: -451.380041693243 gnorm: 0.000377016635 xtb: 6.4.1 (unknown)
225252  0     0  0            999 V2000
    2.7931  -13.0564    5.1079 C   0  0  0  0  0  0  0  0  0  0  0  0
    2.1817  -13.5646    6.1972 C   0  0  0  0  0  0  0  0  0  0  0  0
    0.7653  -13.6357    6.0523 C   0  0  0  0  0  0  0  0  0  0  0  0
   -0.1881  -14.0761    6.9822 C   0  0  0  0  0  0  0  0  0  0  0  0
    0.1984  -14.4881    8.3227 C   0  0  0  0  0  0  0  0  0  0  0  0
   -0.2482  -16.0393    8.9655 S   0  0  0  0  0  0  0  0  0  0  0  0
    0.5419  -15.7272   10.4729 C   0  0  0  0  0  0  0  0  0  0  0  0
    0.4985  -16.7150   11.5858 C   0  0  0  0  0  0  0  0  0  0  0  0
   -0.7778  -16.5453   12.4136 C   0  0  0  0  0  0  0  0  0  0  0  0
    1.1007  -14.4840   10.4679 C   0  0  0  0  0  0  0  0  0  0  0  0
    1.9594  -13.8150   11.7948 Cl  0  0  0  0  0  0  0  0  0  0  0  0
    0.9134  -13.7803    9.2481 C   0  0  0  0  0  0  0  0  0  0  0  0
    1.4693  -12.1736    9.0097 Cl  0  0  0  0  0  0  0  0  0  0  0  0
   -1.5164  -14.0755    6.5766 C   0  0  0  0  0  0  0  0  0  0  0  0
   -1.9369  -13.6175    5.3052 C   0  0  0  0  0  0  0  0  0  0  0  0
   -0.9811  -13.1739    4.3752 C   0  0  0  0  0  0  0  0  0  0  0  0
   -1.3705  -12.6902    3.0612 C   0  0  0  0  0  0  0  0  0  0  0  0
   -2.5253  -11.4029    2.9159 S   0  0  0  0  0  0  0  0  0  0  0  0
   -2.4428  -11.4096    1.1893 C   0  0  0  0  0  0  0  0  0  0  0  0
   -3.3102  -10.5150    0.3757 C   0  0  0  0  0  0  0  0  0  0  0  0
   -4.7459  -11.0417    0.3237 C   0  0  0  0  0  0  0  0  0  0  0  0
   -1.5658  -12.3631    0.7668 C   0  0  0  0  0  0  0  0  0  0  0  0
   -0.9460  -13.0846    1.8239 C   0  0  0  0  0  0  0  0  0  0  0  0
    0.1497  -14.3707    1.5386 Cl  0  0  0  0  0  0  0  0  0  0  0  0
   -1.2228  -12.6843   -0.8844 Cl  0  0  0  0  0  0  0  0  0  0  0  0
    0.3497  -13.1915    4.7746 C   0  0  0  0  0  0  0  0  0  0  0  0
    1.7051  -12.6483    3.8292 S   0  0  0  0  0  0  0  0  0  0  0  0
   -3.3468  -13.7078    5.1504 C   0  0  0  0  0  0  0  0  0  0  0  0
   -3.9851  -14.1972    6.2497 C   0  0  0  0  0  0  0  0  0  0  0  0
   -2.8677  -14.5864    7.5458 S   0  0  0  0  0  0  0  0  0  0  0  0
   -5.3832  -14.4537    6.4326 C   0  0  0  0  0  0  0  0  0  0  0  0
   -5.8864  -15.8474    7.3575 S   0  0  0  0  0  0  0  0  0  0  0  0
   -7.5546  -15.5245    7.0938 C   0  0  0  0  0  0  0  0  0  0  0  0
   -7.7121  -14.4017    6.3476 C   0  0  0  0  0  0  0  0  0  0  0  0
   -6.4839  -13.7702    5.9637 C   0  0  0  0  0  0  0  0  0  0  0  0
   -6.7403  -12.5523    5.2581 C   0  0  0  0  0  0  0  0  0  0  0  0
   -8.1049  -12.3338    5.1092 C   0  0  0  0  0  0  0  0  0  0  0  0
   -9.1434  -13.5501    5.7937 S   0  0  0  0  0  0  0  0  0  0  0  0
   -8.4778  -10.8575    4.3111 S   0  0  0  0  0  0  0  0  0  0  0  0
   -6.7645  -10.5032    4.1801 C   0  0  0  0  0  0  0  0  0  0  0  0
   -5.9862  -11.4946    4.7228 C   0  0  0  0  0  0  0  0  0  0  0  0
   -6.2774   -9.3069    3.5783 C   0  0  0  0  0  0  0  0  0  0  0  0
   -6.9303   -8.2430    3.0292 C   0  0  0  0  0  0  0  0  0  0  0  0
   -6.0538   -7.2441    2.5280 C   0  0  0  0  0  0  0  0  0  0  0  0
   -6.3733   -6.0468    1.8635 C   0  0  0  0  0  0  0  0  0  0  0  0
   -7.7527   -5.6354    1.6646 C   0  0  0  0  0  0  0  0  0  0  0  0
   -8.8625   -5.5305    3.0002 S   0  0  0  0  0  0  0  0  0  0  0  0
  -10.1544   -4.9836    1.9879 C   0  0  0  0  0  0  0  0  0  0  0  0
  -11.4849   -4.6287    2.5535 C   0  0  0  0  0  0  0  0  0  0  0  0
  -11.5176   -3.1630    2.9935 C   0  0  0  0  0  0  0  0  0  0  0  0
   -9.7338   -4.8884    0.6951 C   0  0  0  0  0  0  0  0  0  0  0  0
  -10.7378   -4.3819   -0.6008 Cl  0  0  0  0  0  0  0  0  0  0  0  0
   -8.3757   -5.2600    0.5063 C   0  0  0  0  0  0  0  0  0  0  0  0
   -7.6458   -5.3096   -1.0432 Cl  0  0  0  0  0  0  0  0  0  0  0  0
   -5.3100   -5.2692    1.4157 C   0  0  0  0  0  0  0  0  0  0  0  0
   -3.9539   -5.6569    1.5575 C   0  0  0  0  0  0  0  0  0  0  0  0
   -3.6283   -6.8579    2.2111 C   0  0  0  0  0  0  0  0  0  0  0  0
   -2.2640   -7.3501    2.3019 C   0  0  0  0  0  0  0  0  0  0  0  0
   -1.2658   -7.4496    0.8728 S   0  0  0  0  0  0  0  0  0  0  0  0
    0.0158   -8.2454    1.7182 C   0  0  0  0  0  0  0  0  0  0  0  0
    1.2596   -8.6786    1.0246 C   0  0  0  0  0  0  0  0  0  0  0  0
    1.1737  -10.1464    0.6011 C   0  0  0  0  0  0  0  0  0  0  0  0
   -0.3204   -8.4165    3.0274 C   0  0  0  0  0  0  0  0  0  0  0  0
   -1.6007   -7.9012    3.3655 C   0  0  0  0  0  0  0  0  0  0  0  0
   -2.1602   -7.8885    4.9840 Cl  0  0  0  0  0  0  0  0  0  0  0  0
    0.6872   -9.1936    4.1783 Cl  0  0  0  0  0  0  0  0  0  0  0  0
   -4.6935   -7.6006    2.7045 C   0  0  0  0  0  0  0  0  0  0  0  0
   -4.5404   -9.1172    3.5241 S   0  0  0  0  0  0  0  0  0  0  0  0
   -3.0667   -4.6875    1.0394 C   0  0  0  0  0  0  0  0  0  0  0  0
   -3.6969   -3.5868    0.5327 C   0  0  0  0  0  0  0  0  0  0  0  0
   -5.4362   -3.7063    0.6613 S   0  0  0  0  0  0  0  0  0  0  0  0
   -3.0681   -2.4422   -0.0426 C   0  0  0  0  0  0  0  0  0  0  0  0
   -1.7276   -2.2672   -0.2337 C   0  0  0  0  0  0  0  0  0  0  0  0
   -1.3965   -1.0245   -0.8208 C   0  0  0  0  0  0  0  0  0  0  0  0
   -0.1172   -0.5512   -1.1690 C   0  0  0  0  0  0  0  0  0  0  0  0
    1.0449   -1.4147   -1.0665 C   0  0  0  0  0  0  0  0  0  0  0  0
    2.5001   -0.8976   -0.2667 S   0  0  0  0  0  0  0  0  0  0  0  0
    3.2869   -2.4119   -0.5476 C   0  0  0  0  0  0  0  0  0  0  0  0
    4.6556   -2.6831   -0.0284 C   0  0  0  0  0  0  0  0  0  0  0  0
    4.5986   -3.2683    1.3849 C   0  0  0  0  0  0  0  0  0  0  0  0
    2.4581   -3.2591   -1.2215 C   0  0  0  0  0  0  0  0  0  0  0  0
    2.8860   -4.8590   -1.6702 Cl  0  0  0  0  0  0  0  0  0  0  0  0
    1.1906   -2.6968   -1.5259 C   0  0  0  0  0  0  0  0  0  0  0  0
    0.0178   -3.5370   -2.4588 Cl  0  0  0  0  0  0  0  0  0  0  0  0
   -0.0350    0.7653   -1.6012 C   0  0  0  0  0  0  0  0  0  0  0  0
   -1.1757    1.5913   -1.7554 C   0  0  0  0  0  0  0  0  0  0  0  0
   -2.4658    1.0779   -1.5230 C   0  0  0  0  0  0  0  0  0  0  0  0
   -3.6416    1.8874   -1.7845 C   0  0  0  0  0  0  0  0  0  0  0  0
   -4.9149    2.0466   -0.6104 S   0  0  0  0  0  0  0  0  0  0  0  0
   -5.8135    3.1312   -1.6139 C   0  0  0  0  0  0  0  0  0  0  0  0
   -7.1422    3.6532   -1.1918 C   0  0  0  0  0  0  0  0  0  0  0  0
   -8.2580    2.6884   -1.6020 C   0  0  0  0  0  0  0  0  0  0  0  0
   -5.1611    3.3352   -2.7933 C   0  0  0  0  0  0  0  0  0  0  0  0
   -3.9311    2.6335   -2.8963 C   0  0  0  0  0  0  0  0  0  0  0  0
   -2.9792    2.6678   -4.3268 Cl  0  0  0  0  0  0  0  0  0  0  0  0
   -5.7426    4.3564   -4.0431 Cl  0  0  0  0  0  0  0  0  0  0  0  0
   -2.5420   -0.2167   -1.0276 C   0  0  0  0  0  0  0  0  0  0  0  0
   -3.9974   -1.0594   -0.5779 S   0  0  0  0  0  0  0  0  0  0  0  0
   -0.8243    2.9080   -2.1310 C   0  0  0  0  0  0  0  0  0  0  0  0
    0.5164    3.0842   -2.3183 C   0  0  0  0  0  0  0  0  0  0  0  0
    1.4241    1.6192   -2.0165 S   0  0  0  0  0  0  0  0  0  0  0  0
    1.1596    4.2931   -2.7201 C   0  0  0  0  0  0  0  0  0  0  0  0
    0.5416    5.4675   -3.0412 C   0  0  0  0  0  0  0  0  0  0  0  0
    1.4372    6.4964   -3.4117 C   0  0  0  0  0  0  0  0  0  0  0  0
    1.1246    7.8268   -3.7457 C   0  0  0  0  0  0  0  0  0  0  0  0
   -0.2597    8.2612   -3.8327 C   0  0  0  0  0  0  0  0  0  0  0  0
   -1.4056    7.3833   -4.8070 S   0  0  0  0  0  0  0  0  0  0  0  0
   -2.7036    8.4468   -4.3859 C   0  0  0  0  0  0  0  0  0  0  0  0
   -4.0673    8.2551   -4.9512 C   0  0  0  0  0  0  0  0  0  0  0  0
   -4.1531    8.7979   -6.3792 C   0  0  0  0  0  0  0  0  0  0  0  0
   -2.2571    9.4265   -3.5505 C   0  0  0  0  0  0  0  0  0  0  0  0
   -3.2540   10.6696   -2.9133 Cl  0  0  0  0  0  0  0  0  0  0  0  0
   -0.8757    9.3235   -3.2310 C   0  0  0  0  0  0  0  0  0  0  0  0
   -0.1146   10.3820   -2.1192 Cl  0  0  0  0  0  0  0  0  0  0  0  0
    2.1938    8.6798   -3.9857 C   0  0  0  0  0  0  0  0  0  0  0  0
    3.5452    8.2522   -3.9255 C   0  0  0  0  0  0  0  0  0  0  0  0
    3.8544    6.9102   -3.6362 C   0  0  0  0  0  0  0  0  0  0  0  0
    5.2274    6.4345   -3.6341 C   0  0  0  0  0  0  0  0  0  0  0  0
    6.4760    7.2467   -2.7343 S   0  0  0  0  0  0  0  0  0  0  0  0
    7.6912    6.1306   -3.2519 C   0  0  0  0  0  0  0  0  0  0  0  0
    9.1216    6.3126   -2.8807 C   0  0  0  0  0  0  0  0  0  0  0  0
    9.8627    7.0913   -3.9711 C   0  0  0  0  0  0  0  0  0  0  0  0
    7.1479    5.1901   -4.0745 C   0  0  0  0  0  0  0  0  0  0  0  0
    5.7535    5.3549   -4.2906 C   0  0  0  0  0  0  0  0  0  0  0  0
    4.8737    4.3450   -5.3589 Cl  0  0  0  0  0  0  0  0  0  0  0  0
    8.0482    3.9194   -4.7940 Cl  0  0  0  0  0  0  0  0  0  0  0  0
    2.7861    6.0643   -3.3655 C   0  0  0  0  0  0  0  0  0  0  0  0
    2.8976    4.4014   -2.8656 S   0  0  0  0  0  0  0  0  0  0  0  0
    4.4417    9.3053   -4.2233 C   0  0  0  0  0  0  0  0  0  0  0  0
    3.8220   10.4897   -4.4977 C   0  0  0  0  0  0  0  0  0  0  0  0
    2.0813   10.3563   -4.4354 S   0  0  0  0  0  0  0  0  0  0  0  0
    4.4656   11.7355   -4.7756 C   0  0  0  0  0  0  0  0  0  0  0  0
    5.7659   12.0495   -4.5066 C   0  0  0  0  0  0  0  0  0  0  0  0
    6.1246   13.3601   -4.9046 C   0  0  0  0  0  0  0  0  0  0  0  0
    7.3560   14.0126   -4.7258 C   0  0  0  0  0  0  0  0  0  0  0  0
    8.4704   13.3693   -4.0495 C   0  0  0  0  0  0  0  0  0  0  0  0
    9.0729   11.8113   -4.5358 S   0  0  0  0  0  0  0  0  0  0  0  0
   10.3084   11.8170   -3.3202 C   0  0  0  0  0  0  0  0  0  0  0  0
   11.2606   10.6814   -3.1750 C   0  0  0  0  0  0  0  0  0  0  0  0
   11.9610   10.3534   -4.4921 C   0  0  0  0  0  0  0  0  0  0  0  0
   10.2394   12.9632   -2.5875 C   0  0  0  0  0  0  0  0  0  0  0  0
   11.2906   13.3364   -1.2831 Cl  0  0  0  0  0  0  0  0  0  0  0  0
    9.1998   13.8429   -2.9943 C   0  0  0  0  0  0  0  0  0  0  0  0
    8.8614   15.3005   -2.1596 Cl  0  0  0  0  0  0  0  0  0  0  0  0
    7.4533   15.3141   -5.2062 C   0  0  0  0  0  0  0  0  0  0  0  0
    6.3694   15.9948   -5.8102 C   0  0  0  0  0  0  0  0  0  0  0  0
    5.1277   15.3565   -5.9518 C   0  0  0  0  0  0  0  0  0  0  0  0
    3.9845   16.0423   -6.5336 C   0  0  0  0  0  0  0  0  0  0  0  0
    3.4241   17.5561   -5.8860 S   0  0  0  0  0  0  0  0  0  0  0  0
    2.1249   17.6538   -7.0252 C   0  0  0  0  0  0  0  0  0  0  0  0
    1.1487   18.7771   -6.9864 C   0  0  0  0  0  0  0  0  0  0  0  0
    0.0624   18.5220   -5.9387 C   0  0  0  0  0  0  0  0  0  0  0  0
    2.1354   16.5673   -7.8476 C   0  0  0  0  0  0  0  0  0  0  0  0
    3.1888   15.6530   -7.5744 C   0  0  0  0  0  0  0  0  0  0  0  0
    3.4617   14.2546   -8.5266 Cl  0  0  0  0  0  0  0  0  0  0  0  0
    1.0019   16.3115   -9.1101 Cl  0  0  0  0  0  0  0  0  0  0  0  0
    5.0368   14.0452   -5.5013 C   0  0  0  0  0  0  0  0  0  0  0  0
    3.6047   13.0580   -5.5260 S   0  0  0  0  0  0  0  0  0  0  0  0
    6.7482   17.2954   -6.2542 C   0  0  0  0  0  0  0  0  0  0  0  0
    8.0447   17.5743   -6.0097 C   0  0  0  0  0  0  0  0  0  0  0  0
    8.8920   16.2931   -5.2181 S   0  0  0  0  0  0  0  0  0  0  0  0
    3.8424  -12.8927    4.9578 H   0  0  0  0  0  0  0  0  0  0  0  0
    2.7049  -13.8894    7.0773 H   0  0  0  0  0  0  0  0  0  0  0  0
    0.5338  -17.7255   11.1754 H   0  0  0  0  0  0  0  0  0  0  0  0
    1.3714  -16.5641   12.2236 H   0  0  0  0  0  0  0  0  0  0  0  0
   -0.8186  -15.5471   12.8418 H   0  0  0  0  0  0  0  0  0  0  0  0
   -1.6549  -16.6912   11.7876 H   0  0  0  0  0  0  0  0  0  0  0  0
   -0.7983  -17.2722   13.2209 H   0  0  0  0  0  0  0  0  0  0  0  0
   -2.9020  -10.4538   -0.6343 H   0  0  0  0  0  0  0  0  0  0  0  0
   -3.3128   -9.5143    0.8103 H   0  0  0  0  0  0  0  0  0  0  0  0
   -5.3692  -10.3663   -0.2561 H   0  0  0  0  0  0  0  0  0  0  0  0
   -4.7722  -12.0256   -0.1380 H   0  0  0  0  0  0  0  0  0  0  0  0
   -5.1562  -11.1180    1.3284 H   0  0  0  0  0  0  0  0  0  0  0  0
   -3.8600  -13.4620    4.2394 H   0  0  0  0  0  0  0  0  0  0  0  0
   -8.3013  -16.1731    7.5031 H   0  0  0  0  0  0  0  0  0  0  0  0
   -4.9130  -11.4417    4.7496 H   0  0  0  0  0  0  0  0  0  0  0  0
   -8.0020   -8.1809    2.9758 H   0  0  0  0  0  0  0  0  0  0  0  0
  -11.6980   -5.2710    3.4096 H   0  0  0  0  0  0  0  0  0  0  0  0
  -12.2466   -4.7969    1.7898 H   0  0  0  0  0  0  0  0  0  0  0  0
  -12.4948   -2.9174    3.4001 H   0  0  0  0  0  0  0  0  0  0  0  0
  -10.7651   -2.9812    3.7571 H   0  0  0  0  0  0  0  0  0  0  0  0
  -11.3179   -2.5115    2.1466 H   0  0  0  0  0  0  0  0  0  0  0  0
    1.4197   -8.0523    0.1455 H   0  0  0  0  0  0  0  0  0  0  0  0
    2.1033   -8.5495    1.7061 H   0  0  0  0  0  0  0  0  0  0  0  0
    0.3434  -10.2938   -0.0845 H   0  0  0  0  0  0  0  0  0  0  0  0
    1.0285  -10.7839    1.4698 H   0  0  0  0  0  0  0  0  0  0  0  0
    2.0928  -10.4439    0.1041 H   0  0  0  0  0  0  0  0  0  0  0  0
   -1.9993   -4.7981    1.0610 H   0  0  0  0  0  0  0  0  0  0  0  0
   -0.9945   -2.9949    0.0570 H   0  0  0  0  0  0  0  0  0  0  0  0
    5.1506   -3.3916   -0.6956 H   0  0  0  0  0  0  0  0  0  0  0  0
    5.2275   -1.7542   -0.0160 H   0  0  0  0  0  0  0  0  0  0  0  0
    4.0411   -4.2015    1.3841 H   0  0  0  0  0  0  0  0  0  0  0  0
    4.1106   -2.5716    2.0623 H   0  0  0  0  0  0  0  0  0  0  0  0
    5.6038   -3.4631    1.7484 H   0  0  0  0  0  0  0  0  0  0  0  0
   -7.1531    3.7825   -0.1085 H   0  0  0  0  0  0  0  0  0  0  0  0
   -7.3063    4.6241   -1.6636 H   0  0  0  0  0  0  0  0  0  0  0  0
   -8.2692    2.5625   -2.6818 H   0  0  0  0  0  0  0  0  0  0  0  0
   -9.2223    3.0774   -1.2867 H   0  0  0  0  0  0  0  0  0  0  0  0
   -8.1040    1.7160   -1.1401 H   0  0  0  0  0  0  0  0  0  0  0  0
   -1.5390    3.7020   -2.2312 H   0  0  0  0  0  0  0  0  0  0  0  0
   -0.5231    5.5964   -3.0063 H   0  0  0  0  0  0  0  0  0  0  0  0
   -4.3123    7.1911   -4.9536 H   0  0  0  0  0  0  0  0  0  0  0  0
   -4.7843    8.7772   -4.3153 H   0  0  0  0  0  0  0  0  0  0  0  0
   -5.1550    8.6521   -6.7735 H   0  0  0  0  0  0  0  0  0  0  0  0
   -3.4456    8.2801   -7.0226 H   0  0  0  0  0  0  0  0  0  0  0  0
   -3.9232    9.8604   -6.3937 H   0  0  0  0  0  0  0  0  0  0  0  0
    9.1847    6.8515   -1.9342 H   0  0  0  0  0  0  0  0  0  0  0  0
    9.5838    5.3313   -2.7577 H   0  0  0  0  0  0  0  0  0  0  0  0
   10.9032    7.2303   -3.6903 H   0  0  0  0  0  0  0  0  0  0  0  0
    9.4027    8.0657   -4.1202 H   0  0  0  0  0  0  0  0  0  0  0  0
    9.8269    6.5463   -4.9106 H   0  0  0  0  0  0  0  0  0  0  0  0
    5.5084    9.1896   -4.2482 H   0  0  0  0  0  0  0  0  0  0  0  0
    6.4414   11.3720   -4.0195 H   0  0  0  0  0  0  0  0  0  0  0  0
   10.7186    9.7989   -2.8244 H   0  0  0  0  0  0  0  0  0  0  0  0
   11.9962   10.9507   -2.4154 H   0  0  0  0  0  0  0  0  0  0  0  0
   12.5125   11.2181   -4.8524 H   0  0  0  0  0  0  0  0  0  0  0  0
   12.6583    9.5320   -4.3514 H   0  0  0  0  0  0  0  0  0  0  0  0
   11.2330   10.0675   -5.2476 H   0  0  0  0  0  0  0  0  0  0  0  0
    0.6911   18.8761   -7.9724 H   0  0  0  0  0  0  0  0  0  0  0  0
    1.6718   19.7049   -6.7474 H   0  0  0  0  0  0  0  0  0  0  0  0
   -0.4763   17.6066   -6.1699 H   0  0  0  0  0  0  0  0  0  0  0  0
    0.5067   18.4239   -4.9510 H   0  0  0  0  0  0  0  0  0  0  0  0
   -0.6433   19.3482   -5.9240 H   0  0  0  0  0  0  0  0  0  0  0  0
    6.0741   17.9746   -6.7427 H   0  0  0  0  0  0  0  0  0  0  0  0
    8.5806   18.4727   -6.2456 H   0  0  0  0  0  0  0  0  0  0  0  0
  1  2  2  0  0  0  0
  2  3  1  0  0  0  0
  3  4  2  0  0  0  0
  4  5  1  0  0  0  0
  5  6  1  0  0  0  0
  6  7  1  0  0  0  0
  7  8  1  0  0  0  0
  8  9  1  0  0  0  0
  7 10  2  0  0  0  0
 10 11  1  0  0  0  0
 10 12  1  0  0  0  0
 12 13  1  0  0  0  0
  4 14  1  0  0  0  0
 14 15  2  0  0  0  0
 15 16  1  0  0  0  0
 16 17  1  0  0  0  0
 17 18  1  0  0  0  0
 18 19  1  0  0  0  0
 19 20  1  0  0  0  0
 20 21  1  0  0  0  0
 19 22  2  0  0  0  0
 22 23  1  0  0  0  0
 23 24  1  0  0  0  0
 22 25  1  0  0  0  0
 16 26  2  0  0  0  0
 26 27  1  0  0  0  0
 15 28  1  0  0  0  0
 28 29  2  0  0  0  0
 29 30  1  0  0  0  0
 29 31  1  0  0  0  0
 31 32  1  0  0  0  0
 32 33  1  0  0  0  0
 33 34  2  0  0  0  0
 34 35  1  0  0  0  0
 35 36  1  0  0  0  0
 36 37  2  0  0  0  0
 37 38  1  0  0  0  0
 37 39  1  0  0  0  0
 39 40  1  0  0  0  0
 40 41  2  0  0  0  0
 40 42  1  0  0  0  0
 42 43  2  0  0  0  0
 43 44  1  0  0  0  0
 44 45  2  0  0  0  0
 45 46  1  0  0  0  0
 46 47  1  0  0  0  0
 47 48  1  0  0  0  0
 48 49  1  0  0  0  0
 49 50  1  0  0  0  0
 48 51  2  0  0  0  0
 51 52  1  0  0  0  0
 51 53  1  0  0  0  0
 53 54  1  0  0  0  0
 45 55  1  0  0  0  0
 55 56  2  0  0  0  0
 56 57  1  0  0  0  0
 57 58  1  0  0  0  0
 58 59  1  0  0  0  0
 59 60  1  0  0  0  0
 60 61  1  0  0  0  0
 61 62  1  0  0  0  0
 60 63  2  0  0  0  0
 63 64  1  0  0  0  0
 64 65  1  0  0  0  0
 63 66  1  0  0  0  0
 57 67  2  0  0  0  0
 67 68  1  0  0  0  0
 56 69  1  0  0  0  0
 69 70  2  0  0  0  0
 70 71  1  0  0  0  0
 70 72  1  0  0  0  0
 72 73  2  0  0  0  0
 73 74  1  0  0  0  0
 74 75  2  0  0  0  0
 75 76  1  0  0  0  0
 76 77  1  0  0  0  0
 77 78  1  0  0  0  0
 78 79  1  0  0  0  0
 79 80  1  0  0  0  0
 78 81  2  0  0  0  0
 81 82  1  0  0  0  0
 81 83  1  0  0  0  0
 83 84  1  0  0  0  0
 75 85  1  0  0  0  0
 85 86  2  0  0  0  0
 86 87  1  0  0  0  0
 87 88  1  0  0  0  0
 88 89  1  0  0  0  0
 89 90  1  0  0  0  0
 90 91  1  0  0  0  0
 91 92  1  0  0  0  0
 90 93  2  0  0  0  0
 93 94  1  0  0  0  0
 94 95  1  0  0  0  0
 93 96  1  0  0  0  0
 87 97  2  0  0  0  0
 97 98  1  0  0  0  0
 86 99  1  0  0  0  0
 99100  2  0  0  0  0
100101  1  0  0  0  0
100102  1  0  0  0  0
102103  2  0  0  0  0
103104  1  0  0  0  0
104105  2  0  0  0  0
105106  1  0  0  0  0
106107  1  0  0  0  0
107108  1  0  0  0  0
108109  1  0  0  0  0
109110  1  0  0  0  0
108111  2  0  0  0  0
111112  1  0  0  0  0
111113  1  0  0  0  0
113114  1  0  0  0  0
105115  1  0  0  0  0
115116  2  0  0  0  0
116117  1  0  0  0  0
117118  1  0  0  0  0
118119  1  0  0  0  0
119120  1  0  0  0  0
120121  1  0  0  0  0
121122  1  0  0  0  0
120123  2  0  0  0  0
123124  1  0  0  0  0
124125  1  0  0  0  0
123126  1  0  0  0  0
117127  2  0  0  0  0
127128  1  0  0  0  0
116129  1  0  0  0  0
129130  2  0  0  0  0
130131  1  0  0  0  0
130132  1  0  0  0  0
132133  2  0  0  0  0
133134  1  0  0  0  0
134135  2  0  0  0  0
135136  1  0  0  0  0
136137  1  0  0  0  0
137138  1  0  0  0  0
138139  1  0  0  0  0
139140  1  0  0  0  0
138141  2  0  0  0  0
141142  1  0  0  0  0
141143  1  0  0  0  0
143144  1  0  0  0  0
135145  1  0  0  0  0
145146  2  0  0  0  0
146147  1  0  0  0  0
147148  1  0  0  0  0
148149  1  0  0  0  0
149150  1  0  0  0  0
150151  1  0  0  0  0
151152  1  0  0  0  0
150153  2  0  0  0  0
153154  1  0  0  0  0
154155  1  0  0  0  0
153156  1  0  0  0  0
147157  2  0  0  0  0
157158  1  0  0  0  0
146159  1  0  0  0  0
159160  2  0  0  0  0
160161  1  0  0  0  0
 27  1  1  0  0  0  0
 35 31  2  0  0  0  0
 41 36  1  0  0  0  0
 68 42  1  0  0  0  0
 98 72  1  0  0  0  0
128102  1  0  0  0  0
158132  1  0  0  0  0
 26  3  1  0  0  0  0
 38 34  1  0  0  0  0
 67 44  1  0  0  0  0
 97 74  1  0  0  0  0
127104  1  0  0  0  0
157134  1  0  0  0  0
 12  5  2  0  0  0  0
 30 14  1  0  0  0  0
 53 46  2  0  0  0  0
 71 55  1  0  0  0  0
 83 76  2  0  0  0  0
101 85  1  0  0  0  0
113106  2  0  0  0  0
131115  1  0  0  0  0
143136  2  0  0  0  0
161145  1  0  0  0  0
 23 17  2  0  0  0  0
 64 58  2  0  0  0  0
 94 88  2  0  0  0  0
124118  2  0  0  0  0
154148  2  0  0  0  0
  1162  1  0  0  0  0
  2163  1  0  0  0  0
  8164  1  0  0  0  0
  8165  1  0  0  0  0
  9166  1  0  0  0  0
  9167  1  0  0  0  0
  9168  1  0  0  0  0
 20169  1  0  0  0  0
 20170  1  0  0  0  0
 21171  1  0  0  0  0
 21172  1  0  0  0  0
 21173  1  0  0  0  0
 28174  1  0  0  0  0
 33175  1  0  0  0  0
 41176  1  0  0  0  0
 43177  1  0  0  0  0
 49178  1  0  0  0  0
 49179  1  0  0  0  0
 50180  1  0  0  0  0
 50181  1  0  0  0  0
 50182  1  0  0  0  0
 61183  1  0  0  0  0
 61184  1  0  0  0  0
 62185  1  0  0  0  0
 62186  1  0  0  0  0
 62187  1  0  0  0  0
 69188  1  0  0  0  0
 73189  1  0  0  0  0
 79190  1  0  0  0  0
 79191  1  0  0  0  0
 80192  1  0  0  0  0
 80193  1  0  0  0  0
 80194  1  0  0  0  0
 91195  1  0  0  0  0
 91196  1  0  0  0  0
 92197  1  0  0  0  0
 92198  1  0  0  0  0
 92199  1  0  0  0  0
 99200  1  0  0  0  0
103201  1  0  0  0  0
109202  1  0  0  0  0
109203  1  0  0  0  0
110204  1  0  0  0  0
110205  1  0  0  0  0
110206  1  0  0  0  0
121207  1  0  0  0  0
121208  1  0  0  0  0
122209  1  0  0  0  0
122210  1  0  0  0  0
122211  1  0  0  0  0
129212  1  0  0  0  0
133213  1  0  0  0  0
139214  1  0  0  0  0
139215  1  0  0  0  0
140216  1  0  0  0  0
140217  1  0  0  0  0
140218  1  0  0  0  0
151219  1  0  0  0  0
151220  1  0  0  0  0
152221  1  0  0  0  0
152222  1  0  0  0  0
152223  1  0  0  0  0
159224  1  0  0  0  0
160225  1  0  0  0  0
M  END
