
  xtb     03022200103D
 energy: -338.178312317248 gnorm: 0.000288581824 xtb: 6.4.1 (unknown)
167190  0     0  0            999 V2000
   11.0901   -0.8453    2.0039 C   0  0  0  0  0  0  0  0  0  0  0  0
   12.2974   -1.8487    1.2990 S   0  0  0  0  0  0  0  0  0  0  0  0
   12.8612   -0.5814    0.2758 C   0  0  0  0  0  0  0  0  0  0  0  0
   12.1410    0.5491    0.4811 C   0  0  0  0  0  0  0  0  0  0  0  0
   11.1137    0.4093    1.4752 C   0  0  0  0  0  0  0  0  0  0  0  0
   10.3999    1.6381    1.6526 C   0  0  0  0  0  0  0  0  0  0  0  0
   10.9019    2.6314    0.8268 C   0  0  0  0  0  0  0  0  0  0  0  0
   12.2212    2.1601   -0.2119 S   0  0  0  0  0  0  0  0  0  0  0  0
   10.1061    4.1411    1.0272 S   0  0  0  0  0  0  0  0  0  0  0  0
    9.0537    3.4246    2.2393 C   0  0  0  0  0  0  0  0  0  0  0  0
    9.3414    2.1026    2.4559 C   0  0  0  0  0  0  0  0  0  0  0  0
    8.0477    4.2054    2.8925 C   0  0  0  0  0  0  0  0  0  0  0  0
    8.3310    5.8654    3.3541 S   0  0  0  0  0  0  0  0  0  0  0  0
    6.7992    5.9948    4.1327 C   0  0  0  0  0  0  0  0  0  0  0  0
    6.1111    4.8294    4.0335 C   0  0  0  0  0  0  0  0  0  0  0  0
    6.8019    3.8012    3.3152 C   0  0  0  0  0  0  0  0  0  0  0  0
    5.9871    2.6347    3.1753 C   0  0  0  0  0  0  0  0  0  0  0  0
    4.7709    2.7909    3.8274 C   0  0  0  0  0  0  0  0  0  0  0  0
    4.5237    4.3341    4.5984 S   0  0  0  0  0  0  0  0  0  0  0  0
    3.7446    1.4215    3.6841 S   0  0  0  0  0  0  0  0  0  0  0  0
    4.9515    0.6243    2.6931 C   0  0  0  0  0  0  0  0  0  0  0  0
    6.0719    1.3948    2.5179 C   0  0  0  0  0  0  0  0  0  0  0  0
    4.7332   -0.6738    2.1392 C   0  0  0  0  0  0  0  0  0  0  0  0
    5.3857   -1.2026    1.0645 C   0  0  0  0  0  0  0  0  0  0  0  0
    4.9903   -2.5263    0.7590 C   0  0  0  0  0  0  0  0  0  0  0  0
    5.4703   -3.3587   -0.2671 C   0  0  0  0  0  0  0  0  0  0  0  0
    6.5769   -2.9369   -1.1069 C   0  0  0  0  0  0  0  0  0  0  0  0
    6.4896   -3.0171   -2.8419 S   0  0  0  0  0  0  0  0  0  0  0  0
    8.0703   -2.3403   -3.0329 C   0  0  0  0  0  0  0  0  0  0  0  0
    8.6371   -2.0685   -4.3824 C   0  0  0  0  0  0  0  0  0  0  0  0
    8.2160   -0.6855   -4.8855 C   0  0  0  0  0  0  0  0  0  0  0  0
    8.6202   -2.0692   -1.8154 C   0  0  0  0  0  0  0  0  0  0  0  0
   10.1743   -1.3717   -1.5991 Cl  0  0  0  0  0  0  0  0  0  0  0  0
    7.7822   -2.4143   -0.7229 C   0  0  0  0  0  0  0  0  0  0  0  0
    8.2976   -2.2638    0.9062 Cl  0  0  0  0  0  0  0  0  0  0  0  0
    4.8393   -4.5861   -0.4238 C   0  0  0  0  0  0  0  0  0  0  0  0
    3.7941   -5.0317    0.4223 C   0  0  0  0  0  0  0  0  0  0  0  0
    3.3669   -4.2299    1.4954 C   0  0  0  0  0  0  0  0  0  0  0  0
    2.3941   -4.6810    2.4804 C   0  0  0  0  0  0  0  0  0  0  0  0
    2.8310   -4.6558    4.1671 S   0  0  0  0  0  0  0  0  0  0  0  0
    1.2968   -5.2806    4.6612 C   0  0  0  0  0  0  0  0  0  0  0  0
    0.9673   -5.4697    6.1005 C   0  0  0  0  0  0  0  0  0  0  0  0
    0.4791   -4.1593    6.7228 C   0  0  0  0  0  0  0  0  0  0  0  0
    0.4993   -5.4805    3.5755 C   0  0  0  0  0  0  0  0  0  0  0  0
    1.1199   -5.1520    2.3392 C   0  0  0  0  0  0  0  0  0  0  0  0
    0.2793   -5.2885    0.8523 Cl  0  0  0  0  0  0  0  0  0  0  0  0
   -1.1083   -6.0779    3.6619 Cl  0  0  0  0  0  0  0  0  0  0  0  0
    3.9743   -2.9878    1.6292 C   0  0  0  0  0  0  0  0  0  0  0  0
    3.5696   -1.7862    2.8219 S   0  0  0  0  0  0  0  0  0  0  0  0
    3.3412   -6.3254    0.0518 C   0  0  0  0  0  0  0  0  0  0  0  0
    4.0035   -6.8528   -1.0123 C   0  0  0  0  0  0  0  0  0  0  0  0
    5.2573   -5.7883   -1.6132 S   0  0  0  0  0  0  0  0  0  0  0  0
    3.6633   -8.0905   -1.6662 C   0  0  0  0  0  0  0  0  0  0  0  0
    4.7342   -9.4476   -1.8790 S   0  0  0  0  0  0  0  0  0  0  0  0
    3.4829  -10.4275   -2.5532 C   0  0  0  0  0  0  0  0  0  0  0  0
    2.3139   -9.7408   -2.6235 C   0  0  0  0  0  0  0  0  0  0  0  0
    2.4132   -8.4004   -2.1358 C   0  0  0  0  0  0  0  0  0  0  0  0
    1.1859   -7.6912   -2.2910 C   0  0  0  0  0  0  0  0  0  0  0  0
    0.1917   -8.5111   -2.8025 C   0  0  0  0  0  0  0  0  0  0  0  0
    0.6934  -10.1414   -3.1783 S   0  0  0  0  0  0  0  0  0  0  0  0
   -1.3142   -7.6972   -2.9810 S   0  0  0  0  0  0  0  0  0  0  0  0
   -0.5805   -6.2108   -2.3940 C   0  0  0  0  0  0  0  0  0  0  0  0
    0.7441   -6.3749   -2.0880 C   0  0  0  0  0  0  0  0  0  0  0  0
   -1.3364   -5.0142   -2.2300 C   0  0  0  0  0  0  0  0  0  0  0  0
   -2.6883   -4.8451   -2.2289 C   0  0  0  0  0  0  0  0  0  0  0  0
   -3.0901   -3.5169   -1.9412 C   0  0  0  0  0  0  0  0  0  0  0  0
   -4.3976   -3.0057   -1.8702 C   0  0  0  0  0  0  0  0  0  0  0  0
   -5.5523   -3.8421   -2.1530 C   0  0  0  0  0  0  0  0  0  0  0  0
   -5.6653   -4.7412   -3.6385 S   0  0  0  0  0  0  0  0  0  0  0  0
   -7.2257   -5.3705   -3.2331 C   0  0  0  0  0  0  0  0  0  0  0  0
   -7.9252   -6.3301   -4.1308 C   0  0  0  0  0  0  0  0  0  0  0  0
   -7.3727   -7.7465   -3.9537 C   0  0  0  0  0  0  0  0  0  0  0  0
   -7.6166   -4.9105   -2.0116 C   0  0  0  0  0  0  0  0  0  0  0  0
   -9.1047   -5.3243   -1.2641 Cl  0  0  0  0  0  0  0  0  0  0  0  0
   -6.6755   -4.0393   -1.3990 C   0  0  0  0  0  0  0  0  0  0  0  0
   -6.9149   -3.3899    0.1686 Cl  0  0  0  0  0  0  0  0  0  0  0  0
   -4.5313   -1.6599   -1.5521 C   0  0  0  0  0  0  0  0  0  0  0  0
   -3.4205   -0.8172   -1.3017 C   0  0  0  0  0  0  0  0  0  0  0  0
   -2.1091   -1.3219   -1.3840 C   0  0  0  0  0  0  0  0  0  0  0  0
   -0.9666   -0.4383   -1.2201 C   0  0  0  0  0  0  0  0  0  0  0  0
   -0.9193    1.0662   -2.0997 S   0  0  0  0  0  0  0  0  0  0  0  0
    0.6133    1.5088   -1.4335 C   0  0  0  0  0  0  0  0  0  0  0  0
    1.2244    2.8295   -1.7474 C   0  0  0  0  0  0  0  0  0  0  0  0
    0.3995    3.9688   -1.1444 C   0  0  0  0  0  0  0  0  0  0  0  0
    1.0565    0.5328   -0.5933 C   0  0  0  0  0  0  0  0  0  0  0  0
    0.1703   -0.5732   -0.4710 C   0  0  0  0  0  0  0  0  0  0  0  0
    0.4975   -1.8706    0.6000 Cl  0  0  0  0  0  0  0  0  0  0  0  0
    2.5499    0.6043    0.2495 Cl  0  0  0  0  0  0  0  0  0  0  0  0
   -1.9798   -2.6682   -1.6987 C   0  0  0  0  0  0  0  0  0  0  0  0
   -0.4806   -3.5223   -1.8972 S   0  0  0  0  0  0  0  0  0  0  0  0
   -3.8246    0.5039   -0.9998 C   0  0  0  0  0  0  0  0  0  0  0  0
   -5.1725    0.6946   -1.0681 C   0  0  0  0  0  0  0  0  0  0  0  0
   -6.0296   -0.7740   -1.4772 S   0  0  0  0  0  0  0  0  0  0  0  0
   -5.8558    1.9280   -0.8617 C   0  0  0  0  0  0  0  0  0  0  0  0
   -7.1880    2.1968   -0.9524 C   0  0  0  0  0  0  0  0  0  0  0  0
   -7.5054    3.5585   -0.7128 C   0  0  0  0  0  0  0  0  0  0  0  0
   -8.7692    4.1702   -0.7034 C   0  0  0  0  0  0  0  0  0  0  0  0
   -9.9825    3.4050   -0.9412 C   0  0  0  0  0  0  0  0  0  0  0  0
  -10.3560    1.9923    0.0029 S   0  0  0  0  0  0  0  0  0  0  0  0
  -11.8507    1.7335   -0.8288 C   0  0  0  0  0  0  0  0  0  0  0  0
  -12.7661    0.6240   -0.4450 C   0  0  0  0  0  0  0  0  0  0  0  0
  -13.6677    1.0379    0.7204 C   0  0  0  0  0  0  0  0  0  0  0  0
  -12.0371    2.6954   -1.7760 C   0  0  0  0  0  0  0  0  0  0  0  0
  -13.4065    2.7699   -2.8071 Cl  0  0  0  0  0  0  0  0  0  0  0  0
  -10.9800    3.6424   -1.8454 C   0  0  0  0  0  0  0  0  0  0  0  0
  -10.9445    4.8940   -3.0151 Cl  0  0  0  0  0  0  0  0  0  0  0  0
   -8.8088    5.5329   -0.4277 C   0  0  0  0  0  0  0  0  0  0  0  0
   -7.6489    6.3058   -0.1787 C   0  0  0  0  0  0  0  0  0  0  0  0
   -6.3836    5.6999   -0.2105 C   0  0  0  0  0  0  0  0  0  0  0  0
   -5.1591    6.4419    0.0479 C   0  0  0  0  0  0  0  0  0  0  0  0
   -4.9549    7.3702    1.5050 S   0  0  0  0  0  0  0  0  0  0  0  0
   -3.3330    7.8117    1.0939 C   0  0  0  0  0  0  0  0  0  0  0  0
   -2.4929    8.6256    2.0150 C   0  0  0  0  0  0  0  0  0  0  0  0
   -1.7457    7.7298    3.0061 C   0  0  0  0  0  0  0  0  0  0  0  0
   -2.9837    7.2606   -0.1021 C   0  0  0  0  0  0  0  0  0  0  0  0
   -4.0155    6.4891   -0.7009 C   0  0  0  0  0  0  0  0  0  0  0  0
   -3.8375    5.7768   -2.2499 Cl  0  0  0  0  0  0  0  0  0  0  0  0
   -1.4482    7.4690   -0.8376 Cl  0  0  0  0  0  0  0  0  0  0  0  0
   -6.3462    4.3351   -0.4678 C   0  0  0  0  0  0  0  0  0  0  0  0
   -4.9126    3.3539   -0.4803 S   0  0  0  0  0  0  0  0  0  0  0  0
   -7.9727    7.6683    0.0851 C   0  0  0  0  0  0  0  0  0  0  0  0
   -9.3009    7.9025    0.0677 C   0  0  0  0  0  0  0  0  0  0  0  0
  -10.2481    6.5007   -0.2838 S   0  0  0  0  0  0  0  0  0  0  0  0
   10.4442   -1.2423    2.7600 H   0  0  0  0  0  0  0  0  0  0  0  0
   13.6724   -0.7557   -0.4004 H   0  0  0  0  0  0  0  0  0  0  0  0
    8.8390    1.5032    3.1924 H   0  0  0  0  0  0  0  0  0  0  0  0
    6.5142    6.9124    4.6043 H   0  0  0  0  0  0  0  0  0  0  0  0
    6.9177    1.0777    1.9379 H   0  0  0  0  0  0  0  0  0  0  0  0
    6.0948   -0.6455    0.4820 H   0  0  0  0  0  0  0  0  0  0  0  0
    9.7260   -2.1189   -4.3227 H   0  0  0  0  0  0  0  0  0  0  0  0
    8.2883   -2.8313   -5.0802 H   0  0  0  0  0  0  0  0  0  0  0  0
    8.6344   -0.5041   -5.8717 H   0  0  0  0  0  0  0  0  0  0  0  0
    7.1323   -0.6209   -4.9478 H   0  0  0  0  0  0  0  0  0  0  0  0
    8.5726    0.0867   -4.2085 H   0  0  0  0  0  0  0  0  0  0  0  0
    0.1880   -6.2293    6.1851 H   0  0  0  0  0  0  0  0  0  0  0  0
    1.8547   -5.8163    6.6328 H   0  0  0  0  0  0  0  0  0  0  0  0
   -0.4150   -3.8101    6.2126 H   0  0  0  0  0  0  0  0  0  0  0  0
    0.2452   -4.3094    7.7733 H   0  0  0  0  0  0  0  0  0  0  0  0
    1.2471   -3.3940    6.6401 H   0  0  0  0  0  0  0  0  0  0  0  0
    2.5550   -6.8498    0.5626 H   0  0  0  0  0  0  0  0  0  0  0  0
    3.6974  -11.4347   -2.8459 H   0  0  0  0  0  0  0  0  0  0  0  0
    1.3700   -5.5778   -1.7318 H   0  0  0  0  0  0  0  0  0  0  0  0
   -3.3726   -5.6554   -2.4034 H   0  0  0  0  0  0  0  0  0  0  0  0
   -8.9900   -6.3182   -3.8921 H   0  0  0  0  0  0  0  0  0  0  0  0
   -7.7950   -6.0181   -5.1686 H   0  0  0  0  0  0  0  0  0  0  0  0
   -7.8987   -8.4366   -4.6076 H   0  0  0  0  0  0  0  0  0  0  0  0
   -6.3134   -7.7717   -4.1984 H   0  0  0  0  0  0  0  0  0  0  0  0
   -7.5004   -8.0752   -2.9253 H   0  0  0  0  0  0  0  0  0  0  0  0
    1.2778    2.9593   -2.8307 H   0  0  0  0  0  0  0  0  0  0  0  0
    2.2384    2.8492   -1.3447 H   0  0  0  0  0  0  0  0  0  0  0  0
    0.8574    4.9264   -1.3771 H   0  0  0  0  0  0  0  0  0  0  0  0
   -0.6105    3.9592   -1.5478 H   0  0  0  0  0  0  0  0  0  0  0  0
    0.3421    3.8641   -0.0635 H   0  0  0  0  0  0  0  0  0  0  0  0
   -3.1496    1.2974   -0.7369 H   0  0  0  0  0  0  0  0  0  0  0  0
   -7.9155    1.4419   -1.1895 H   0  0  0  0  0  0  0  0  0  0  0  0
  -12.1776   -0.2488   -0.1571 H   0  0  0  0  0  0  0  0  0  0  0  0
  -13.3810    0.3634   -1.3085 H   0  0  0  0  0  0  0  0  0  0  0  0
  -14.2683    1.9008    0.4439 H   0  0  0  0  0  0  0  0  0  0  0  0
  -13.0667    1.2962    1.5891 H   0  0  0  0  0  0  0  0  0  0  0  0
  -14.3328    0.2207    0.9860 H   0  0  0  0  0  0  0  0  0  0  0  0
   -1.7727    9.1939    1.4231 H   0  0  0  0  0  0  0  0  0  0  0  0
   -3.1272    9.3248    2.5622 H   0  0  0  0  0  0  0  0  0  0  0  0
   -2.4512    7.1570    3.6033 H   0  0  0  0  0  0  0  0  0  0  0  0
   -1.1365    8.3360    3.6709 H   0  0  0  0  0  0  0  0  0  0  0  0
   -1.0985    7.0375    2.4737 H   0  0  0  0  0  0  0  0  0  0  0  0
   -7.2360    8.4258    0.2791 H   0  0  0  0  0  0  0  0  0  0  0  0
   -9.8072    8.8327    0.2367 H   0  0  0  0  0  0  0  0  0  0  0  0
  1  2  1  0  0  0  0
  2  3  1  0  0  0  0
  3  4  2  0  0  0  0
  4  5  1  0  0  0  0
  5  6  1  0  0  0  0
  6  7  2  0  0  0  0
  7  8  1  0  0  0  0
  7  9  1  0  0  0  0
  9 10  1  0  0  0  0
 10 11  2  0  0  0  0
 10 12  1  0  0  0  0
 12 13  1  0  0  0  0
 13 14  1  0  0  0  0
 14 15  2  0  0  0  0
 15 16  1  0  0  0  0
 16 17  1  0  0  0  0
 17 18  2  0  0  0  0
 18 19  1  0  0  0  0
 18 20  1  0  0  0  0
 20 21  1  0  0  0  0
 21 22  2  0  0  0  0
 21 23  1  0  0  0  0
 23 24  2  0  0  0  0
 24 25  1  0  0  0  0
 25 26  2  0  0  0  0
 26 27  1  0  0  0  0
 27 28  1  0  0  0  0
 28 29  1  0  0  0  0
 29 30  1  0  0  0  0
 30 31  1  0  0  0  0
 29 32  2  0  0  0  0
 32 33  1  0  0  0  0
 32 34  1  0  0  0  0
 34 35  1  0  0  0  0
 26 36  1  0  0  0  0
 36 37  2  0  0  0  0
 37 38  1  0  0  0  0
 38 39  1  0  0  0  0
 39 40  1  0  0  0  0
 40 41  1  0  0  0  0
 41 42  1  0  0  0  0
 42 43  1  0  0  0  0
 41 44  2  0  0  0  0
 44 45  1  0  0  0  0
 45 46  1  0  0  0  0
 44 47  1  0  0  0  0
 38 48  2  0  0  0  0
 48 49  1  0  0  0  0
 37 50  1  0  0  0  0
 50 51  2  0  0  0  0
 51 52  1  0  0  0  0
 51 53  1  0  0  0  0
 53 54  1  0  0  0  0
 54 55  1  0  0  0  0
 55 56  2  0  0  0  0
 56 57  1  0  0  0  0
 57 58  1  0  0  0  0
 58 59  2  0  0  0  0
 59 60  1  0  0  0  0
 59 61  1  0  0  0  0
 61 62  1  0  0  0  0
 62 63  2  0  0  0  0
 62 64  1  0  0  0  0
 64 65  2  0  0  0  0
 65 66  1  0  0  0  0
 66 67  2  0  0  0  0
 67 68  1  0  0  0  0
 68 69  1  0  0  0  0
 69 70  1  0  0  0  0
 70 71  1  0  0  0  0
 71 72  1  0  0  0  0
 70 73  2  0  0  0  0
 73 74  1  0  0  0  0
 73 75  1  0  0  0  0
 75 76  1  0  0  0  0
 67 77  1  0  0  0  0
 77 78  2  0  0  0  0
 78 79  1  0  0  0  0
 79 80  1  0  0  0  0
 80 81  1  0  0  0  0
 81 82  1  0  0  0  0
 82 83  1  0  0  0  0
 83 84  1  0  0  0  0
 82 85  2  0  0  0  0
 85 86  1  0  0  0  0
 86 87  1  0  0  0  0
 85 88  1  0  0  0  0
 79 89  2  0  0  0  0
 89 90  1  0  0  0  0
 78 91  1  0  0  0  0
 91 92  2  0  0  0  0
 92 93  1  0  0  0  0
 92 94  1  0  0  0  0
 94 95  2  0  0  0  0
 95 96  1  0  0  0  0
 96 97  2  0  0  0  0
 97 98  1  0  0  0  0
 98 99  1  0  0  0  0
 99100  1  0  0  0  0
100101  1  0  0  0  0
101102  1  0  0  0  0
100103  2  0  0  0  0
103104  1  0  0  0  0
103105  1  0  0  0  0
105106  1  0  0  0  0
 97107  1  0  0  0  0
107108  2  0  0  0  0
108109  1  0  0  0  0
109110  1  0  0  0  0
110111  1  0  0  0  0
111112  1  0  0  0  0
112113  1  0  0  0  0
113114  1  0  0  0  0
112115  2  0  0  0  0
115116  1  0  0  0  0
116117  1  0  0  0  0
115118  1  0  0  0  0
109119  2  0  0  0  0
119120  1  0  0  0  0
108121  1  0  0  0  0
121122  2  0  0  0  0
122123  1  0  0  0  0
  5  1  2  0  0  0  0
 11  6  1  0  0  0  0
 16 12  2  0  0  0  0
 22 17  1  0  0  0  0
 49 23  1  0  0  0  0
 57 53  2  0  0  0  0
 63 58  1  0  0  0  0
 90 64  1  0  0  0  0
120 94  1  0  0  0  0
  8  4  1  0  0  0  0
 19 15  1  0  0  0  0
 48 25  1  0  0  0  0
 60 56  1  0  0  0  0
 89 66  1  0  0  0  0
119 96  1  0  0  0  0
 34 27  2  0  0  0  0
 52 36  1  0  0  0  0
 75 68  2  0  0  0  0
 93 77  1  0  0  0  0
105 98  2  0  0  0  0
123107  1  0  0  0  0
 45 39  2  0  0  0  0
 86 80  2  0  0  0  0
116110  2  0  0  0  0
  1124  1  0  0  0  0
  3125  1  0  0  0  0
 11126  1  0  0  0  0
 14127  1  0  0  0  0
 22128  1  0  0  0  0
 24129  1  0  0  0  0
 30130  1  0  0  0  0
 30131  1  0  0  0  0
 31132  1  0  0  0  0
 31133  1  0  0  0  0
 31134  1  0  0  0  0
 42135  1  0  0  0  0
 42136  1  0  0  0  0
 43137  1  0  0  0  0
 43138  1  0  0  0  0
 43139  1  0  0  0  0
 50140  1  0  0  0  0
 55141  1  0  0  0  0
 63142  1  0  0  0  0
 65143  1  0  0  0  0
 71144  1  0  0  0  0
 71145  1  0  0  0  0
 72146  1  0  0  0  0
 72147  1  0  0  0  0
 72148  1  0  0  0  0
 83149  1  0  0  0  0
 83150  1  0  0  0  0
 84151  1  0  0  0  0
 84152  1  0  0  0  0
 84153  1  0  0  0  0
 91154  1  0  0  0  0
 95155  1  0  0  0  0
101156  1  0  0  0  0
101157  1  0  0  0  0
102158  1  0  0  0  0
102159  1  0  0  0  0
102160  1  0  0  0  0
113161  1  0  0  0  0
113162  1  0  0  0  0
114163  1  0  0  0  0
114164  1  0  0  0  0
114165  1  0  0  0  0
121166  1  0  0  0  0
122167  1  0  0  0  0
M  END
