
  xtb     03012208233D
 energy: -394.791644922570 gnorm: 0.000153272399 xtb: 6.4.1 (unknown)
196221  0     0  0            999 V2000
    7.1120   -6.1421    2.4278 C   0  0  0  0  0  0  0  0  0  0  0  0
    7.3790   -4.8496    2.1491 C   0  0  0  0  0  0  0  0  0  0  0  0
    7.5167   -4.0501    3.3210 C   0  0  0  0  0  0  0  0  0  0  0  0
    7.8239   -2.6834    3.4134 C   0  0  0  0  0  0  0  0  0  0  0  0
    7.9399   -1.8385    2.2372 C   0  0  0  0  0  0  0  0  0  0  0  0
    6.6717   -1.8003    1.0465 S   0  0  0  0  0  0  0  0  0  0  0  0
    7.4296   -0.5282    0.1564 C   0  0  0  0  0  0  0  0  0  0  0  0
    6.7546    0.0996   -1.0119 C   0  0  0  0  0  0  0  0  0  0  0  0
    5.8178    1.2200   -0.5503 C   0  0  0  0  0  0  0  0  0  0  0  0
    8.6127   -0.1859    0.7394 C   0  0  0  0  0  0  0  0  0  0  0  0
    9.6604    1.0297    0.1324 Cl  0  0  0  0  0  0  0  0  0  0  0  0
    8.9093   -0.9286    1.9144 C   0  0  0  0  0  0  0  0  0  0  0  0
   10.3842   -0.7383    2.7649 Cl  0  0  0  0  0  0  0  0  0  0  0  0
    7.9581   -2.1548    4.6931 C   0  0  0  0  0  0  0  0  0  0  0  0
    7.8050   -2.9242    5.8724 C   0  0  0  0  0  0  0  0  0  0  0  0
    7.4611   -4.2812    5.7762 C   0  0  0  0  0  0  0  0  0  0  0  0
    7.2084   -5.0912    6.9572 C   0  0  0  0  0  0  0  0  0  0  0  0
    8.3911   -5.2869    8.2149 S   0  0  0  0  0  0  0  0  0  0  0  0
    7.3575   -6.3301    9.1315 C   0  0  0  0  0  0  0  0  0  0  0  0
    7.7781   -6.8624   10.4566 C   0  0  0  0  0  0  0  0  0  0  0  0
    7.5208   -5.8372   11.5639 C   0  0  0  0  0  0  0  0  0  0  0  0
    6.1646   -6.4956    8.4934 C   0  0  0  0  0  0  0  0  0  0  0  0
    6.0787   -5.7997    7.2580 C   0  0  0  0  0  0  0  0  0  0  0  0
    4.6583   -5.7918    6.3004 Cl  0  0  0  0  0  0  0  0  0  0  0  0
    4.8764   -7.4529    9.1017 Cl  0  0  0  0  0  0  0  0  0  0  0  0
    7.3369   -4.8146    4.4978 C   0  0  0  0  0  0  0  0  0  0  0  0
    7.0016   -6.4799    4.1195 S   0  0  0  0  0  0  0  0  0  0  0  0
    7.9613   -2.1368    7.0441 C   0  0  0  0  0  0  0  0  0  0  0  0
    8.1768   -0.8178    6.7874 C   0  0  0  0  0  0  0  0  0  0  0  0
    8.2446   -0.4821    5.0672 S   0  0  0  0  0  0  0  0  0  0  0  0
    8.4119    0.2444    7.7184 C   0  0  0  0  0  0  0  0  0  0  0  0
    9.3606   -0.0294    9.1594 S   0  0  0  0  0  0  0  0  0  0  0  0
    9.2941    1.6306    9.6141 C   0  0  0  0  0  0  0  0  0  0  0  0
    8.5726    2.3479    8.7151 C   0  0  0  0  0  0  0  0  0  0  0  0
    8.0528    1.5699    7.6311 C   0  0  0  0  0  0  0  0  0  0  0  0
    7.2230    2.3645    6.7811 C   0  0  0  0  0  0  0  0  0  0  0  0
    7.1921    3.6884    7.2013 C   0  0  0  0  0  0  0  0  0  0  0  0
    8.1268    4.0441    8.6281 S   0  0  0  0  0  0  0  0  0  0  0  0
    6.1590    4.6753    6.2469 S   0  0  0  0  0  0  0  0  0  0  0  0
    5.7163    3.2780    5.2826 C   0  0  0  0  0  0  0  0  0  0  0  0
    6.3695    2.1429    5.6881 C   0  0  0  0  0  0  0  0  0  0  0  0
    4.7325    3.3344    4.2492 C   0  0  0  0  0  0  0  0  0  0  0  0
    4.0965    2.2509    3.7156 C   0  0  0  0  0  0  0  0  0  0  0  0
    3.1540    2.5791    2.7151 C   0  0  0  0  0  0  0  0  0  0  0  0
    2.3383    1.7014    1.9797 C   0  0  0  0  0  0  0  0  0  0  0  0
    2.3628    0.2708    2.2427 C   0  0  0  0  0  0  0  0  0  0  0  0
    3.8510   -0.6306    2.2292 S   0  0  0  0  0  0  0  0  0  0  0  0
    3.0695   -2.0961    2.7060 C   0  0  0  0  0  0  0  0  0  0  0  0
    3.8292   -3.3656    2.8711 C   0  0  0  0  0  0  0  0  0  0  0  0
    3.8070   -4.1916    1.5837 C   0  0  0  0  0  0  0  0  0  0  0  0
    1.7300   -1.8877    2.8469 C   0  0  0  0  0  0  0  0  0  0  0  0
    0.6322   -3.1083    3.3452 Cl  0  0  0  0  0  0  0  0  0  0  0  0
    1.3239   -0.5501    2.5856 C   0  0  0  0  0  0  0  0  0  0  0  0
   -0.2949   -0.0216    2.7849 Cl  0  0  0  0  0  0  0  0  0  0  0  0
    1.4978    2.2714    1.0340 C   0  0  0  0  0  0  0  0  0  0  0  0
    1.3995    3.6720    0.8372 C   0  0  0  0  0  0  0  0  0  0  0  0
    2.1871    4.5506    1.6026 C   0  0  0  0  0  0  0  0  0  0  0  0
    2.0859    5.9923    1.4417 C   0  0  0  0  0  0  0  0  0  0  0  0
    2.2931    6.7498   -0.1106 S   0  0  0  0  0  0  0  0  0  0  0  0
    2.0467    8.3341    0.5401 C   0  0  0  0  0  0  0  0  0  0  0  0
    2.1473    9.5478   -0.3163 C   0  0  0  0  0  0  0  0  0  0  0  0
    3.5910   10.0520   -0.3808 C   0  0  0  0  0  0  0  0  0  0  0  0
    1.8262    8.2642    1.8831 C   0  0  0  0  0  0  0  0  0  0  0  0
    1.8447    6.9397    2.3976 C   0  0  0  0  0  0  0  0  0  0  0  0
    1.5073    6.5890    4.0407 Cl  0  0  0  0  0  0  0  0  0  0  0  0
    1.5355    9.6331    2.8757 Cl  0  0  0  0  0  0  0  0  0  0  0  0
    3.0623    3.9788    2.5161 C   0  0  0  0  0  0  0  0  0  0  0  0
    4.1806    4.8347    3.5418 S   0  0  0  0  0  0  0  0  0  0  0  0
    0.4320    3.9969   -0.1446 C   0  0  0  0  0  0  0  0  0  0  0  0
   -0.1542    2.9039   -0.7119 C   0  0  0  0  0  0  0  0  0  0  0  0
    0.4573    1.4040   -0.0541 S   0  0  0  0  0  0  0  0  0  0  0  0
   -1.2063    2.8961   -1.6803 C   0  0  0  0  0  0  0  0  0  0  0  0
   -2.1129    3.8895   -1.9041 C   0  0  0  0  0  0  0  0  0  0  0  0
   -3.0924    3.5531   -2.8694 C   0  0  0  0  0  0  0  0  0  0  0  0
   -4.1921    4.3300   -3.2757 C   0  0  0  0  0  0  0  0  0  0  0  0
   -4.3941    5.6729   -2.7556 C   0  0  0  0  0  0  0  0  0  0  0  0
   -3.1455    6.8783   -2.8883 S   0  0  0  0  0  0  0  0  0  0  0  0
   -4.1153    8.0844   -2.1142 C   0  0  0  0  0  0  0  0  0  0  0  0
   -3.6220    9.4775   -1.9342 C   0  0  0  0  0  0  0  0  0  0  0  0
   -3.9648   10.3405   -3.1508 C   0  0  0  0  0  0  0  0  0  0  0  0
   -5.3337    7.5705   -1.7858 C   0  0  0  0  0  0  0  0  0  0  0  0
   -6.5675    8.4673   -1.0008 Cl  0  0  0  0  0  0  0  0  0  0  0  0
   -5.4946    6.2039   -2.1428 C   0  0  0  0  0  0  0  0  0  0  0  0
   -6.9038    5.3145   -1.7451 Cl  0  0  0  0  0  0  0  0  0  0  0  0
   -5.0643    3.7540   -4.1891 C   0  0  0  0  0  0  0  0  0  0  0  0
   -4.8480    2.4647   -4.7348 C   0  0  0  0  0  0  0  0  0  0  0  0
   -3.7466    1.6855   -4.3353 C   0  0  0  0  0  0  0  0  0  0  0  0
   -3.5632    0.3520   -4.8855 C   0  0  0  0  0  0  0  0  0  0  0  0
   -3.6267    0.0684   -6.6038 S   0  0  0  0  0  0  0  0  0  0  0  0
   -3.4469   -1.6403   -6.4148 C   0  0  0  0  0  0  0  0  0  0  0  0
   -3.5517   -2.5611   -7.5791 C   0  0  0  0  0  0  0  0  0  0  0  0
   -5.0121   -2.9660   -7.7996 C   0  0  0  0  0  0  0  0  0  0  0  0
   -3.3247   -1.9588   -5.0960 C   0  0  0  0  0  0  0  0  0  0  0  0
   -3.3861   -0.8345   -4.2290 C   0  0  0  0  0  0  0  0  0  0  0  0
   -3.3690   -0.9948   -2.5288 Cl  0  0  0  0  0  0  0  0  0  0  0  0
   -3.1286   -3.5660   -4.5240 Cl  0  0  0  0  0  0  0  0  0  0  0  0
   -2.9013    2.2455   -3.3850 C   0  0  0  0  0  0  0  0  0  0  0  0
   -1.5019    1.4931   -2.6792 S   0  0  0  0  0  0  0  0  0  0  0  0
   -5.8836    2.0945   -5.6219 C   0  0  0  0  0  0  0  0  0  0  0  0
   -6.8650    3.0314   -5.7466 C   0  0  0  0  0  0  0  0  0  0  0  0
   -6.5204    4.4747   -4.8200 S   0  0  0  0  0  0  0  0  0  0  0  0
   -8.0514    2.8562   -6.5200 C   0  0  0  0  0  0  0  0  0  0  0  0
   -8.8579    4.1784   -7.3179 S   0  0  0  0  0  0  0  0  0  0  0  0
   -9.9708    3.1259   -8.1021 C   0  0  0  0  0  0  0  0  0  0  0  0
   -9.7410    1.8336   -7.7527 C   0  0  0  0  0  0  0  0  0  0  0  0
   -8.6615    1.6569   -6.8293 C   0  0  0  0  0  0  0  0  0  0  0  0
   -8.5268    0.2818   -6.4493 C   0  0  0  0  0  0  0  0  0  0  0  0
   -9.4280   -0.5109   -7.1496 C   0  0  0  0  0  0  0  0  0  0  0  0
  -10.5076    0.3289   -8.2258 S   0  0  0  0  0  0  0  0  0  0  0  0
   -9.3214   -2.1797   -6.7595 S   0  0  0  0  0  0  0  0  0  0  0  0
   -8.0663   -1.8190   -5.5827 C   0  0  0  0  0  0  0  0  0  0  0  0
   -7.7689   -0.4837   -5.5371 C   0  0  0  0  0  0  0  0  0  0  0  0
   -7.4939   -2.8760   -4.8143 C   0  0  0  0  0  0  0  0  0  0  0  0
   -7.7449   -4.2095   -4.9351 C   0  0  0  0  0  0  0  0  0  0  0  0
   -7.0100   -5.0097   -4.0260 C   0  0  0  0  0  0  0  0  0  0  0  0
   -7.0161   -6.4090   -3.9208 C   0  0  0  0  0  0  0  0  0  0  0  0
   -7.7698   -7.2272   -4.8561 C   0  0  0  0  0  0  0  0  0  0  0  0
   -8.9173   -8.4154   -4.3172 S   0  0  0  0  0  0  0  0  0  0  0  0
   -9.3087   -8.8846   -5.9365 C   0  0  0  0  0  0  0  0  0  0  0  0
  -10.3512   -9.9112   -6.2106 C   0  0  0  0  0  0  0  0  0  0  0  0
  -11.7504   -9.2912   -6.1863 C   0  0  0  0  0  0  0  0  0  0  0  0
   -8.5874   -8.1514   -6.8309 C   0  0  0  0  0  0  0  0  0  0  0  0
   -8.7002   -8.3341   -8.5342 Cl  0  0  0  0  0  0  0  0  0  0  0  0
   -7.7115   -7.2140   -6.2220 C   0  0  0  0  0  0  0  0  0  0  0  0
   -6.6374   -6.2305   -7.1281 Cl  0  0  0  0  0  0  0  0  0  0  0  0
   -6.2541   -6.9666   -2.9027 C   0  0  0  0  0  0  0  0  0  0  0  0
   -5.4564   -6.1919   -2.0304 C   0  0  0  0  0  0  0  0  0  0  0  0
   -5.4159   -4.7928   -2.1607 C   0  0  0  0  0  0  0  0  0  0  0  0
   -4.5498   -3.9994   -1.3018 C   0  0  0  0  0  0  0  0  0  0  0  0
   -2.8530   -4.3679   -1.1804 S   0  0  0  0  0  0  0  0  0  0  0  0
   -2.5610   -3.0597   -0.0883 C   0  0  0  0  0  0  0  0  0  0  0  0
   -1.1884   -2.7620    0.4006 C   0  0  0  0  0  0  0  0  0  0  0  0
   -0.3390   -2.1014   -0.6866 C   0  0  0  0  0  0  0  0  0  0  0  0
   -3.7205   -2.3904    0.1650 C   0  0  0  0  0  0  0  0  0  0  0  0
   -4.8495   -2.9205   -0.5187 C   0  0  0  0  0  0  0  0  0  0  0  0
   -6.4286   -2.2875   -0.3132 Cl  0  0  0  0  0  0  0  0  0  0  0  0
   -3.8247   -1.0185    1.1912 Cl  0  0  0  0  0  0  0  0  0  0  0  0
   -6.2071   -4.2299   -3.1561 C   0  0  0  0  0  0  0  0  0  0  0  0
   -6.3388   -2.5351   -3.5414 S   0  0  0  0  0  0  0  0  0  0  0  0
   -4.7804   -7.0110   -1.0780 C   0  0  0  0  0  0  0  0  0  0  0  0
   -5.0377   -8.3244   -1.2392 C   0  0  0  0  0  0  0  0  0  0  0  0
   -6.1142   -8.6656   -2.5497 S   0  0  0  0  0  0  0  0  0  0  0  0
    6.9686   -6.9482    1.7350 H   0  0  0  0  0  0  0  0  0  0  0  0
    7.4866   -4.4632    1.1527 H   0  0  0  0  0  0  0  0  0  0  0  0
    7.5132    0.5089   -1.6814 H   0  0  0  0  0  0  0  0  0  0  0  0
    6.1799   -0.6553   -1.5506 H   0  0  0  0  0  0  0  0  0  0  0  0
    5.0620    0.8272    0.1263 H   0  0  0  0  0  0  0  0  0  0  0  0
    5.3220    1.6691   -1.4064 H   0  0  0  0  0  0  0  0  0  0  0  0
    6.3801    1.9903   -0.0287 H   0  0  0  0  0  0  0  0  0  0  0  0
    7.2129   -7.7731   10.6624 H   0  0  0  0  0  0  0  0  0  0  0  0
    8.8411   -7.1080   10.4294 H   0  0  0  0  0  0  0  0  0  0  0  0
    8.0824   -4.9258   11.3724 H   0  0  0  0  0  0  0  0  0  0  0  0
    6.4630   -5.5913   11.6113 H   0  0  0  0  0  0  0  0  0  0  0  0
    7.8279   -6.2410   12.5247 H   0  0  0  0  0  0  0  0  0  0  0  0
    7.8938   -2.5308    8.0417 H   0  0  0  0  0  0  0  0  0  0  0  0
    9.7837    1.9613   10.5069 H   0  0  0  0  0  0  0  0  0  0  0  0
    6.2359    1.1900    5.2146 H   0  0  0  0  0  0  0  0  0  0  0  0
    4.2810    1.2469    4.0458 H   0  0  0  0  0  0  0  0  0  0  0  0
    4.8624   -3.1383    3.1386 H   0  0  0  0  0  0  0  0  0  0  0  0
    3.3778   -3.9428    3.6809 H   0  0  0  0  0  0  0  0  0  0  0  0
    4.2765   -3.6373    0.7748 H   0  0  0  0  0  0  0  0  0  0  0  0
    4.3509   -5.1203    1.7310 H   0  0  0  0  0  0  0  0  0  0  0  0
    2.7832   -4.4250    1.3033 H   0  0  0  0  0  0  0  0  0  0  0  0
    1.7986    9.3111   -1.3230 H   0  0  0  0  0  0  0  0  0  0  0  0
    1.5082   10.3268    0.1040 H   0  0  0  0  0  0  0  0  0  0  0  0
    3.9463   10.3032    0.6152 H   0  0  0  0  0  0  0  0  0  0  0  0
    3.6491   10.9388   -1.0059 H   0  0  0  0  0  0  0  0  0  0  0  0
    4.2399    9.2861   -0.7987 H   0  0  0  0  0  0  0  0  0  0  0  0
    0.1872    5.0029   -0.4295 H   0  0  0  0  0  0  0  0  0  0  0  0
   -2.1087    4.8161   -1.3613 H   0  0  0  0  0  0  0  0  0  0  0  0
   -2.5403    9.4629   -1.7900 H   0  0  0  0  0  0  0  0  0  0  0  0
   -4.0894    9.9020   -1.0435 H   0  0  0  0  0  0  0  0  0  0  0  0
   -5.0413   10.3732   -3.2970 H   0  0  0  0  0  0  0  0  0  0  0  0
   -3.6019   11.3541   -3.0036 H   0  0  0  0  0  0  0  0  0  0  0  0
   -3.5045    9.9303   -4.0466 H   0  0  0  0  0  0  0  0  0  0  0  0
   -3.1692   -2.0675   -8.4737 H   0  0  0  0  0  0  0  0  0  0  0  0
   -2.9522   -3.4520   -7.3836 H   0  0  0  0  0  0  0  0  0  0  0  0
   -5.6237   -2.0884   -7.9981 H   0  0  0  0  0  0  0  0  0  0  0  0
   -5.0905   -3.6439   -8.6450 H   0  0  0  0  0  0  0  0  0  0  0  0
   -5.4019   -3.4664   -6.9166 H   0  0  0  0  0  0  0  0  0  0  0  0
   -5.8976    1.1785   -6.1780 H   0  0  0  0  0  0  0  0  0  0  0  0
  -10.7126    3.5243   -8.7631 H   0  0  0  0  0  0  0  0  0  0  0  0
   -7.0533   -0.0837   -4.8427 H   0  0  0  0  0  0  0  0  0  0  0  0
   -8.4449   -4.6062   -5.6480 H   0  0  0  0  0  0  0  0  0  0  0  0
  -10.1616  -10.3490   -7.1924 H   0  0  0  0  0  0  0  0  0  0  0  0
  -10.2902  -10.6988   -5.4577 H   0  0  0  0  0  0  0  0  0  0  0  0
  -11.9516   -8.8539   -5.2112 H   0  0  0  0  0  0  0  0  0  0  0  0
  -11.8308   -8.5122   -6.9402 H   0  0  0  0  0  0  0  0  0  0  0  0
  -12.4994  -10.0517   -6.3897 H   0  0  0  0  0  0  0  0  0  0  0  0
   -1.2660   -2.0953    1.2595 H   0  0  0  0  0  0  0  0  0  0  0  0
   -0.7083   -3.6898    0.7194 H   0  0  0  0  0  0  0  0  0  0  0  0
    0.6572   -1.8924   -0.3048 H   0  0  0  0  0  0  0  0  0  0  0  0
   -0.2557   -2.7559   -1.5512 H   0  0  0  0  0  0  0  0  0  0  0  0
   -0.7892   -1.1641   -1.0028 H   0  0  0  0  0  0  0  0  0  0  0  0
   -4.1408   -6.6227   -0.3074 H   0  0  0  0  0  0  0  0  0  0  0  0
   -4.6618   -9.1447   -0.6598 H   0  0  0  0  0  0  0  0  0  0  0  0
  1  2  2  0  0  0  0
  2  3  1  0  0  0  0
  3  4  2  0  0  0  0
  4  5  1  0  0  0  0
  5  6  1  0  0  0  0
  6  7  1  0  0  0  0
  7  8  1  0  0  0  0
  8  9  1  0  0  0  0
  7 10  2  0  0  0  0
 10 11  1  0  0  0  0
 10 12  1  0  0  0  0
 12 13  1  0  0  0  0
  4 14  1  0  0  0  0
 14 15  2  0  0  0  0
 15 16  1  0  0  0  0
 16 17  1  0  0  0  0
 17 18  1  0  0  0  0
 18 19  1  0  0  0  0
 19 20  1  0  0  0  0
 20 21  1  0  0  0  0
 19 22  2  0  0  0  0
 22 23  1  0  0  0  0
 23 24  1  0  0  0  0
 22 25  1  0  0  0  0
 16 26  2  0  0  0  0
 26 27  1  0  0  0  0
 15 28  1  0  0  0  0
 28 29  2  0  0  0  0
 29 30  1  0  0  0  0
 29 31  1  0  0  0  0
 31 32  1  0  0  0  0
 32 33  1  0  0  0  0
 33 34  2  0  0  0  0
 34 35  1  0  0  0  0
 35 36  1  0  0  0  0
 36 37  2  0  0  0  0
 37 38  1  0  0  0  0
 37 39  1  0  0  0  0
 39 40  1  0  0  0  0
 40 41  2  0  0  0  0
 40 42  1  0  0  0  0
 42 43  2  0  0  0  0
 43 44  1  0  0  0  0
 44 45  2  0  0  0  0
 45 46  1  0  0  0  0
 46 47  1  0  0  0  0
 47 48  1  0  0  0  0
 48 49  1  0  0  0  0
 49 50  1  0  0  0  0
 48 51  2  0  0  0  0
 51 52  1  0  0  0  0
 51 53  1  0  0  0  0
 53 54  1  0  0  0  0
 45 55  1  0  0  0  0
 55 56  2  0  0  0  0
 56 57  1  0  0  0  0
 57 58  1  0  0  0  0
 58 59  1  0  0  0  0
 59 60  1  0  0  0  0
 60 61  1  0  0  0  0
 61 62  1  0  0  0  0
 60 63  2  0  0  0  0
 63 64  1  0  0  0  0
 64 65  1  0  0  0  0
 63 66  1  0  0  0  0
 57 67  2  0  0  0  0
 67 68  1  0  0  0  0
 56 69  1  0  0  0  0
 69 70  2  0  0  0  0
 70 71  1  0  0  0  0
 70 72  1  0  0  0  0
 72 73  2  0  0  0  0
 73 74  1  0  0  0  0
 74 75  2  0  0  0  0
 75 76  1  0  0  0  0
 76 77  1  0  0  0  0
 77 78  1  0  0  0  0
 78 79  1  0  0  0  0
 79 80  1  0  0  0  0
 78 81  2  0  0  0  0
 81 82  1  0  0  0  0
 81 83  1  0  0  0  0
 83 84  1  0  0  0  0
 75 85  1  0  0  0  0
 85 86  2  0  0  0  0
 86 87  1  0  0  0  0
 87 88  1  0  0  0  0
 88 89  1  0  0  0  0
 89 90  1  0  0  0  0
 90 91  1  0  0  0  0
 91 92  1  0  0  0  0
 90 93  2  0  0  0  0
 93 94  1  0  0  0  0
 94 95  1  0  0  0  0
 93 96  1  0  0  0  0
 87 97  2  0  0  0  0
 97 98  1  0  0  0  0
 86 99  1  0  0  0  0
 99100  2  0  0  0  0
100101  1  0  0  0  0
100102  1  0  0  0  0
102103  1  0  0  0  0
103104  1  0  0  0  0
104105  2  0  0  0  0
105106  1  0  0  0  0
106107  1  0  0  0  0
107108  2  0  0  0  0
108109  1  0  0  0  0
108110  1  0  0  0  0
110111  1  0  0  0  0
111112  2  0  0  0  0
111113  1  0  0  0  0
113114  2  0  0  0  0
114115  1  0  0  0  0
115116  2  0  0  0  0
116117  1  0  0  0  0
117118  1  0  0  0  0
118119  1  0  0  0  0
119120  1  0  0  0  0
120121  1  0  0  0  0
119122  2  0  0  0  0
122123  1  0  0  0  0
122124  1  0  0  0  0
124125  1  0  0  0  0
116126  1  0  0  0  0
126127  2  0  0  0  0
127128  1  0  0  0  0
128129  1  0  0  0  0
129130  1  0  0  0  0
130131  1  0  0  0  0
131132  1  0  0  0  0
132133  1  0  0  0  0
131134  2  0  0  0  0
134135  1  0  0  0  0
135136  1  0  0  0  0
134137  1  0  0  0  0
128138  2  0  0  0  0
138139  1  0  0  0  0
127140  1  0  0  0  0
140141  2  0  0  0  0
141142  1  0  0  0  0
 27  1  1  0  0  0  0
 35 31  2  0  0  0  0
 41 36  1  0  0  0  0
 68 42  1  0  0  0  0
 98 72  1  0  0  0  0
106102  2  0  0  0  0
112107  1  0  0  0  0
139113  1  0  0  0  0
 26  3  1  0  0  0  0
 38 34  1  0  0  0  0
 67 44  1  0  0  0  0
 97 74  1  0  0  0  0
109105  1  0  0  0  0
138115  1  0  0  0  0
 12  5  2  0  0  0  0
 30 14  1  0  0  0  0
 53 46  2  0  0  0  0
 71 55  1  0  0  0  0
 83 76  2  0  0  0  0
101 85  1  0  0  0  0
124117  2  0  0  0  0
142126  1  0  0  0  0
 23 17  2  0  0  0  0
 64 58  2  0  0  0  0
 94 88  2  0  0  0  0
135129  2  0  0  0  0
  1143  1  0  0  0  0
  2144  1  0  0  0  0
  8145  1  0  0  0  0
  8146  1  0  0  0  0
  9147  1  0  0  0  0
  9148  1  0  0  0  0
  9149  1  0  0  0  0
 20150  1  0  0  0  0
 20151  1  0  0  0  0
 21152  1  0  0  0  0
 21153  1  0  0  0  0
 21154  1  0  0  0  0
 28155  1  0  0  0  0
 33156  1  0  0  0  0
 41157  1  0  0  0  0
 43158  1  0  0  0  0
 49159  1  0  0  0  0
 49160  1  0  0  0  0
 50161  1  0  0  0  0
 50162  1  0  0  0  0
 50163  1  0  0  0  0
 61164  1  0  0  0  0
 61165  1  0  0  0  0
 62166  1  0  0  0  0
 62167  1  0  0  0  0
 62168  1  0  0  0  0
 69169  1  0  0  0  0
 73170  1  0  0  0  0
 79171  1  0  0  0  0
 79172  1  0  0  0  0
 80173  1  0  0  0  0
 80174  1  0  0  0  0
 80175  1  0  0  0  0
 91176  1  0  0  0  0
 91177  1  0  0  0  0
 92178  1  0  0  0  0
 92179  1  0  0  0  0
 92180  1  0  0  0  0
 99181  1  0  0  0  0
104182  1  0  0  0  0
112183  1  0  0  0  0
114184  1  0  0  0  0
120185  1  0  0  0  0
120186  1  0  0  0  0
121187  1  0  0  0  0
121188  1  0  0  0  0
121189  1  0  0  0  0
132190  1  0  0  0  0
132191  1  0  0  0  0
133192  1  0  0  0  0
133193  1  0  0  0  0
133194  1  0  0  0  0
140195  1  0  0  0  0
141196  1  0  0  0  0
M  END
