
  xtb     03012214383D
 energy: -338.215530352108 gnorm: 0.000309541180 xtb: 6.4.1 (unknown)
167190  0     0  0            999 V2000
    5.2660   -7.7627    7.7477 C   0  0  0  0  0  0  0  0  0  0  0  0
    4.4276   -6.8168    8.2168 C   0  0  0  0  0  0  0  0  0  0  0  0
    4.0062   -5.9006    7.2088 C   0  0  0  0  0  0  0  0  0  0  0  0
    3.1367   -4.8053    7.3372 C   0  0  0  0  0  0  0  0  0  0  0  0
    2.5170   -4.4709    8.6104 C   0  0  0  0  0  0  0  0  0  0  0  0
    1.5710   -5.6321    9.4940 S   0  0  0  0  0  0  0  0  0  0  0  0
    1.2247   -4.5049   10.7611 C   0  0  0  0  0  0  0  0  0  0  0  0
    0.4357   -4.9079   11.9575 C   0  0  0  0  0  0  0  0  0  0  0  0
    1.3181   -5.6365   12.9739 C   0  0  0  0  0  0  0  0  0  0  0  0
    1.8226   -3.3077   10.5046 C   0  0  0  0  0  0  0  0  0  0  0  0
    1.7205   -1.9443   11.5412 Cl  0  0  0  0  0  0  0  0  0  0  0  0
    2.5495   -3.2816    9.2834 C   0  0  0  0  0  0  0  0  0  0  0  0
    3.4390   -1.9082    8.7739 Cl  0  0  0  0  0  0  0  0  0  0  0  0
    2.8974   -4.0520    6.1949 C   0  0  0  0  0  0  0  0  0  0  0  0
    3.5047   -4.3411    4.9479 C   0  0  0  0  0  0  0  0  0  0  0  0
    4.3526   -5.4528    4.8112 C   0  0  0  0  0  0  0  0  0  0  0  0
    4.9306   -5.7905    3.5214 C   0  0  0  0  0  0  0  0  0  0  0  0
    6.6404   -6.0505    3.3374 S   0  0  0  0  0  0  0  0  0  0  0  0
    6.4953   -6.3323    1.6372 C   0  0  0  0  0  0  0  0  0  0  0  0
    7.6908   -6.5791    0.7847 C   0  0  0  0  0  0  0  0  0  0  0  0
    8.2550   -5.2639    0.2412 C   0  0  0  0  0  0  0  0  0  0  0  0
    5.1930   -6.2251    1.2495 C   0  0  0  0  0  0  0  0  0  0  0  0
    4.3011   -5.9252    2.3130 C   0  0  0  0  0  0  0  0  0  0  0  0
    2.6003   -5.8332    2.0791 Cl  0  0  0  0  0  0  0  0  0  0  0  0
    4.6596   -6.4370   -0.3665 Cl  0  0  0  0  0  0  0  0  0  0  0  0
    4.5949   -6.1998    5.9571 C   0  0  0  0  0  0  0  0  0  0  0  0
    5.6093   -7.6112    6.0591 S   0  0  0  0  0  0  0  0  0  0  0  0
    3.1406   -3.4034    3.9546 C   0  0  0  0  0  0  0  0  0  0  0  0
    2.2392   -2.4732    4.3854 C   0  0  0  0  0  0  0  0  0  0  0  0
    1.8257   -2.6857    6.0709 S   0  0  0  0  0  0  0  0  0  0  0  0
    1.6579   -1.4432    3.5861 C   0  0  0  0  0  0  0  0  0  0  0  0
    1.9183   -1.2185    2.2649 C   0  0  0  0  0  0  0  0  0  0  0  0
    1.1686   -0.1593    1.7069 C   0  0  0  0  0  0  0  0  0  0  0  0
    1.1588    0.2827    0.3682 C   0  0  0  0  0  0  0  0  0  0  0  0
    1.9576   -0.3893   -0.6439 C   0  0  0  0  0  0  0  0  0  0  0  0
    1.9732   -2.1305   -0.7335 S   0  0  0  0  0  0  0  0  0  0  0  0
    3.1090   -2.1473   -2.0343 C   0  0  0  0  0  0  0  0  0  0  0  0
    3.6442   -3.4329   -2.5621 C   0  0  0  0  0  0  0  0  0  0  0  0
    2.5816   -4.5257   -2.5980 C   0  0  0  0  0  0  0  0  0  0  0  0
    3.4269   -0.8707   -2.3902 C   0  0  0  0  0  0  0  0  0  0  0  0
    4.5366   -0.4701   -3.6383 Cl  0  0  0  0  0  0  0  0  0  0  0  0
    2.7814    0.1261   -1.6092 C   0  0  0  0  0  0  0  0  0  0  0  0
    3.1392    1.7894   -1.8226 Cl  0  0  0  0  0  0  0  0  0  0  0  0
    0.3195    1.3518    0.0835 C   0  0  0  0  0  0  0  0  0  0  0  0
   -0.4920    1.9908    1.0551 C   0  0  0  0  0  0  0  0  0  0  0  0
   -0.4777    1.5461    2.3885 C   0  0  0  0  0  0  0  0  0  0  0  0
   -1.3041    2.1695    3.4084 C   0  0  0  0  0  0  0  0  0  0  0  0
   -3.0200    2.3604    3.1908 S   0  0  0  0  0  0  0  0  0  0  0  0
   -3.2230    3.0915    4.7458 C   0  0  0  0  0  0  0  0  0  0  0  0
   -4.5747    3.4847    5.2283 C   0  0  0  0  0  0  0  0  0  0  0  0
   -5.4212    2.2541    5.5578 C   0  0  0  0  0  0  0  0  0  0  0  0
   -2.0233    3.1747    5.3854 C   0  0  0  0  0  0  0  0  0  0  0  0
   -0.9341    2.6577    4.6309 C   0  0  0  0  0  0  0  0  0  0  0  0
    0.6827    2.7350    5.1917 Cl  0  0  0  0  0  0  0  0  0  0  0  0
   -1.8140    3.8463    6.9501 Cl  0  0  0  0  0  0  0  0  0  0  0  0
    0.3500    0.4693    2.6786 C   0  0  0  0  0  0  0  0  0  0  0  0
    0.4795   -0.3216    4.2233 S   0  0  0  0  0  0  0  0  0  0  0  0
   -1.2321    3.0602    0.5016 C   0  0  0  0  0  0  0  0  0  0  0  0
   -1.0362    3.2364   -0.8403 C   0  0  0  0  0  0  0  0  0  0  0  0
    0.0848    2.0618   -1.4819 S   0  0  0  0  0  0  0  0  0  0  0  0
   -1.6153    4.2594   -1.6429 C   0  0  0  0  0  0  0  0  0  0  0  0
   -2.6744    5.3969   -0.8344 S   0  0  0  0  0  0  0  0  0  0  0  0
   -2.9706    6.2759   -2.2754 C   0  0  0  0  0  0  0  0  0  0  0  0
   -2.2815    5.7366   -3.3114 C   0  0  0  0  0  0  0  0  0  0  0  0
   -1.4934    4.5814   -2.9830 C   0  0  0  0  0  0  0  0  0  0  0  0
   -0.7759    4.1234   -4.1381 C   0  0  0  0  0  0  0  0  0  0  0  0
   -1.0320    4.9484   -5.2273 C   0  0  0  0  0  0  0  0  0  0  0  0
   -2.1577    6.2453   -4.9794 S   0  0  0  0  0  0  0  0  0  0  0  0
   -0.1808    4.5122   -6.6464 S   0  0  0  0  0  0  0  0  0  0  0  0
    0.4913    3.1215   -5.8067 C   0  0  0  0  0  0  0  0  0  0  0  0
    0.1085    3.0798   -4.4974 C   0  0  0  0  0  0  0  0  0  0  0  0
    1.3087    2.1858   -6.5234 C   0  0  0  0  0  0  0  0  0  0  0  0
    2.7790    1.5284   -5.8581 S   0  0  0  0  0  0  0  0  0  0  0  0
    3.0754    0.5667   -7.2586 C   0  0  0  0  0  0  0  0  0  0  0  0
    2.0882    0.7321   -8.1781 C   0  0  0  0  0  0  0  0  0  0  0  0
    1.0802    1.6628   -7.7741 C   0  0  0  0  0  0  0  0  0  0  0  0
    0.0200    1.7219   -8.7273 C   0  0  0  0  0  0  0  0  0  0  0  0
    0.2327    0.8601   -9.7920 C   0  0  0  0  0  0  0  0  0  0  0  0
    1.7371   -0.0277   -9.7278 S   0  0  0  0  0  0  0  0  0  0  0  0
   -1.0790    0.8442  -10.9134 S   0  0  0  0  0  0  0  0  0  0  0  0
   -1.9385    2.0154   -9.9246 C   0  0  0  0  0  0  0  0  0  0  0  0
   -1.2099    2.3861   -8.8285 C   0  0  0  0  0  0  0  0  0  0  0  0
   -3.2360    2.5560  -10.1815 C   0  0  0  0  0  0  0  0  0  0  0  0
   -3.8641    2.8901  -11.7711 S   0  0  0  0  0  0  0  0  0  0  0  0
   -5.2208    3.7462  -11.1402 C   0  0  0  0  0  0  0  0  0  0  0  0
   -5.1931    3.7609   -9.7825 C   0  0  0  0  0  0  0  0  0  0  0  0
   -4.0824    3.0622   -9.2134 C   0  0  0  0  0  0  0  0  0  0  0  0
   -4.1647    3.0421   -7.7820 C   0  0  0  0  0  0  0  0  0  0  0  0
   -5.2496    3.7855   -7.3340 C   0  0  0  0  0  0  0  0  0  0  0  0
   -6.2480    4.4842   -8.5784 S   0  0  0  0  0  0  0  0  0  0  0  0
   -5.4232    3.7723   -5.6235 S   0  0  0  0  0  0  0  0  0  0  0  0
   -4.0502    2.6878   -5.4907 C   0  0  0  0  0  0  0  0  0  0  0  0
   -3.4984    2.4083   -6.7158 C   0  0  0  0  0  0  0  0  0  0  0  0
   -3.6685    2.1027   -4.2444 C   0  0  0  0  0  0  0  0  0  0  0  0
   -2.7573    1.1007   -4.0769 C   0  0  0  0  0  0  0  0  0  0  0  0
   -2.6681    0.6198   -2.7480 C   0  0  0  0  0  0  0  0  0  0  0  0
   -1.9254   -0.4792   -2.2748 C   0  0  0  0  0  0  0  0  0  0  0  0
   -1.1475   -1.2973   -3.1913 C   0  0  0  0  0  0  0  0  0  0  0  0
   -0.0066   -0.6159   -4.3191 S   0  0  0  0  0  0  0  0  0  0  0  0
    0.2437   -2.1341   -5.1143 C   0  0  0  0  0  0  0  0  0  0  0  0
    1.0837   -2.2555   -6.3376 C   0  0  0  0  0  0  0  0  0  0  0  0
    2.5244   -2.6575   -6.0263 C   0  0  0  0  0  0  0  0  0  0  0  0
   -0.4719   -3.1115   -4.4907 C   0  0  0  0  0  0  0  0  0  0  0  0
   -0.4877   -4.7517   -4.9997 Cl  0  0  0  0  0  0  0  0  0  0  0  0
   -1.2608   -2.6444   -3.4052 C   0  0  0  0  0  0  0  0  0  0  0  0
   -2.3401   -3.6754   -2.5650 Cl  0  0  0  0  0  0  0  0  0  0  0  0
   -2.0529   -0.7864   -0.9245 C   0  0  0  0  0  0  0  0  0  0  0  0
   -2.9066   -0.0723   -0.0502 C   0  0  0  0  0  0  0  0  0  0  0  0
   -3.7158    0.9644   -0.5441 C   0  0  0  0  0  0  0  0  0  0  0  0
   -4.7240    1.5883    0.2937 C   0  0  0  0  0  0  0  0  0  0  0  0
   -4.9029    3.3112    0.3905 S   0  0  0  0  0  0  0  0  0  0  0  0
   -6.2285    3.1954    1.4935 C   0  0  0  0  0  0  0  0  0  0  0  0
   -6.9307    4.4157    1.9769 C   0  0  0  0  0  0  0  0  0  0  0  0
   -7.9162    4.9273    0.9235 C   0  0  0  0  0  0  0  0  0  0  0  0
   -6.5224    1.8886    1.7436 C   0  0  0  0  0  0  0  0  0  0  0  0
   -5.6712    0.9741    1.0683 C   0  0  0  0  0  0  0  0  0  0  0  0
   -5.8986   -0.7241    1.1618 Cl  0  0  0  0  0  0  0  0  0  0  0  0
   -7.7963    1.3723    2.7713 Cl  0  0  0  0  0  0  0  0  0  0  0  0
   -3.5483    1.3099   -1.8797 C   0  0  0  0  0  0  0  0  0  0  0  0
   -4.4467    2.5350   -2.7359 S   0  0  0  0  0  0  0  0  0  0  0  0
   -2.8009   -0.5471    1.2893 C   0  0  0  0  0  0  0  0  0  0  0  0
   -1.9363   -1.5733    1.4154 C   0  0  0  0  0  0  0  0  0  0  0  0
   -1.1999   -2.0423   -0.0741 S   0  0  0  0  0  0  0  0  0  0  0  0
    5.7252   -8.5642    8.2924 H   0  0  0  0  0  0  0  0  0  0  0  0
    4.1121   -6.7563    9.2419 H   0  0  0  0  0  0  0  0  0  0  0  0
    0.0135   -4.0114   12.4148 H   0  0  0  0  0  0  0  0  0  0  0  0
   -0.3814   -5.5634   11.6510 H   0  0  0  0  0  0  0  0  0  0  0  0
    2.1316   -4.9918   13.2972 H   0  0  0  0  0  0  0  0  0  0  0  0
    1.7406   -6.5353   12.5306 H   0  0  0  0  0  0  0  0  0  0  0  0
    0.7310   -5.9191   13.8434 H   0  0  0  0  0  0  0  0  0  0  0  0
    8.4551   -7.0883    1.3732 H   0  0  0  0  0  0  0  0  0  0  0  0
    7.4024   -7.2228   -0.0487 H   0  0  0  0  0  0  0  0  0  0  0  0
    8.5458   -4.6109    1.0604 H   0  0  0  0  0  0  0  0  0  0  0  0
    9.1273   -5.4591   -0.3765 H   0  0  0  0  0  0  0  0  0  0  0  0
    7.5083   -4.7540   -0.3621 H   0  0  0  0  0  0  0  0  0  0  0  0
    3.5416   -3.4148    2.9598 H   0  0  0  0  0  0  0  0  0  0  0  0
    2.6319   -1.7951    1.7098 H   0  0  0  0  0  0  0  0  0  0  0  0
    4.0559   -3.2591   -3.5576 H   0  0  0  0  0  0  0  0  0  0  0  0
    4.4668   -3.7610   -1.9177 H   0  0  0  0  0  0  0  0  0  0  0  0
    3.0002   -5.4428   -3.0043 H   0  0  0  0  0  0  0  0  0  0  0  0
    2.2156   -4.7287   -1.5941 H   0  0  0  0  0  0  0  0  0  0  0  0
    1.7396   -4.2213   -3.2132 H   0  0  0  0  0  0  0  0  0  0  0  0
   -4.4584    4.1049    6.1184 H   0  0  0  0  0  0  0  0  0  0  0  0
   -5.0782    4.0702    4.4559 H   0  0  0  0  0  0  0  0  0  0  0  0
   -5.5334    1.6280    4.6762 H   0  0  0  0  0  0  0  0  0  0  0  0
   -4.9490    1.6687    6.3427 H   0  0  0  0  0  0  0  0  0  0  0  0
   -6.4081    2.5581    5.8956 H   0  0  0  0  0  0  0  0  0  0  0  0
   -1.8834    3.6936    1.0759 H   0  0  0  0  0  0  0  0  0  0  0  0
   -3.6163    7.1295   -2.2695 H   0  0  0  0  0  0  0  0  0  0  0  0
    0.4327    2.2918   -3.8481 H   0  0  0  0  0  0  0  0  0  0  0  0
    3.9426   -0.0593   -7.3011 H   0  0  0  0  0  0  0  0  0  0  0  0
   -1.5458    3.1469   -8.1554 H   0  0  0  0  0  0  0  0  0  0  0  0
   -5.9378    4.1769  -11.8080 H   0  0  0  0  0  0  0  0  0  0  0  0
   -2.6676    1.7401   -6.8390 H   0  0  0  0  0  0  0  0  0  0  0  0
   -2.1879    0.6923   -4.8893 H   0  0  0  0  0  0  0  0  0  0  0  0
    1.0791   -1.3006   -6.8638 H   0  0  0  0  0  0  0  0  0  0  0  0
    0.6333   -3.0105   -6.9861 H   0  0  0  0  0  0  0  0  0  0  0  0
    2.9861   -1.9240   -5.3712 H   0  0  0  0  0  0  0  0  0  0  0  0
    3.0962   -2.7151   -6.9488 H   0  0  0  0  0  0  0  0  0  0  0  0
    2.5464   -3.6304   -5.5436 H   0  0  0  0  0  0  0  0  0  0  0  0
   -6.1970    5.1954    2.1908 H   0  0  0  0  0  0  0  0  0  0  0  0
   -7.4680    4.1718    2.8951 H   0  0  0  0  0  0  0  0  0  0  0  0
   -7.3906    5.1592    0.0003 H   0  0  0  0  0  0  0  0  0  0  0  0
   -8.6695    4.1722    0.7138 H   0  0  0  0  0  0  0  0  0  0  0  0
   -8.4127    5.8256    1.2802 H   0  0  0  0  0  0  0  0  0  0  0  0
   -3.3372   -0.1167    2.1136 H   0  0  0  0  0  0  0  0  0  0  0  0
   -1.6737   -2.1097    2.3062 H   0  0  0  0  0  0  0  0  0  0  0  0
  1  2  2  0  0  0  0
  2  3  1  0  0  0  0
  3  4  2  0  0  0  0
  4  5  1  0  0  0  0
  5  6  1  0  0  0  0
  6  7  1  0  0  0  0
  7  8  1  0  0  0  0
  8  9  1  0  0  0  0
  7 10  2  0  0  0  0
 10 11  1  0  0  0  0
 10 12  1  0  0  0  0
 12 13  1  0  0  0  0
  4 14  1  0  0  0  0
 14 15  2  0  0  0  0
 15 16  1  0  0  0  0
 16 17  1  0  0  0  0
 17 18  1  0  0  0  0
 18 19  1  0  0  0  0
 19 20  1  0  0  0  0
 20 21  1  0  0  0  0
 19 22  2  0  0  0  0
 22 23  1  0  0  0  0
 23 24  1  0  0  0  0
 22 25  1  0  0  0  0
 16 26  2  0  0  0  0
 26 27  1  0  0  0  0
 15 28  1  0  0  0  0
 28 29  2  0  0  0  0
 29 30  1  0  0  0  0
 29 31  1  0  0  0  0
 31 32  2  0  0  0  0
 32 33  1  0  0  0  0
 33 34  2  0  0  0  0
 34 35  1  0  0  0  0
 35 36  1  0  0  0  0
 36 37  1  0  0  0  0
 37 38  1  0  0  0  0
 38 39  1  0  0  0  0
 37 40  2  0  0  0  0
 40 41  1  0  0  0  0
 40 42  1  0  0  0  0
 42 43  1  0  0  0  0
 34 44  1  0  0  0  0
 44 45  2  0  0  0  0
 45 46  1  0  0  0  0
 46 47  1  0  0  0  0
 47 48  1  0  0  0  0
 48 49  1  0  0  0  0
 49 50  1  0  0  0  0
 50 51  1  0  0  0  0
 49 52  2  0  0  0  0
 52 53  1  0  0  0  0
 53 54  1  0  0  0  0
 52 55  1  0  0  0  0
 46 56  2  0  0  0  0
 56 57  1  0  0  0  0
 45 58  1  0  0  0  0
 58 59  2  0  0  0  0
 59 60  1  0  0  0  0
 59 61  1  0  0  0  0
 61 62  1  0  0  0  0
 62 63  1  0  0  0  0
 63 64  2  0  0  0  0
 64 65  1  0  0  0  0
 65 66  1  0  0  0  0
 66 67  2  0  0  0  0
 67 68  1  0  0  0  0
 67 69  1  0  0  0  0
 69 70  1  0  0  0  0
 70 71  2  0  0  0  0
 70 72  1  0  0  0  0
 72 73  1  0  0  0  0
 73 74  1  0  0  0  0
 74 75  2  0  0  0  0
 75 76  1  0  0  0  0
 76 77  1  0  0  0  0
 77 78  2  0  0  0  0
 78 79  1  0  0  0  0
 78 80  1  0  0  0  0
 80 81  1  0  0  0  0
 81 82  2  0  0  0  0
 81 83  1  0  0  0  0
 83 84  1  0  0  0  0
 84 85  1  0  0  0  0
 85 86  2  0  0  0  0
 86 87  1  0  0  0  0
 87 88  1  0  0  0  0
 88 89  2  0  0  0  0
 89 90  1  0  0  0  0
 89 91  1  0  0  0  0
 91 92  1  0  0  0  0
 92 93  2  0  0  0  0
 92 94  1  0  0  0  0
 94 95  2  0  0  0  0
 95 96  1  0  0  0  0
 96 97  2  0  0  0  0
 97 98  1  0  0  0  0
 98 99  1  0  0  0  0
 99100  1  0  0  0  0
100101  1  0  0  0  0
101102  1  0  0  0  0
100103  2  0  0  0  0
103104  1  0  0  0  0
103105  1  0  0  0  0
105106  1  0  0  0  0
 97107  1  0  0  0  0
107108  2  0  0  0  0
108109  1  0  0  0  0
109110  1  0  0  0  0
110111  1  0  0  0  0
111112  1  0  0  0  0
112113  1  0  0  0  0
113114  1  0  0  0  0
112115  2  0  0  0  0
115116  1  0  0  0  0
116117  1  0  0  0  0
115118  1  0  0  0  0
109119  2  0  0  0  0
119120  1  0  0  0  0
108121  1  0  0  0  0
121122  2  0  0  0  0
122123  1  0  0  0  0
 27  1  1  0  0  0  0
 57 31  1  0  0  0  0
 65 61  2  0  0  0  0
 71 66  1  0  0  0  0
 76 72  2  0  0  0  0
 82 77  1  0  0  0  0
 87 83  2  0  0  0  0
 93 88  1  0  0  0  0
120 94  1  0  0  0  0
 26  3  1  0  0  0  0
 56 33  1  0  0  0  0
 68 64  1  0  0  0  0
 79 75  1  0  0  0  0
 90 86  1  0  0  0  0
119 96  1  0  0  0  0
 12  5  2  0  0  0  0
 30 14  1  0  0  0  0
 42 35  2  0  0  0  0
 60 44  1  0  0  0  0
105 98  2  0  0  0  0
123107  1  0  0  0  0
 23 17  2  0  0  0  0
 53 47  2  0  0  0  0
116110  2  0  0  0  0
  1124  1  0  0  0  0
  2125  1  0  0  0  0
  8126  1  0  0  0  0
  8127  1  0  0  0  0
  9128  1  0  0  0  0
  9129  1  0  0  0  0
  9130  1  0  0  0  0
 20131  1  0  0  0  0
 20132  1  0  0  0  0
 21133  1  0  0  0  0
 21134  1  0  0  0  0
 21135  1  0  0  0  0
 28136  1  0  0  0  0
 32137  1  0  0  0  0
 38138  1  0  0  0  0
 38139  1  0  0  0  0
 39140  1  0  0  0  0
 39141  1  0  0  0  0
 39142  1  0  0  0  0
 50143  1  0  0  0  0
 50144  1  0  0  0  0
 51145  1  0  0  0  0
 51146  1  0  0  0  0
 51147  1  0  0  0  0
 58148  1  0  0  0  0
 63149  1  0  0  0  0
 71150  1  0  0  0  0
 74151  1  0  0  0  0
 82152  1  0  0  0  0
 85153  1  0  0  0  0
 93154  1  0  0  0  0
 95155  1  0  0  0  0
101156  1  0  0  0  0
101157  1  0  0  0  0
102158  1  0  0  0  0
102159  1  0  0  0  0
102160  1  0  0  0  0
113161  1  0  0  0  0
113162  1  0  0  0  0
114163  1  0  0  0  0
114164  1  0  0  0  0
114165  1  0  0  0  0
121166  1  0  0  0  0
122167  1  0  0  0  0
M  END
