196

C          4.53440       -5.69370        8.62220
C          5.09990       -4.65510        7.97320
C          4.15870       -3.90250        7.21280
C          4.39040       -2.79530        6.38420
C          5.71160       -2.20720        6.22760
S          6.62270       -1.64190        7.59550
C          7.91220       -1.06340        6.59700
C          9.08370       -0.35360        7.18000
C          8.80850        1.14810        7.29310
C          7.63650       -1.30000        5.28350
Cl         8.68060       -0.86250        3.99360
C          6.39300       -1.95270        5.07010
Cl         5.86210       -2.43700        3.51450
C          3.29300       -2.26290        5.71950
C          1.98370       -2.79030        5.83720
C          1.75410       -3.90220        6.66170
C          0.43060       -4.48800        6.82490
S         -0.44200       -5.15880        5.48300
C         -1.76190       -5.65510        6.48030
C         -2.96170       -6.31260        5.89330
C         -3.93560       -5.27690        5.32640
C         -1.53040       -5.30470        7.77730
C         -0.28420       -4.65210        7.97820
Cl         0.22440       -4.07580        9.51000
Cl        -2.61960       -5.62290        9.06450
C          2.85160       -4.43190        7.32980
S          2.83140       -5.83300        8.36160
C          1.04220       -2.03430        5.08870
C          1.59460       -0.97220        4.43680
S          3.32040       -0.84800        4.71000
C          0.95690        0.01200        3.62230
C          1.46610        1.22650        3.26750
C          0.56530        2.02450        2.52130
C          0.73300        3.35840        2.09980
C          2.01120        4.02380        2.29290
S          3.47550        3.29060        1.70230
C          4.46410        4.56180        2.33630
C          5.94750        4.50270        2.22520
C          6.52600        3.47030        3.19630
C          3.69030        5.49240        2.96230
Cl         4.31000        6.89920        3.72580
C          2.29980        5.19440        2.93650
Cl         1.14150        6.17470        3.73250
C         -0.37400        3.98290        1.54220
C         -1.61070        3.31550        1.34770
C         -1.74910        1.95920        1.68480
C         -2.97040        1.21920        1.40420
S         -2.91830       -0.22360        0.43110
C         -4.63120       -0.44550        0.52220
C         -5.29410       -1.62090       -0.10920
C         -5.86590       -2.56700        0.94840
C         -5.19550        0.54560        1.26940
C         -4.25780        1.48570        1.77430
Cl        -4.71610        2.76620        2.82640
Cl        -6.87750        0.68430        1.56910
C         -0.66010        1.35470        2.29640
S         -0.65740       -0.23900        2.99420
C         -2.60340        4.18830        0.85130
C         -2.18080        5.47080        0.66790
S         -0.47030        5.64380        1.01600
C         -3.04840        6.58310        0.44520
S         -4.68690        6.42470        1.04860
C         -5.07950        8.05030        0.66030
C         -4.01450        8.67500        0.09780
C         -2.84610        7.85400       -0.04530
C         -1.80300        8.57280       -0.70950
C         -2.19440        9.87820       -0.97690
S         -3.80580       10.31240       -0.48800
S         -1.00930       10.79020       -1.81270
C          0.03480        9.37540       -1.85960
C         -0.51790        8.29820       -1.22480
C          1.27090        9.45930       -2.57800
S          2.26650       10.88900       -2.47490
C          3.41080       10.27010       -3.60100
C          3.04010        9.03730       -4.02950
C          1.81840        8.55330       -3.45670
C          1.45400        7.28550       -4.01430
C          2.39500        6.87340       -4.94950
S          3.74260        7.94250       -5.20560
S          2.01690        5.36990       -5.68210
C          0.55890        5.26450       -4.70380
C          0.40540        6.35260       -3.88510
C         -0.23210        4.08220       -4.78880
C         -0.00610        3.01430       -5.60450
C         -0.85210        1.91130       -5.34460
C         -0.81450        0.65060       -5.97150
C         -0.06890        0.45450       -7.19680
S          0.98810       -0.90550       -7.43790
C          1.41910       -0.38900       -9.03110
C          2.41370       -1.13780       -9.84730
C          3.82710       -0.59490       -9.62120
C          0.77500        0.77130       -9.34540
Cl         0.94700        1.58150      -10.84830
C         -0.07020        1.25160       -8.31200
Cl        -1.05280        2.64500       -8.50480
C         -1.48710       -0.37290       -5.31670
C         -2.30330       -0.14090       -4.18580
C         -2.58610        1.17640       -3.76190
C         -3.72810        1.44990       -2.92160
S         -3.78720        2.79550       -1.81890
C         -5.45910        2.53410       -1.44430
C         -6.24230        3.47680       -0.60130
C         -6.53060        4.76750       -1.37050
C         -5.92600        1.45430       -2.13260
C         -4.95960        0.83860       -2.96770
Cl        -5.40770       -0.43930       -4.02150
Cl        -7.54310        0.88630       -2.03570
C         -1.75040        2.16500       -4.28010
S         -1.58020        3.80090       -3.69820
C         -2.67150       -1.35210       -3.55080
C         -2.23820       -2.46280       -4.20720
S         -1.38710       -2.07170       -5.68930
C         -2.22810       -3.80800       -3.71750
C         -2.21850       -4.98940       -4.39010
C         -2.00920       -6.11520       -3.54690
C         -1.87110       -7.46620       -3.90570
C         -2.08310       -7.90380       -5.27530
S         -3.56300       -7.53400       -6.11150
C         -3.05530       -8.36410       -7.54210
C         -3.95050       -8.48330       -8.72570
C         -4.89120       -9.68200       -8.58120
C         -1.81200       -8.89350       -7.36510
Cl        -0.97310       -9.78560       -8.56690
C         -1.25540       -8.63160       -6.08420
Cl         0.33250       -9.11380       -5.65800
C         -1.51950       -8.35760       -2.89610
C         -1.24550       -7.95010       -1.56790
C         -1.39150       -6.60620       -1.20890
C         -0.99630       -6.05240        0.07690
S          0.66530       -6.11340        0.58970
C          0.40260       -4.94690        1.84520
C          1.53610       -4.44040        2.66570
C          2.37830       -5.56020        3.26960
C         -0.90820       -4.57560        1.87500
C         -1.70210       -5.20250        0.87830
Cl        -3.38800       -4.94900        0.74300
Cl        -1.57380       -3.39900        2.92650
C         -1.81250       -5.72850       -2.20080
S         -2.00580       -4.01440       -1.99210
C         -0.87800       -9.04880       -0.73920
C         -0.90050      -10.22570       -1.39760
S         -1.34920      -10.08160       -3.06130
H          5.01480       -6.41150        9.25800
H          6.14740       -4.42030        8.01890
H          9.95020       -0.51780        6.53650
H          9.29910       -0.76000        8.16940
H          8.59990        1.56730        6.31210
H          9.67290        1.65490        7.71320
H          7.95100        1.32710        7.93740
H         -2.64970       -6.98860        5.09490
H         -3.45690       -6.89470        6.67260
H         -3.45430       -4.69450        4.54500
H         -4.80450       -5.77460        4.90440
H         -4.26690       -4.60120        6.11090
H         -0.01050       -2.25230        5.06000
H          2.44340        1.55170        3.57530
H          6.22670        4.23300        1.20460
H          6.35400        5.49010        2.44940
H          6.26920        3.72990        4.22060
H          6.12840        2.48180        2.97780
H          7.60840        3.43870        3.10580
H         -4.56340       -2.15620       -0.71810
H         -6.10260       -1.27630       -0.75850
H         -6.65200       -2.07720        1.51550
H         -5.08550       -2.87960        1.63720
H         -6.28150       -3.44900        0.46830
H         -3.61560        3.89000        0.66680
H         -6.05550        8.43760        0.86830
H         -0.01160        7.35800       -1.11150
H          4.26740       10.85130       -3.87300
H         -0.43550        6.46620       -3.22590
H          0.78780        2.99430       -6.32930
H          2.38040       -2.19410       -9.57680
H          2.15090       -1.03610      -10.90220
H          4.54030       -1.14940      -10.22490
H          4.10500       -0.69110       -8.57450
H          3.87630        0.45460       -9.89950
H         -7.18100        2.99480       -0.32480
H         -5.70240        3.71850        0.31490
H         -5.59950        5.24900       -1.66100
H         -7.10430        4.55160       -2.26860
H         -7.10030        5.45160       -0.74780
H         -3.17780       -1.39180       -2.60310
H         -2.33390       -5.05320       -5.45680
H         -4.53880       -7.56990       -8.82870
H         -3.33520       -8.60740       -9.61870
H         -5.53530       -9.75780       -9.45300
H         -5.51240       -9.56950       -7.69590
H         -4.31830      -10.60130       -8.48970
H          2.17600       -3.81540        2.03460
H          1.12800       -3.81200        3.45740
H          3.19130       -5.13670        3.85410
H          1.77040       -6.18250        3.92100
H          2.80060       -6.18270        2.48410
H         -0.62380       -8.94130        0.29950
H         -0.67660      -11.20130       -1.01250
