
  xtb     03012217283D
 energy: -228.115000288351 gnorm: 0.000952686811 xtb: 6.4.1 (unknown)
 90 97  0     0  0            999 V2000
    2.0100    1.3936    0.0363 C   0  0  0  0  0  0  0  0  0  0  0  0
    1.3913    2.4173    0.6031 O   0  0  0  0  0  0  0  0  0  0  0  0
    0.0728    2.1665    0.6380 C   0  0  0  0  0  0  0  0  0  0  0  0
   -0.1747    0.9367    0.0274 C   0  0  0  0  0  0  0  0  0  0  0  0
    1.1118    0.4284   -0.3418 C   0  0  0  0  0  0  0  0  0  0  0  0
    1.5520   -0.8146   -0.9111 N   0  0  0  0  0  4  0  0  0  0  0  0
    2.6461   -1.1702   -0.5420 O   0  0  0  0  0  1  0  0  0  0  0  0
    0.8482   -1.3921   -1.7003 O   0  0  0  0  0  0  0  0  0  0  0  0
   -1.4523    0.3467   -0.1336 N   0  0  0  0  0  4  0  0  0  0  0  0
   -1.5439   -0.6384   -0.8334 O   0  0  0  0  0  1  0  0  0  0  0  0
   -2.3799    0.8509    0.4641 O   0  0  0  0  0  0  0  0  0  0  0  0
   -0.8528    3.1002    1.2066 C   0  0  0  0  0  0  0  0  0  0  0  0
   -0.6028    3.9723    2.2059 C   0  0  0  0  0  0  0  0  0  0  0  0
    0.5683    4.0530    3.0223 C   0  0  0  0  0  0  0  0  0  0  0  0
    1.5317    3.1121    3.0211 O   0  0  0  0  0  0  0  0  0  0  0  0
    2.5094    3.4584    3.8774 C   0  0  0  0  0  0  0  0  0  0  0  0
    2.1715    4.6785    4.4709 C   0  0  0  0  0  0  0  0  0  0  0  0
    0.9156    5.0484    3.9334 C   0  0  0  0  0  0  0  0  0  0  0  0
    0.2072    6.2782    4.1588 N   0  0  0  0  0  4  0  0  0  0  0  0
   -0.9999    6.2270    4.1037 O   0  0  0  0  0  1  0  0  0  0  0  0
    0.8764    7.2620    4.3395 O   0  0  0  0  0  0  0  0  0  0  0  0
    2.8748    5.3446    5.5274 N   0  0  0  0  0  4  0  0  0  0  0  0
    2.2011    5.9366    6.3332 O   0  0  0  0  0  1  0  0  0  0  0  0
    4.0784    5.2251    5.5469 O   0  0  0  0  0  0  0  0  0  0  0  0
    3.7028    2.7001    4.0550 C   0  0  0  0  0  0  0  0  0  0  0  0
    3.9864    1.4299    3.6729 C   0  0  0  0  0  0  0  0  0  0  0  0
    3.1145    0.4267    3.1661 C   0  0  0  0  0  0  0  0  0  0  0  0
    1.7719    0.5656    3.1603 O   0  0  0  0  0  0  0  0  0  0  0  0
    1.1946   -0.5553    2.6673 C   0  0  0  0  0  0  0  0  0  0  0  0
    2.2052   -1.4644    2.3322 C   0  0  0  0  0  0  0  0  0  0  0  0
    3.4309   -0.8391    2.6696 C   0  0  0  0  0  0  0  0  0  0  0  0
    4.7431   -1.3721    2.4396 N   0  0  0  0  0  4  0  0  0  0  0  0
    4.8499   -2.2343    1.6082 O   0  0  0  0  0  1  0  0  0  0  0  0
    5.6455   -0.8909    3.0907 O   0  0  0  0  0  0  0  0  0  0  0  0
    2.0408   -2.8102    1.8776 N   0  0  0  0  0  4  0  0  0  0  0  0
    2.7118   -3.6565    2.4078 O   0  0  0  0  0  1  0  0  0  0  0  0
    1.1954   -2.9979    1.0254 O   0  0  0  0  0  0  0  0  0  0  0  0
   -0.2215   -0.5920    2.6915 C   0  0  0  0  0  0  0  0  0  0  0  0
   -1.0318   -1.4861    2.0620 C   0  0  0  0  0  0  0  0  0  0  0  0
   -2.4327   -1.5020    2.1918 C   0  0  0  0  0  0  0  0  0  0  0  0
   -3.2753   -0.6020    3.4386 S   0  0  0  0  0  0  0  0  0  0  0  0
   -4.7919   -1.2526    2.9899 C   0  0  0  0  0  0  0  0  0  0  0  0
   -4.6744   -2.0948    1.9250 C   0  0  0  0  0  0  0  0  0  0  0  0
   -3.3409   -2.2373    1.4394 C   0  0  0  0  0  0  0  0  0  0  0  0
   -3.2972   -3.0683    0.2834 C   0  0  0  0  0  0  0  0  0  0  0  0
   -4.5725   -3.5717   -0.0148 C   0  0  0  0  0  0  0  0  0  0  0  0
   -5.8456   -3.0459    1.0334 S   0  0  0  0  0  0  0  0  0  0  0  0
   -4.6151   -4.5939   -1.3836 S   0  0  0  0  0  0  0  0  0  0  0  0
   -2.9059   -4.2724   -1.6438 C   0  0  0  0  0  0  0  0  0  0  0  0
   -2.3541   -3.4592   -0.6764 C   0  0  0  0  0  0  0  0  0  0  0  0
   -2.2298   -4.7156   -2.8153 C   0  0  0  0  0  0  0  0  0  0  0  0
   -1.1422   -4.0332   -3.2097 O   0  0  0  0  0  0  0  0  0  0  0  0
   -0.6403   -4.5857   -4.3301 C   0  0  0  0  0  0  0  0  0  0  0  0
   -1.4036   -5.6921   -4.6689 C   0  0  0  0  0  0  0  0  0  0  0  0
   -2.4501   -5.7682   -3.7047 C   0  0  0  0  0  0  0  0  0  0  0  0
   -3.4241   -6.7886   -3.5838 N   0  0  0  0  0  4  0  0  0  0  0  0
   -4.4668   -6.4825   -3.0287 O   0  0  0  0  0  1  0  0  0  0  0  0
   -3.1476   -7.8862   -4.0003 O   0  0  0  0  0  0  0  0  0  0  0  0
   -1.2728   -6.4709   -5.8644 N   0  0  0  0  0  4  0  0  0  0  0  0
   -2.2932   -6.8667   -6.3702 O   0  0  0  0  0  1  0  0  0  0  0  0
   -0.1524   -6.6224   -6.2947 O   0  0  0  0  0  0  0  0  0  0  0  0
    0.4933   -4.0165   -5.0023 C   0  0  0  0  0  0  0  0  0  0  0  0
    0.8579   -2.7175   -4.9896 C   0  0  0  0  0  0  0  0  0  0  0  0
    0.1097   -1.6212   -4.4521 C   0  0  0  0  0  0  0  0  0  0  0  0
   -1.2072   -1.7002   -4.1910 O   0  0  0  0  0  0  0  0  0  0  0  0
   -1.6394   -0.5474   -3.6673 C   0  0  0  0  0  0  0  0  0  0  0  0
   -0.5756    0.3446   -3.6024 C   0  0  0  0  0  0  0  0  0  0  0  0
    0.5545   -0.3457   -4.1245 C   0  0  0  0  0  0  0  0  0  0  0  0
    1.9100    0.0852   -4.0454 N   0  0  0  0  0  4  0  0  0  0  0  0
    2.6756   -0.2812   -4.9004 O   0  0  0  0  0  1  0  0  0  0  0  0
    2.1919    0.7534   -3.0697 O   0  0  0  0  0  0  0  0  0  0  0  0
   -0.5928    1.6878   -3.1526 N   0  0  0  0  0  4  0  0  0  0  0  0
    0.1617    2.4694   -3.6793 O   0  0  0  0  0  1  0  0  0  0  0  0
   -1.3659    1.9611   -2.2497 O   0  0  0  0  0  0  0  0  0  0  0  0
   -3.0182   -0.3620   -3.3073 C   0  0  0  0  0  0  0  0  0  0  0  0
   -3.9416   -1.3132   -3.4347 C   0  0  0  0  0  0  0  0  0  0  0  0
    3.0733    1.4343   -0.1042 H   0  0  0  0  0  0  0  0  0  0  0  0
   -1.8436    3.0655    0.7752 H   0  0  0  0  0  0  0  0  0  0  0  0
   -1.3765    4.6750    2.4839 H   0  0  0  0  0  0  0  0  0  0  0  0
    4.4904    3.2587    4.5433 H   0  0  0  0  0  0  0  0  0  0  0  0
    5.0026    1.0838    3.8067 H   0  0  0  0  0  0  0  0  0  0  0  0
   -0.6702    0.2093    3.2653 H   0  0  0  0  0  0  0  0  0  0  0  0
   -0.6166   -2.2352    1.4012 H   0  0  0  0  0  0  0  0  0  0  0  0
   -5.6766   -0.9784    3.5287 H   0  0  0  0  0  0  0  0  0  0  0  0
   -1.3235   -3.1569   -0.6951 H   0  0  0  0  0  0  0  0  0  0  0  0
    1.0891   -4.7257   -5.5600 H   0  0  0  0  0  0  0  0  0  0  0  0
    1.7947   -2.4344   -5.4490 H   0  0  0  0  0  0  0  0  0  0  0  0
   -3.2590    0.6066   -2.8940 H   0  0  0  0  0  0  0  0  0  0  0  0
   -3.7013   -2.2827   -3.8362 H   0  0  0  0  0  0  0  0  0  0  0  0
   -4.9614   -1.1438   -3.1397 H   0  0  0  0  0  0  0  0  0  0  0  0
  1  2  1  0  0  0  0
  2  3  1  0  0  0  0
  3  4  2  0  0  0  0
  4  5  1  0  0  0  0
  5  6  1  0  0  0  0
  6  7  1  0  0  0  0
  6  8  2  0  0  0  0
  4  9  1  0  0  0  0
  9 10  1  0  0  0  0
  9 11  2  0  0  0  0
  3 12  1  0  0  0  0
 12 13  2  0  0  0  0
 13 14  1  0  0  0  0
 14 15  1  0  0  0  0
 15 16  1  0  0  0  0
 16 17  2  0  0  0  0
 17 18  1  0  0  0  0
 18 19  1  0  0  0  0
 19 20  1  0  0  0  0
 19 21  2  0  0  0  0
 17 22  1  0  0  0  0
 22 23  1  0  0  0  0
 22 24  2  0  0  0  0
 16 25  1  0  0  0  0
 25 26  2  0  0  0  0
 26 27  1  0  0  0  0
 27 28  1  0  0  0  0
 28 29  1  0  0  0  0
 29 30  2  0  0  0  0
 30 31  1  0  0  0  0
 31 32  1  0  0  0  0
 32 33  1  0  0  0  0
 32 34  2  0  0  0  0
 30 35  1  0  0  0  0
 35 36  1  0  0  0  0
 35 37  2  0  0  0  0
 29 38  1  0  0  0  0
 38 39  2  0  0  0  0
 39 40  1  0  0  0  0
 40 41  1  0  0  0  0
 41 42  1  0  0  0  0
 42 43  2  0  0  0  0
 43 44  1  0  0  0  0
 44 45  1  0  0  0  0
 45 46  2  0  0  0  0
 46 47  1  0  0  0  0
 46 48  1  0  0  0  0
 48 49  1  0  0  0  0
 49 50  2  0  0  0  0
 49 51  1  0  0  0  0
 51 52  1  0  0  0  0
 52 53  1  0  0  0  0
 53 54  2  0  0  0  0
 54 55  1  0  0  0  0
 55 56  1  0  0  0  0
 56 57  1  0  0  0  0
 56 58  2  0  0  0  0
 54 59  1  0  0  0  0
 59 60  1  0  0  0  0
 59 61  2  0  0  0  0
 53 62  1  0  0  0  0
 62 63  2  0  0  0  0
 63 64  1  0  0  0  0
 64 65  1  0  0  0  0
 65 66  1  0  0  0  0
 66 67  2  0  0  0  0
 67 68  1  0  0  0  0
 68 69  1  0  0  0  0
 69 70  1  0  0  0  0
 69 71  2  0  0  0  0
 67 72  1  0  0  0  0
 72 73  1  0  0  0  0
 72 74  2  0  0  0  0
 66 75  1  0  0  0  0
 75 76  2  0  0  0  0
  5  1  2  0  0  0  0
 18 14  2  0  0  0  0
 31 27  2  0  0  0  0
 44 40  2  0  0  0  0
 50 45  1  0  0  0  0
 55 51  2  0  0  0  0
 68 64  2  0  0  0  0
 47 43  1  0  0  0  0
  1 77  1  0  0  0  0
 12 78  1  0  0  0  0
 13 79  1  0  0  0  0
 25 80  1  0  0  0  0
 26 81  1  0  0  0  0
 38 82  1  0  0  0  0
 39 83  1  0  0  0  0
 42 84  1  0  0  0  0
 50 85  1  0  0  0  0
 62 86  1  0  0  0  0
 63 87  1  0  0  0  0
 75 88  1  0  0  0  0
 76 89  1  0  0  0  0
 76 90  1  0  0  0  0
M  CHG  1   6   1
M  CHG  1   7  -1
M  CHG  1   9   1
M  CHG  1  10  -1
M  CHG  1  19   1
M  CHG  1  20  -1
M  CHG  1  22   1
M  CHG  1  23  -1
M  CHG  1  32   1
M  CHG  1  33  -1
M  CHG  1  35   1
M  CHG  1  36  -1
M  CHG  1  56   1
M  CHG  1  57  -1
M  CHG  1  59   1
M  CHG  1  60  -1
M  CHG  1  69   1
M  CHG  1  70  -1
M  CHG  1  72   1
M  CHG  1  73  -1
M  END
