167

C          4.43020       -5.61930       -0.24730
C          4.65100       -4.64540        0.65830
C          4.09870       -4.93950        1.94070
C          4.12370       -4.15450        3.10950
C          4.88970       -2.91850        3.14050
S          6.53210       -2.90390        2.55270
C          6.73390       -1.21940        2.88670
C          7.99290       -0.50320        2.54190
C          7.88050        0.17660        1.17520
C          5.58970       -0.70710        3.41900
Cl         5.38180        0.94290        3.85010
C          4.55570       -1.66770        3.58000
Cl         3.03730       -1.21910        4.21000
C          3.42590       -4.64650        4.21000
C          2.78050       -5.90860        4.20480
C          2.80560       -6.71240        3.05670
C          2.22190       -8.04320        3.05410
S          1.06560       -8.53210        1.85300
C          0.92890      -10.12220        2.52110
C          0.06730      -11.15380        1.88130
C          0.80470      -11.83550        0.72610
C          1.74630      -10.25420        3.60400
C          2.47550       -9.07540        3.91460
Cl         3.61430       -9.00290        5.19790
Cl         1.89440      -11.69640        4.52240
C          3.43210       -6.18560        1.93440
S          3.54530       -6.96350        0.38160
C          2.14110       -6.19020        5.44030
C          2.27880       -5.20240        6.36220
S          3.24690       -3.87030        5.75960
C          1.75300       -5.18890        7.69770
S          1.90270       -6.61240        8.69870
C          1.11690       -5.85450       10.02980
C          0.75290       -4.58600        9.71360
C          1.10670       -4.18850        8.38290
C          0.60960       -2.87950        8.08960
C         -0.04910       -2.33700        9.18590
S         -0.10980       -3.34440       10.60530
S         -0.71550       -0.78630        8.87390
C         -0.11720       -0.86010        7.22570
C          0.56070       -2.02700        6.97420
C         -0.33720        0.20880        6.30650
C          0.11300        0.26130        5.01960
C         -0.21840        1.45460        4.33960
C          0.11620        1.82160        3.01930
C          0.87600        0.90080        2.19070
S          2.35870        1.40630        1.43110
C          2.74400       -0.20050        0.92750
C          3.97310       -0.50030        0.14280
C          3.65080       -0.62220       -1.34780
C          1.76320       -1.06690        1.30840
Cl         1.85310       -2.76570        1.06770
C          0.69540       -0.44460        2.00660
Cl        -0.70830       -1.31050        2.48310
C         -0.21250        3.11420        2.63030
C         -0.87840        4.02130        3.48930
C         -1.26340        3.63450        4.78440
C         -1.96580        4.55540        5.66390
S         -3.47160        5.27930        5.17910
C         -3.62900        6.14110        6.67170
C         -4.82320        6.98390        6.95400
C         -5.97750        6.13400        7.49070
C         -2.57190        5.86970        7.48730
C         -1.62460        4.97530        6.91860
Cl        -0.16730        4.55360        7.71470
Cl        -2.37390        6.54370        9.05250
C         -0.91860        2.35260        5.18340
S         -1.22240        1.65120        6.74770
C         -0.98870        5.30970        2.91700
C         -0.46370        5.40740        1.66240
S          0.16360        3.86680        1.09860
C         -0.28320        6.63980        0.96020
S         -0.09820        8.06900        1.96080
C          0.15430        9.09020        0.60430
C          0.09170        8.37410       -0.54550
C         -0.16110        6.97110       -0.37150
C         -0.29300        6.32340       -1.64360
C         -0.10970        7.23370       -2.67930
S          0.23290        8.87200       -2.21810
S         -0.33300        6.55770       -4.23500
C         -0.70650        5.00620       -3.50340
C         -0.62940        5.04500       -2.13340
C         -1.09110        3.93150       -4.36100
C         -1.43360        2.65230       -4.03280
C         -1.81590        1.86710       -5.14950
C         -2.25770        0.53210       -5.16820
C         -2.24190       -0.29130       -3.97370
S         -3.63080       -1.21470       -3.47930
C         -2.79590       -1.89280       -2.12450
C         -3.47030       -2.81350       -1.16830
C         -3.98980       -2.05210        0.05390
C         -1.52000       -1.41730       -2.07070
Cl        -0.38010       -1.88000       -0.88320
C         -1.20110       -0.51080       -3.11460
Cl         0.36970        0.15570       -3.29900
C         -2.68190        0.02480       -6.38840
C         -2.65400        0.76580       -7.59300
C         -2.20070        2.09660       -7.57830
C         -2.20650        2.91070       -8.78120
S         -0.79000        3.77310       -9.30200
C         -1.60590        4.44040      -10.67450
C         -0.91720        5.39200      -11.58870
C         -0.87860        6.79630      -10.98110
C         -2.90170        4.01950      -10.70670
C         -3.24510        3.14830       -9.63850
Cl        -4.83600        2.54140       -9.42000
Cl        -4.03080        4.48100      -11.91420
C         -1.77930        2.60550       -6.35750
S         -1.22710        4.23030       -6.08370
C         -3.08420       -0.00740       -8.69700
C         -3.46990       -1.27620       -8.36820
S         -3.26480       -1.59140       -6.65800
C         -3.93490       -2.27150       -9.27710
S         -3.62250       -2.00410      -10.98070
C         -4.35470       -3.48900      -11.43340
C         -4.81930       -4.14420      -10.34010
C         -4.59920       -3.46910       -9.09180
C         -5.16960       -4.21900       -8.01110
C         -5.74300       -5.39520       -8.47400
S         -5.65620       -5.67370      -10.18860
S         -6.46580       -6.34120       -7.23800
C         -6.00780       -5.14310       -6.07270
C         -5.34270       -4.09260       -6.60800
H          4.73100       -5.63890       -1.27640
H          5.17550       -3.73800        0.42400
H          8.18930        0.25150        3.30610
H          8.82030       -1.21400        2.53050
H          8.81190        0.68060        0.93260
H          7.08040        0.91210        1.18640
H          7.67000       -0.55860        0.40200
H         -0.84240      -10.68380        1.50380
H         -0.20670      -11.89740        2.63170
H          1.08490      -11.10220       -0.02630
H          1.70600      -12.32210        1.08980
H          0.16590      -12.58410        0.26530
H          1.56290       -7.07750        5.62260
H          0.97240       -6.39130       10.94470
H          0.99910       -2.26540        6.02470
H          0.69030       -0.52700        4.58470
H          4.70370        0.29400        0.30030
H          4.39720       -1.44130        0.50070
H          4.55450       -0.84060       -1.91100
H          3.22390        0.30640       -1.71890
H          2.93420       -1.42260       -1.51320
H         -5.13770        7.48600        6.03730
H         -4.55080        7.73970        7.69280
H         -5.68380        5.64010        8.41340
H         -6.84160        6.76160        7.69060
H         -6.25670        5.37520        6.76360
H         -1.41950        6.15010        3.43040
H          0.32260       10.13890        0.73720
H         -0.81880        4.19570       -1.50440
H         -1.43640        2.28760       -3.02290
H         -4.30020       -3.31120       -1.67180
H         -2.75270       -3.57030       -0.84310
H         -4.70150       -1.28800       -0.24970
H         -4.48320       -2.73770        0.73760
H         -3.16700       -1.57260        0.57760
H          0.10270        5.04800      -11.77070
H         -1.45400        5.41580      -12.53860
H         -0.34980        6.78070      -10.03100
H         -0.36990        7.48090      -11.65430
H         -1.88840        7.16080      -10.81040
H         -3.10890        0.35890       -9.70700
H         -4.40010       -3.77930      -12.46270
H         -6.27150       -5.30110       -5.04610
H         -4.99930       -3.26090       -6.02450
