90

C          4.07430        1.11770       -1.17710
C          5.35240        0.83630       -0.82230
O          6.01790       -0.28870       -1.14740
C          7.34840       -0.38850       -0.69770
S          6.06110        2.12370        0.11000
C          4.58850        3.06580       -0.02750
O          4.58550        4.28330        0.55840
C          3.82840        4.40300        1.74990
C          3.62040        2.38740       -0.71750
C          2.27200        2.88200       -0.96640
C          1.96310        4.20320       -1.15900
O          2.84480        5.21290       -1.19890
C          2.34070        6.50210       -1.43830
S          0.26060        4.46520       -1.41810
C         -0.03170        2.73920       -1.31670
O         -1.28200        2.23700       -1.41140
C         -1.95490        2.54850       -2.62050
C          1.11100        2.04480       -1.07610
C          1.07970        0.57580       -1.05670
C          0.87820       -0.12110       -2.21100
O          0.75690        0.43030       -3.43450
C          0.48350       -0.44820       -4.50170
S          0.85050       -1.84340       -1.94590
C          1.05350       -1.60030       -0.23280
O          1.16670       -2.62750        0.63180
C          0.86650       -3.90840        0.13630
C          1.14740       -0.27360        0.09520
C          1.23430        0.17220        1.46850
S          2.42300        1.32640        1.99710
C          1.88910        1.25230        3.63740
C          0.85680        0.38210        3.76150
C          0.47200       -0.24220        2.53030
C         -0.65080       -1.10550        2.72270
C         -1.05320       -1.12810        4.04670
S         -0.12470       -0.11820        5.12860
S         -2.40070       -2.16010        4.32350
C         -2.45380       -2.55340        2.61270
C         -1.45980       -1.92590        1.91630
C         -3.43960       -3.47720        2.11800
C         -4.13790       -4.31410        2.94930
O         -4.03760       -4.31200        4.29180
C         -4.80790       -5.25170        4.99840
S         -5.15750       -5.42560        2.08360
C         -4.66190       -4.71450        0.56650
O         -5.11330       -5.17150       -0.62180
C         -6.27100       -5.97120       -0.59100
C         -3.77130       -3.69580        0.73460
C         -3.31100       -2.90160       -0.40200
C         -3.35110       -1.53580       -0.44670
O         -3.79690       -0.73830        0.53810
C         -3.54370        0.64190        0.40920
S         -2.76070       -0.91670       -1.97160
C         -2.49270       -2.54130       -2.54100
O         -1.98120       -2.65850       -3.79450
C         -1.63470       -3.96530       -4.19260
C         -2.82600       -3.47170       -1.61740
H          3.48170        0.45640       -1.77680
H          7.71130       -1.35700       -1.03630
H          7.96730        0.40970       -1.11980
H          7.39870       -0.33230        0.39450
H          4.20770        3.72630        2.52250
H          2.77110        4.18750        1.57470
H          3.94720        5.43520        2.07300
H          1.62390        6.79650       -0.66410
H          3.20050        7.16820       -1.41870
H          1.84690        6.55850       -2.41450
H         -1.38450        2.18950       -3.48110
H         -2.91360        2.03780       -2.57500
H         -2.10970        3.62860       -2.70830
H         -0.46000       -0.97990       -4.34550
H          1.29130       -1.17860       -4.62230
H          0.41620        0.17260       -5.39290
H         -0.16110       -3.96000       -0.24160
H          0.98130       -4.59090        0.97570
H          1.55650       -4.18860       -0.66790
H          2.36740        1.85090        4.38480
H         -1.31310       -2.04530        0.86260
H         -5.87720       -5.10220        4.81460
H         -4.58830       -5.09050        6.05160
H         -4.53930       -6.27490        4.71400
H         -6.09180       -6.89860       -0.03520
H         -7.11030       -5.43960       -0.13170
H         -6.50560       -6.20420       -1.62770
H         -3.84110        1.09220        1.35390
H         -4.13630        1.07020       -0.40590
H         -2.48550        0.84150        0.21740
H         -0.87650       -4.38790       -3.52650
H         -1.23040       -3.87180       -5.19850
H         -2.51220       -4.61790       -4.20560
H         -2.74580       -4.53330       -1.75390
