225

C          0.25330       -8.34050       10.94360
C          1.10170       -8.51260        9.91000
C          0.65450       -7.87480        8.71570
C          1.24990       -7.89030        7.44510
C          2.51700       -8.56120        7.19960
S          3.93220       -8.17220        8.13340
C          4.92480       -9.26730        7.23300
C          6.38300       -9.38920        7.50690
C          7.16750       -8.29440        6.77960
C          4.18910       -9.88670        6.26780
Cl         4.82700      -11.04570        5.17530
C          2.82380       -9.49130        6.24620
Cl         1.68230      -10.18750        5.17330
C          0.58880       -7.20920        6.43030
C         -0.62790       -6.51290        6.63350
C         -1.25060       -6.54420        7.89200
C         -2.55180       -5.93430        8.10450
S         -2.84860       -4.83730        9.41960
C         -4.51120       -4.64100        8.98330
C         -5.43060       -3.80360        9.80160
C         -6.01410       -4.61500       10.96100
C         -4.80680       -5.39650        7.88770
C         -3.69820       -6.12670        7.38250
Cl        -3.83250       -7.20370        6.05190
Cl        -6.36360       -5.47120        7.16850
C         -0.58050       -7.21320        8.90970
S         -1.14370       -7.40100       10.54680
C         -1.04270       -5.82110        5.46630
C         -0.21290       -6.01060        4.40390
S          1.15040       -7.03520        4.79530
C         -0.34560       -5.48450        3.07830
C         -0.93730       -4.31880        2.69730
C         -0.87580       -4.08810        1.30000
C         -1.32960       -2.97090        0.57980
C         -1.76110       -1.73970        1.22200
S         -3.15250       -0.84260        0.68390
C         -2.83570        0.47290        1.75910
C         -3.73460        1.65490        1.85300
C         -4.70090        1.51630        3.03150
C         -1.71840        0.21690        2.49570
Cl        -1.05970        1.30910        3.64670
C         -1.11390       -1.03210        2.20050
Cl         0.33290       -1.52610        2.97550
C         -1.25710       -3.06010       -0.80700
C         -0.63820       -4.12940       -1.49780
C         -0.10010       -5.20160       -0.76660
C          0.63110       -6.27300       -1.42310
S          2.00540       -5.91360       -2.42790
C          2.30710       -7.58620       -2.74900
C          3.47340       -8.01330       -3.56980
C          4.75540       -8.02140       -2.73330
C          1.39150       -8.36430       -2.10610
C          0.43810       -7.62420       -1.35530
Cl        -0.86180       -8.37330       -0.52710
Cl         1.36500      -10.07810       -2.18790
C         -0.26380       -5.16720        0.61260
S          0.29010       -6.38660        1.72140
C         -0.66790       -3.94430       -2.90700
C         -1.30540       -2.80270       -3.28320
S         -1.85500       -1.86970       -1.90570
C         -1.59640       -2.22980       -4.56360
C         -2.63720       -1.38280       -4.78910
C         -2.61320       -0.77310       -6.06220
C         -3.48410        0.21730       -6.53890
C         -4.68730        0.60050       -5.82360
S         -5.06150        2.26910       -5.51080
C         -6.59930        1.88430       -4.81570
C         -7.53250        2.96610       -4.39850
C         -8.00740        3.77300       -5.60850
C         -6.78720        0.53550       -4.81770
Cl        -8.19800       -0.24080       -4.22420
C         -5.70380       -0.19640       -5.37780
Cl        -5.73190       -1.90250       -5.54490
C         -3.11870        0.84180       -7.72210
C         -1.99110        0.46070       -8.48630
C         -1.19890       -0.62810       -8.06980
C         -0.11540       -1.11690       -8.90050
S          1.46470       -1.45070       -8.25710
C          2.06880       -1.96230       -9.79550
C          3.46170       -2.46570       -9.94360
C          3.56770       -3.91850       -9.47390
C          1.08850       -1.88700      -10.73990
C         -0.14890       -1.40230      -10.23950
Cl        -1.55250       -1.28510      -11.22060
Cl         1.30560       -2.32630      -12.38470
C         -1.49700       -1.18450       -6.82920
S         -0.56330       -2.38890       -5.97210
C         -1.76270        1.36290       -9.56270
C         -2.66470        2.37920       -9.61560
S         -3.92750        2.21510       -8.41170
C         -2.67930        3.55750      -10.43370
S         -2.43820        3.50790      -12.15810
C         -2.61470        5.21530      -12.30690
C         -2.83600        5.78530      -11.09480
C         -2.88270        4.85150      -10.01010
C         -3.00190        5.52610       -8.75150
C         -3.04770        6.90240       -8.92800
S         -3.00500        7.45520      -10.58070
S         -3.03770        7.77890       -7.44940
C         -2.96930        6.27040       -6.55810
C         -2.96960        5.18010       -7.38630
C         -2.74770        6.20820       -5.14150
C         -3.12890        5.20800       -4.29840
C         -2.44840        5.23350       -3.05380
C         -2.45470        4.24020       -2.06160
C         -3.50590        3.22870       -2.00920
S         -5.09400        3.68070       -1.46660
C         -5.67130        2.05230       -1.56670
C         -7.06090        1.68440       -1.17510
C         -7.12020        1.14610        0.25610
C         -4.68000        1.22360       -2.00150
Cl        -4.92090       -0.46170       -2.19560
C         -3.44980        1.89080       -2.25990
Cl        -2.04240        1.13900       -2.88520
C         -1.43130        4.28380       -1.12610
C         -0.53390        5.37690       -1.03070
C         -0.64180        6.46270       -1.91860
C          0.19980        7.64130       -1.81610
S          1.92930        7.54450       -1.65550
C          2.10890        9.26450       -1.65170
C          3.45260        9.90090       -1.57750
C          4.06540       10.05020       -2.97210
C          0.89260        9.86660       -1.77690
C         -0.19020        8.95240       -1.87040
Cl        -1.82100        9.47100       -1.95300
Cl         0.66690       11.56690       -1.80790
C         -1.55430        6.32540       -2.95860
S         -1.63590        7.32940       -4.37760
C          0.43200        5.16880       -0.01910
C          0.35060        3.94730        0.58300
S         -1.02010        3.02040        0.00780
C          1.34320        3.42360        1.46980
C          1.70190        2.13340        1.72250
C          2.91390        2.01400        2.45820
C          3.66430        0.86100        2.76460
C          3.33530       -0.45300        2.24410
S          3.49610       -1.86870        3.24670
C          3.05870       -2.93820        1.96110
C          3.03860       -4.40990        2.17140
C          4.42530       -4.94810        2.52160
C          2.80090       -2.22860        0.82700
Cl         2.31650       -2.93540       -0.66350
C          2.96420       -0.82470        0.97800
Cl         2.82800        0.23180       -0.36830
C          4.79800        1.04210        3.55870
C          5.24750        2.30960        3.99320
C          4.56400        3.46610        3.59240
C          5.07420        4.79330        3.89370
S          4.08560        6.00710        4.64780
C          5.35730        7.17970        4.60480
C          5.13740        8.57330        5.08020
C          4.51540        9.42870        3.97350
C          6.47260        6.64970        4.02770
C          6.31820        5.29530        3.62830
Cl         7.55590        4.42420        2.81780
Cl         7.93590        7.51650        3.79750
C          3.40570        3.28400        2.85140
S          2.43410        4.57550        2.21810
C          6.41620        2.21760        4.80380
C          6.85410        0.95070        4.94060
S          5.87810       -0.21100        4.11060
H          0.35030       -8.71380       11.94430
H          2.01460       -9.07520        9.97490
H          6.55920       -9.30920        8.58110
H          6.72200      -10.36960        7.16760
H          6.83940       -7.31190        7.11050
H          7.01180       -8.36940        5.70640
H          8.22940       -8.39640        6.98620
H         -6.23970       -3.44300        9.16370
H         -4.88490       -2.94520       10.19670
H         -6.57390       -5.46580       10.58100
H         -6.68200       -3.99440       11.55230
H         -5.21670       -4.98220       11.60270
H         -1.92810       -5.21520        5.41660
H         -1.40310       -3.64430        3.39140
H         -4.29140        1.75790        0.92180
H         -3.12230        2.54800        1.99250
H         -4.14640        1.41930        3.96110
H         -5.33660        2.39520        3.09840
H         -5.32870        0.63720        2.90840
H          3.28060       -9.01590       -3.95590
H          3.59470       -7.32980       -4.41220
H          5.59770       -8.33550       -3.34380
H          4.65500       -8.70870       -1.89720
H          4.95700       -7.02640       -2.34360
H         -0.25950       -4.64680       -3.61090
H         -3.38470       -1.17130       -4.04930
H         -7.03000        3.63670       -3.69780
H         -8.38780        2.51180       -3.89680
H         -8.52210        3.12780       -6.31610
H         -7.15930        4.23210       -6.11110
H         -8.69070        4.55520       -5.28950
H          4.13690       -1.84450       -9.35240
H          3.74970       -2.39600      -10.99390
H          3.28200       -3.99680       -8.42760
H          2.91070       -4.55380      -10.06260
H          4.58850       -4.27360       -9.58630
H         -0.91470        1.30450      -10.22050
H         -2.53440        5.67940      -13.26820
H         -2.90110        4.17710       -7.01150
H         -3.81720        4.43140       -4.57710
H         -7.70300        2.56180       -1.25860
H         -7.42410        0.91660       -1.86020
H         -8.13530        0.83780        0.49100
H         -6.81870        1.91430        0.96290
H         -6.46260        0.28750        0.36480
H          4.10850        9.28940       -0.95540
H          3.34880       10.88530       -1.11720
H          4.17830        9.07570       -3.44120
H          5.04290       10.51940       -2.90150
H          3.42710       10.66650       -3.60010
H          1.20890        5.87190        0.21840
H          1.12590        1.29610        1.37390
H          2.67660       -4.88430        1.25810
H          2.35150       -4.65020        2.98630
H          4.37370       -6.02220        2.67750
H          5.12640       -4.74310        1.71640
H          4.79280       -4.47880        3.43120
H          4.47440        8.56140        5.94660
H          6.09710        8.99960        5.37750
H          5.17440        9.46270        3.10960
H          3.56020        9.00990        3.66600
H          4.35530       10.44250        4.33010
H          6.88400        3.06790        5.26440
H          7.70420        0.60210        5.49370
