
  xtb     03012221453D
 energy: -394.789872252783 gnorm: 0.000318080051 xtb: 6.4.1 (unknown)
196221  0     0  0            999 V2000
   12.6371   -2.0430   14.2609 C   0  0  0  0  0  0  0  0  0  0  0  0
   13.6361   -2.5686   15.5609 S   0  0  0  0  0  0  0  0  0  0  0  0
   12.7632   -4.0443   15.7357 C   0  0  0  0  0  0  0  0  0  0  0  0
   11.7572   -4.1099   14.8289 C   0  0  0  0  0  0  0  0  0  0  0  0
   11.6735   -2.9605   13.9714 C   0  0  0  0  0  0  0  0  0  0  0  0
   10.5938   -3.0911   13.0397 C   0  0  0  0  0  0  0  0  0  0  0  0
    9.9235   -4.2925   13.2206 C   0  0  0  0  0  0  0  0  0  0  0  0
   10.5309   -5.3193   14.4896 S   0  0  0  0  0  0  0  0  0  0  0  0
    8.6155   -4.5077   12.1294 S   0  0  0  0  0  0  0  0  0  0  0  0
    8.9697   -2.9471   11.4015 C   0  0  0  0  0  0  0  0  0  0  0  0
   10.0391   -2.3288   11.9971 C   0  0  0  0  0  0  0  0  0  0  0  0
    8.1729   -2.4749   10.3198 C   0  0  0  0  0  0  0  0  0  0  0  0
    7.1331   -3.1106    9.7080 C   0  0  0  0  0  0  0  0  0  0  0  0
    6.5476   -2.3604    8.6600 C   0  0  0  0  0  0  0  0  0  0  0  0
    5.4494   -2.7053    7.8540 C   0  0  0  0  0  0  0  0  0  0  0  0
    4.6819   -3.9157    8.0912 C   0  0  0  0  0  0  0  0  0  0  0  0
    4.3108   -5.0259    6.8055 S   0  0  0  0  0  0  0  0  0  0  0  0
    3.4085   -6.0633    7.8553 C   0  0  0  0  0  0  0  0  0  0  0  0
    2.7104   -7.2701    7.3334 C   0  0  0  0  0  0  0  0  0  0  0  0
    1.3155   -6.9063    6.8184 C   0  0  0  0  0  0  0  0  0  0  0  0
    3.3956   -5.5608    9.1222 C   0  0  0  0  0  0  0  0  0  0  0  0
    2.5880   -6.3078   10.4392 Cl  0  0  0  0  0  0  0  0  0  0  0  0
    4.1192   -4.3463    9.2616 C   0  0  0  0  0  0  0  0  0  0  0  0
    4.1837   -3.4806   10.7423 Cl  0  0  0  0  0  0  0  0  0  0  0  0
    5.1106   -1.8190    6.8399 C   0  0  0  0  0  0  0  0  0  0  0  0
    5.7784   -0.5884    6.6335 C   0  0  0  0  0  0  0  0  0  0  0  0
    6.8602   -0.2299    7.4580 C   0  0  0  0  0  0  0  0  0  0  0  0
    7.5661    1.0259    7.2601 C   0  0  0  0  0  0  0  0  0  0  0  0
    6.7149    2.5422    7.2376 S   0  0  0  0  0  0  0  0  0  0  0  0
    8.1658    3.4446    6.9574 C   0  0  0  0  0  0  0  0  0  0  0  0
    8.1235    4.9202    6.7658 C   0  0  0  0  0  0  0  0  0  0  0  0
    7.4820    5.2779    5.4234 C   0  0  0  0  0  0  0  0  0  0  0  0
    9.2364    2.6053    6.8863 C   0  0  0  0  0  0  0  0  0  0  0  0
    8.9023    1.2346    7.0621 C   0  0  0  0  0  0  0  0  0  0  0  0
   10.0677   -0.0150    6.9361 Cl  0  0  0  0  0  0  0  0  0  0  0  0
   10.8484    3.1250    6.6087 Cl  0  0  0  0  0  0  0  0  0  0  0  0
    7.2193   -1.1289    8.4522 C   0  0  0  0  0  0  0  0  0  0  0  0
    8.4973   -0.9051    9.6120 S   0  0  0  0  0  0  0  0  0  0  0  0
    5.2354    0.1301    5.5400 C   0  0  0  0  0  0  0  0  0  0  0  0
    4.1968   -0.5093    4.9328 C   0  0  0  0  0  0  0  0  0  0  0  0
    3.8217   -2.0429    5.6925 S   0  0  0  0  0  0  0  0  0  0  0  0
    3.4591   -0.0906    3.7876 C   0  0  0  0  0  0  0  0  0  0  0  0
    2.5842   -0.8364    3.0569 C   0  0  0  0  0  0  0  0  0  0  0  0
    2.0552   -0.1527    1.9355 C   0  0  0  0  0  0  0  0  0  0  0  0
    1.1385   -0.6348    0.9845 C   0  0  0  0  0  0  0  0  0  0  0  0
    0.5996   -1.9818    1.0782 C   0  0  0  0  0  0  0  0  0  0  0  0
    1.6423   -3.3693    1.1939 S   0  0  0  0  0  0  0  0  0  0  0  0
    0.3060   -4.4650    1.2900 C   0  0  0  0  0  0  0  0  0  0  0  0
    0.5264   -5.9251    1.4771 C   0  0  0  0  0  0  0  0  0  0  0  0
    0.8657   -6.2411    2.9358 C   0  0  0  0  0  0  0  0  0  0  0  0
   -0.8711   -3.7811    1.2409 C   0  0  0  0  0  0  0  0  0  0  0  0
   -2.4143   -4.5239    1.3193 Cl  0  0  0  0  0  0  0  0  0  0  0  0
   -0.7096   -2.3744    1.1098 C   0  0  0  0  0  0  0  0  0  0  0  0
   -2.0415   -1.2982    1.0732 Cl  0  0  0  0  0  0  0  0  0  0  0  0
    0.7761    0.2357   -0.0347 C   0  0  0  0  0  0  0  0  0  0  0  0
    1.2467    1.5705   -0.1051 C   0  0  0  0  0  0  0  0  0  0  0  0
    2.1161    2.0717    0.8799 C   0  0  0  0  0  0  0  0  0  0  0  0
    2.5333    3.4624    0.8636 C   0  0  0  0  0  0  0  0  0  0  0  0
    4.2047    3.9126    1.0273 S   0  0  0  0  0  0  0  0  0  0  0  0
    3.8471    5.6013    0.8924 C   0  0  0  0  0  0  0  0  0  0  0  0
    4.9238    6.6236    0.9991 C   0  0  0  0  0  0  0  0  0  0  0  0
    5.4101    6.7580    2.4436 C   0  0  0  0  0  0  0  0  0  0  0  0
    2.5060    5.7886    0.7414 C   0  0  0  0  0  0  0  0  0  0  0  0
    1.7571    4.5816    0.7248 C   0  0  0  0  0  0  0  0  0  0  0  0
    0.0410    4.5797    0.6354 Cl  0  0  0  0  0  0  0  0  0  0  0  0
    1.7625    7.3259    0.5730 Cl  0  0  0  0  0  0  0  0  0  0  0  0
    2.5359    1.1777    1.8557 C   0  0  0  0  0  0  0  0  0  0  0  0
    3.6499    1.5291    3.1473 S   0  0  0  0  0  0  0  0  0  0  0  0
    0.7634    2.2382   -1.2547 C   0  0  0  0  0  0  0  0  0  0  0  0
   -0.0542    1.4675   -2.0255 C   0  0  0  0  0  0  0  0  0  0  0  0
   -0.2416   -0.1487   -1.3922 S   0  0  0  0  0  0  0  0  0  0  0  0
   -0.7777    1.9204   -3.1731 C   0  0  0  0  0  0  0  0  0  0  0  0
   -1.2202    3.1948   -3.3612 C   0  0  0  0  0  0  0  0  0  0  0  0
   -1.9736    3.3589   -4.5479 C   0  0  0  0  0  0  0  0  0  0  0  0
   -2.6977    4.4979   -4.9401 C   0  0  0  0  0  0  0  0  0  0  0  0
   -2.5999    5.7237   -4.1637 C   0  0  0  0  0  0  0  0  0  0  0  0
   -1.0446    6.4373   -3.8406 S   0  0  0  0  0  0  0  0  0  0  0  0
   -1.7325    7.7061   -2.8864 C   0  0  0  0  0  0  0  0  0  0  0  0
   -0.8791    8.7649   -2.2812 C   0  0  0  0  0  0  0  0  0  0  0  0
   -0.5429    9.8535   -3.3026 C   0  0  0  0  0  0  0  0  0  0  0  0
   -3.0883    7.5788   -2.8424 C   0  0  0  0  0  0  0  0  0  0  0  0
   -4.1229    8.6509   -1.9910 Cl  0  0  0  0  0  0  0  0  0  0  0  0
   -3.5836    6.4538   -3.5573 C   0  0  0  0  0  0  0  0  0  0  0  0
   -5.2432    6.0278   -3.5489 Cl  0  0  0  0  0  0  0  0  0  0  0  0
   -3.5267    4.3541   -6.0436 C   0  0  0  0  0  0  0  0  0  0  0  0
   -3.5817    3.1628   -6.8133 C   0  0  0  0  0  0  0  0  0  0  0  0
   -2.7768    2.0565   -6.4814 C   0  0  0  0  0  0  0  0  0  0  0  0
   -2.7141    0.8572   -7.2974 C   0  0  0  0  0  0  0  0  0  0  0  0
   -4.1285    0.0925   -7.9607 S   0  0  0  0  0  0  0  0  0  0  0  0
   -3.2232   -1.2011   -8.6580 C   0  0  0  0  0  0  0  0  0  0  0  0
   -3.8908   -2.2916   -9.4212 C   0  0  0  0  0  0  0  0  0  0  0  0
   -5.1800   -2.7591   -8.7526 C   0  0  0  0  0  0  0  0  0  0  0  0
   -1.8947   -1.0238   -8.4113 C   0  0  0  0  0  0  0  0  0  0  0  0
   -1.6008    0.1398   -7.6525 C   0  0  0  0  0  0  0  0  0  0  0  0
    0.0164    0.6237   -7.3431 Cl  0  0  0  0  0  0  0  0  0  0  0  0
   -0.6695   -2.0983   -8.9482 Cl  0  0  0  0  0  0  0  0  0  0  0  0
   -2.0471    2.1620   -5.2992 C   0  0  0  0  0  0  0  0  0  0  0  0
   -1.2350    0.8588   -4.4802 S   0  0  0  0  0  0  0  0  0  0  0  0
   -4.5567    3.2550   -7.8366 C   0  0  0  0  0  0  0  0  0  0  0  0
   -5.2447    4.4297   -7.8335 C   0  0  0  0  0  0  0  0  0  0  0  0
   -4.6349    5.5556   -6.6424 S   0  0  0  0  0  0  0  0  0  0  0  0
   -6.4439    4.6741   -8.5791 C   0  0  0  0  0  0  0  0  0  0  0  0
   -6.8030    6.1559   -9.4178 S   0  0  0  0  0  0  0  0  0  0  0  0
   -8.3161    5.5564   -9.9828 C   0  0  0  0  0  0  0  0  0  0  0  0
   -8.5338    4.2931   -9.5346 C   0  0  0  0  0  0  0  0  0  0  0  0
   -7.4764    3.7746   -8.7213 C   0  0  0  0  0  0  0  0  0  0  0  0
   -7.7965    2.4747   -8.2136 C   0  0  0  0  0  0  0  0  0  0  0  0
   -9.0289    2.0504   -8.6927 C   0  0  0  0  0  0  0  0  0  0  0  0
   -9.8690    3.1706   -9.7292 S   0  0  0  0  0  0  0  0  0  0  0  0
   -9.4777    0.4932   -8.1250 S   0  0  0  0  0  0  0  0  0  0  0  0
   -7.9829    0.3999   -7.2016 C   0  0  0  0  0  0  0  0  0  0  0  0
   -7.2158    1.5247   -7.3500 C   0  0  0  0  0  0  0  0  0  0  0  0
   -7.6722   -0.7948   -6.4865 C   0  0  0  0  0  0  0  0  0  0  0  0
   -8.4262   -1.9274   -6.4138 C   0  0  0  0  0  0  0  0  0  0  0  0
   -7.7847   -2.9957   -5.7398 C   0  0  0  0  0  0  0  0  0  0  0  0
   -8.2686   -4.2950   -5.5254 C   0  0  0  0  0  0  0  0  0  0  0  0
   -9.5404   -4.7217   -6.0850 C   0  0  0  0  0  0  0  0  0  0  0  0
  -10.7915   -5.4288   -5.1099 S   0  0  0  0  0  0  0  0  0  0  0  0
  -11.8435   -5.6296   -6.4693 C   0  0  0  0  0  0  0  0  0  0  0  0
  -13.1784   -6.2727   -6.3248 C   0  0  0  0  0  0  0  0  0  0  0  0
  -13.0615   -7.7969   -6.4020 C   0  0  0  0  0  0  0  0  0  0  0  0
  -11.2399   -5.1838   -7.6074 C   0  0  0  0  0  0  0  0  0  0  0  0
  -11.9684   -5.2319   -9.1608 Cl  0  0  0  0  0  0  0  0  0  0  0  0
   -9.9365   -4.6633   -7.3926 C   0  0  0  0  0  0  0  0  0  0  0  0
   -8.9436   -4.0958   -8.6721 Cl  0  0  0  0  0  0  0  0  0  0  0  0
   -7.4505   -5.1625   -4.8132 C   0  0  0  0  0  0  0  0  0  0  0  0
   -6.1487   -4.8141   -4.3823 C   0  0  0  0  0  0  0  0  0  0  0  0
   -5.6529   -3.5190   -4.6176 C   0  0  0  0  0  0  0  0  0  0  0  0
   -4.2770   -3.1857   -4.2790 C   0  0  0  0  0  0  0  0  0  0  0  0
   -3.1793   -2.6270   -5.5134 S   0  0  0  0  0  0  0  0  0  0  0  0
   -1.8200   -2.6806   -4.4477 C   0  0  0  0  0  0  0  0  0  0  0  0
   -0.4408   -2.4044   -4.9309 C   0  0  0  0  0  0  0  0  0  0  0  0
    0.2052   -3.6758   -5.4860 C   0  0  0  0  0  0  0  0  0  0  0  0
   -2.2108   -3.0908   -3.2090 C   0  0  0  0  0  0  0  0  0  0  0  0
   -3.6013   -3.3660   -3.1045 C   0  0  0  0  0  0  0  0  0  0  0  0
   -4.3380   -3.8159   -1.6211 Cl  0  0  0  0  0  0  0  0  0  0  0  0
   -1.1301   -3.3089   -1.8967 Cl  0  0  0  0  0  0  0  0  0  0  0  0
   -6.4981   -2.6328   -5.2732 C   0  0  0  0  0  0  0  0  0  0  0  0
   -6.1391   -0.9700   -5.6495 S   0  0  0  0  0  0  0  0  0  0  0  0
   -5.4802   -5.9297   -3.7966 C   0  0  0  0  0  0  0  0  0  0  0  0
   -6.2439   -7.0399   -3.7599 C   0  0  0  0  0  0  0  0  0  0  0  0
   -7.8161   -6.8249   -4.4482 S   0  0  0  0  0  0  0  0  0  0  0  0
   12.8237   -1.0968   13.7957 H   0  0  0  0  0  0  0  0  0  0  0  0
   13.0480   -4.7532   16.4853 H   0  0  0  0  0  0  0  0  0  0  0  0
   10.4047   -1.3662   11.6880 H   0  0  0  0  0  0  0  0  0  0  0  0
    6.8096   -4.0956    9.9917 H   0  0  0  0  0  0  0  0  0  0  0  0
    2.6241   -8.0030    8.1376 H   0  0  0  0  0  0  0  0  0  0  0  0
    3.2958   -7.7052    6.5219 H   0  0  0  0  0  0  0  0  0  0  0  0
    0.8161   -7.7914    6.4341 H   0  0  0  0  0  0  0  0  0  0  0  0
    0.7151   -6.4886    7.6223 H   0  0  0  0  0  0  0  0  0  0  0  0
    1.3892   -6.1715    6.0206 H   0  0  0  0  0  0  0  0  0  0  0  0
    7.5478    5.3775    7.5732 H   0  0  0  0  0  0  0  0  0  0  0  0
    9.1438    5.3047    6.8046 H   0  0  0  0  0  0  0  0  0  0  0  0
    7.4589    6.3566    5.2950 H   0  0  0  0  0  0  0  0  0  0  0  0
    6.4635    4.8987    5.3813 H   0  0  0  0  0  0  0  0  0  0  0  0
    8.0506    4.8413    4.6060 H   0  0  0  0  0  0  0  0  0  0  0  0
    5.6073    1.0788    5.1979 H   0  0  0  0  0  0  0  0  0  0  0  0
    2.3402   -1.8511    3.3132 H   0  0  0  0  0  0  0  0  0  0  0  0
   -0.3819   -6.4551    1.1857 H   0  0  0  0  0  0  0  0  0  0  0  0
    1.3457   -6.2546    0.8352 H   0  0  0  0  0  0  0  0  0  0  0  0
    1.7718   -5.7177    3.2333 H   0  0  0  0  0  0  0  0  0  0  0  0
    0.0519   -5.9301    3.5864 H   0  0  0  0  0  0  0  0  0  0  0  0
    1.0224   -7.3092    3.0601 H   0  0  0  0  0  0  0  0  0  0  0  0
    5.7628    6.3355    0.3625 H   0  0  0  0  0  0  0  0  0  0  0  0
    4.5327    7.5799    0.6482 H   0  0  0  0  0  0  0  0  0  0  0  0
    6.1941    7.5077    2.5050 H   0  0  0  0  0  0  0  0  0  0  0  0
    5.8047    5.8086    2.7969 H   0  0  0  0  0  0  0  0  0  0  0  0
    4.5904    7.0567    3.0922 H   0  0  0  0  0  0  0  0  0  0  0  0
    1.0387    3.2398   -1.5255 H   0  0  0  0  0  0  0  0  0  0  0  0
   -1.0638    3.9755   -2.6408 H   0  0  0  0  0  0  0  0  0  0  0  0
    0.0448    8.3173   -1.9103 H   0  0  0  0  0  0  0  0  0  0  0  0
   -1.4160    9.2051   -1.4390 H   0  0  0  0  0  0  0  0  0  0  0  0
   -1.4537   10.3194   -3.6705 H   0  0  0  0  0  0  0  0  0  0  0  0
   -0.0051    9.4265   -4.1459 H   0  0  0  0  0  0  0  0  0  0  0  0
    0.0781   10.6172   -2.8423 H   0  0  0  0  0  0  0  0  0  0  0  0
   -3.1895   -3.1234   -9.5094 H   0  0  0  0  0  0  0  0  0  0  0  0
   -4.1180   -1.9367  -10.4317 H   0  0  0  0  0  0  0  0  0  0  0  0
   -4.9753   -3.1192   -7.7472 H   0  0  0  0  0  0  0  0  0  0  0  0
   -5.8940   -1.9405   -8.6894 H   0  0  0  0  0  0  0  0  0  0  0  0
   -5.6298   -3.5650   -9.3261 H   0  0  0  0  0  0  0  0  0  0  0  0
   -4.7626    2.4746   -8.5443 H   0  0  0  0  0  0  0  0  0  0  0  0
   -8.9382    6.1714  -10.5997 H   0  0  0  0  0  0  0  0  0  0  0  0
   -6.2760    1.6534   -6.8466 H   0  0  0  0  0  0  0  0  0  0  0  0
   -9.4113   -1.9961   -6.8384 H   0  0  0  0  0  0  0  0  0  0  0  0
  -13.6150   -5.9900   -5.3655 H   0  0  0  0  0  0  0  0  0  0  0  0
  -13.8284   -5.9147   -7.1255 H   0  0  0  0  0  0  0  0  0  0  0  0
  -12.6436   -8.0946   -7.3603 H   0  0  0  0  0  0  0  0  0  0  0  0
  -12.4136   -8.1657   -5.6104 H   0  0  0  0  0  0  0  0  0  0  0  0
  -14.0422   -8.2520   -6.2927 H   0  0  0  0  0  0  0  0  0  0  0  0
   -0.4732   -1.6470   -5.7130 H   0  0  0  0  0  0  0  0  0  0  0  0
    0.1524   -2.0211   -4.0986 H   0  0  0  0  0  0  0  0  0  0  0  0
   -0.3744   -4.0568   -6.3237 H   0  0  0  0  0  0  0  0  0  0  0  0
    0.2556   -4.4431   -4.7175 H   0  0  0  0  0  0  0  0  0  0  0  0
    1.2125   -3.4588   -5.8304 H   0  0  0  0  0  0  0  0  0  0  0  0
   -4.4714   -5.8943   -3.4309 H   0  0  0  0  0  0  0  0  0  0  0  0
   -5.9849   -8.0039   -3.3676 H   0  0  0  0  0  0  0  0  0  0  0  0
  1  2  1  0  0  0  0
  2  3  1  0  0  0  0
  3  4  2  0  0  0  0
  4  5  1  0  0  0  0
  5  6  1  0  0  0  0
  6  7  2  0  0  0  0
  7  8  1  0  0  0  0
  7  9  1  0  0  0  0
  9 10  1  0  0  0  0
 10 11  2  0  0  0  0
 10 12  1  0  0  0  0
 12 13  2  0  0  0  0
 13 14  1  0  0  0  0
 14 15  2  0  0  0  0
 15 16  1  0  0  0  0
 16 17  1  0  0  0  0
 17 18  1  0  0  0  0
 18 19  1  0  0  0  0
 19 20  1  0  0  0  0
 18 21  2  0  0  0  0
 21 22  1  0  0  0  0
 21 23  1  0  0  0  0
 23 24  1  0  0  0  0
 15 25  1  0  0  0  0
 25 26  2  0  0  0  0
 26 27  1  0  0  0  0
 27 28  1  0  0  0  0
 28 29  1  0  0  0  0
 29 30  1  0  0  0  0
 30 31  1  0  0  0  0
 31 32  1  0  0  0  0
 30 33  2  0  0  0  0
 33 34  1  0  0  0  0
 34 35  1  0  0  0  0
 33 36  1  0  0  0  0
 27 37  2  0  0  0  0
 37 38  1  0  0  0  0
 26 39  1  0  0  0  0
 39 40  2  0  0  0  0
 40 41  1  0  0  0  0
 40 42  1  0  0  0  0
 42 43  2  0  0  0  0
 43 44  1  0  0  0  0
 44 45  2  0  0  0  0
 45 46  1  0  0  0  0
 46 47  1  0  0  0  0
 47 48  1  0  0  0  0
 48 49  1  0  0  0  0
 49 50  1  0  0  0  0
 48 51  2  0  0  0  0
 51 52  1  0  0  0  0
 51 53  1  0  0  0  0
 53 54  1  0  0  0  0
 45 55  1  0  0  0  0
 55 56  2  0  0  0  0
 56 57  1  0  0  0  0
 57 58  1  0  0  0  0
 58 59  1  0  0  0  0
 59 60  1  0  0  0  0
 60 61  1  0  0  0  0
 61 62  1  0  0  0  0
 60 63  2  0  0  0  0
 63 64  1  0  0  0  0
 64 65  1  0  0  0  0
 63 66  1  0  0  0  0
 57 67  2  0  0  0  0
 67 68  1  0  0  0  0
 56 69  1  0  0  0  0
 69 70  2  0  0  0  0
 70 71  1  0  0  0  0
 70 72  1  0  0  0  0
 72 73  2  0  0  0  0
 73 74  1  0  0  0  0
 74 75  2  0  0  0  0
 75 76  1  0  0  0  0
 76 77  1  0  0  0  0
 77 78  1  0  0  0  0
 78 79  1  0  0  0  0
 79 80  1  0  0  0  0
 78 81  2  0  0  0  0
 81 82  1  0  0  0  0
 81 83  1  0  0  0  0
 83 84  1  0  0  0  0
 75 85  1  0  0  0  0
 85 86  2  0  0  0  0
 86 87  1  0  0  0  0
 87 88  1  0  0  0  0
 88 89  1  0  0  0  0
 89 90  1  0  0  0  0
 90 91  1  0  0  0  0
 91 92  1  0  0  0  0
 90 93  2  0  0  0  0
 93 94  1  0  0  0  0
 94 95  1  0  0  0  0
 93 96  1  0  0  0  0
 87 97  2  0  0  0  0
 97 98  1  0  0  0  0
 86 99  1  0  0  0  0
 99100  2  0  0  0  0
100101  1  0  0  0  0
100102  1  0  0  0  0
102103  1  0  0  0  0
103104  1  0  0  0  0
104105  2  0  0  0  0
105106  1  0  0  0  0
106107  1  0  0  0  0
107108  2  0  0  0  0
108109  1  0  0  0  0
108110  1  0  0  0  0
110111  1  0  0  0  0
111112  2  0  0  0  0
111113  1  0  0  0  0
113114  2  0  0  0  0
114115  1  0  0  0  0
115116  2  0  0  0  0
116117  1  0  0  0  0
117118  1  0  0  0  0
118119  1  0  0  0  0
119120  1  0  0  0  0
120121  1  0  0  0  0
119122  2  0  0  0  0
122123  1  0  0  0  0
122124  1  0  0  0  0
124125  1  0  0  0  0
116126  1  0  0  0  0
126127  2  0  0  0  0
127128  1  0  0  0  0
128129  1  0  0  0  0
129130  1  0  0  0  0
130131  1  0  0  0  0
131132  1  0  0  0  0
132133  1  0  0  0  0
131134  2  0  0  0  0
134135  1  0  0  0  0
135136  1  0  0  0  0
134137  1  0  0  0  0
128138  2  0  0  0  0
138139  1  0  0  0  0
127140  1  0  0  0  0
140141  2  0  0  0  0
141142  1  0  0  0  0
  5  1  2  0  0  0  0
 11  6  1  0  0  0  0
 38 12  1  0  0  0  0
 68 42  1  0  0  0  0
 98 72  1  0  0  0  0
106102  2  0  0  0  0
112107  1  0  0  0  0
139113  1  0  0  0  0
  8  4  1  0  0  0  0
 37 14  1  0  0  0  0
 67 44  1  0  0  0  0
 97 74  1  0  0  0  0
109105  1  0  0  0  0
138115  1  0  0  0  0
 23 16  2  0  0  0  0
 41 25  1  0  0  0  0
 53 46  2  0  0  0  0
 71 55  1  0  0  0  0
 83 76  2  0  0  0  0
101 85  1  0  0  0  0
124117  2  0  0  0  0
142126  1  0  0  0  0
 34 28  2  0  0  0  0
 64 58  2  0  0  0  0
 94 88  2  0  0  0  0
135129  2  0  0  0  0
  1143  1  0  0  0  0
  3144  1  0  0  0  0
 11145  1  0  0  0  0
 13146  1  0  0  0  0
 19147  1  0  0  0  0
 19148  1  0  0  0  0
 20149  1  0  0  0  0
 20150  1  0  0  0  0
 20151  1  0  0  0  0
 31152  1  0  0  0  0
 31153  1  0  0  0  0
 32154  1  0  0  0  0
 32155  1  0  0  0  0
 32156  1  0  0  0  0
 39157  1  0  0  0  0
 43158  1  0  0  0  0
 49159  1  0  0  0  0
 49160  1  0  0  0  0
 50161  1  0  0  0  0
 50162  1  0  0  0  0
 50163  1  0  0  0  0
 61164  1  0  0  0  0
 61165  1  0  0  0  0
 62166  1  0  0  0  0
 62167  1  0  0  0  0
 62168  1  0  0  0  0
 69169  1  0  0  0  0
 73170  1  0  0  0  0
 79171  1  0  0  0  0
 79172  1  0  0  0  0
 80173  1  0  0  0  0
 80174  1  0  0  0  0
 80175  1  0  0  0  0
 91176  1  0  0  0  0
 91177  1  0  0  0  0
 92178  1  0  0  0  0
 92179  1  0  0  0  0
 92180  1  0  0  0  0
 99181  1  0  0  0  0
104182  1  0  0  0  0
112183  1  0  0  0  0
114184  1  0  0  0  0
120185  1  0  0  0  0
120186  1  0  0  0  0
121187  1  0  0  0  0
121188  1  0  0  0  0
121189  1  0  0  0  0
132190  1  0  0  0  0
132191  1  0  0  0  0
133192  1  0  0  0  0
133193  1  0  0  0  0
133194  1  0  0  0  0
140195  1  0  0  0  0
141196  1  0  0  0  0
M  END
