90

C          2.01000        1.39360        0.03630
O          1.39130        2.41730        0.60310
C          0.07280        2.16650        0.63800
C         -0.17470        0.93670        0.02740
C          1.11180        0.42840       -0.34180
N          1.55200       -0.81460       -0.91110
O          2.64610       -1.17020       -0.54200
O          0.84820       -1.39210       -1.70030
N         -1.45230        0.34670       -0.13360
O         -1.54390       -0.63840       -0.83340
O         -2.37990        0.85090        0.46410
C         -0.85280        3.10020        1.20660
C         -0.60280        3.97230        2.20590
C          0.56830        4.05300        3.02230
O          1.53170        3.11210        3.02110
C          2.50940        3.45840        3.87740
C          2.17150        4.67850        4.47090
C          0.91560        5.04840        3.93340
N          0.20720        6.27820        4.15880
O         -0.99990        6.22700        4.10370
O          0.87640        7.26200        4.33950
N          2.87480        5.34460        5.52740
O          2.20110        5.93660        6.33320
O          4.07840        5.22510        5.54690
C          3.70280        2.70010        4.05500
C          3.98640        1.42990        3.67290
C          3.11450        0.42670        3.16610
O          1.77190        0.56560        3.16030
C          1.19460       -0.55530        2.66730
C          2.20520       -1.46440        2.33220
C          3.43090       -0.83910        2.66960
N          4.74310       -1.37210        2.43960
O          4.84990       -2.23430        1.60820
O          5.64550       -0.89090        3.09070
N          2.04080       -2.81020        1.87760
O          2.71180       -3.65650        2.40780
O          1.19540       -2.99790        1.02540
C         -0.22150       -0.59200        2.69150
C         -1.03180       -1.48610        2.06200
C         -2.43270       -1.50200        2.19180
S         -3.27530       -0.60200        3.43860
C         -4.79190       -1.25260        2.98990
C         -4.67440       -2.09480        1.92500
C         -3.34090       -2.23730        1.43940
C         -3.29720       -3.06830        0.28340
C         -4.57250       -3.57170       -0.01480
S         -5.84560       -3.04590        1.03340
S         -4.61510       -4.59390       -1.38360
C         -2.90590       -4.27240       -1.64380
C         -2.35410       -3.45920       -0.67640
C         -2.22980       -4.71560       -2.81530
O         -1.14220       -4.03320       -3.20970
C         -0.64030       -4.58570       -4.33010
C         -1.40360       -5.69210       -4.66890
C         -2.45010       -5.76820       -3.70470
N         -3.42410       -6.78860       -3.58380
O         -4.46680       -6.48250       -3.02870
O         -3.14760       -7.88620       -4.00030
N         -1.27280       -6.47090       -5.86440
O         -2.29320       -6.86670       -6.37020
O         -0.15240       -6.62240       -6.29470
C          0.49330       -4.01650       -5.00230
C          0.85790       -2.71750       -4.98960
C          0.10970       -1.62120       -4.45210
O         -1.20720       -1.70020       -4.19100
C         -1.63940       -0.54740       -3.66730
C         -0.57560        0.34460       -3.60240
C          0.55450       -0.34570       -4.12450
N          1.91000        0.08520       -4.04540
O          2.67560       -0.28120       -4.90040
O          2.19190        0.75340       -3.06970
N         -0.59280        1.68780       -3.15260
O          0.16170        2.46940       -3.67930
O         -1.36590        1.96110       -2.24970
C         -3.01820       -0.36200       -3.30730
C         -3.94160       -1.31320       -3.43470
H          3.07330        1.43430       -0.10420
H         -1.84360        3.06550        0.77520
H         -1.37650        4.67500        2.48390
H          4.49040        3.25870        4.54330
H          5.00260        1.08380        3.80670
H         -0.67020        0.20930        3.26530
H         -0.61660       -2.23520        1.40120
H         -5.67660       -0.97840        3.52870
H         -1.32350       -3.15690       -0.69510
H          1.08910       -4.72570       -5.56000
H          1.79470       -2.43440       -5.44900
H         -3.25900        0.60660       -2.89400
H         -3.70130       -2.28270       -3.83620
H         -4.96140       -1.14380       -3.13970
