140

C          0.99650        6.39440       -1.54590
S          0.88830        5.91830        0.08910
C         -0.79570        5.50930       -0.05830
C         -1.25140        5.79370       -1.34500
C         -0.20910        6.27780       -2.20250
C         -0.48460        6.57500       -3.55960
C         -1.75050        6.44780       -4.05310
C         -2.10930        6.73280       -5.50180
C         -3.12050        7.88680       -5.55200
C         -2.72420        5.46930       -6.12060
C         -0.89150        7.12940       -6.34080
C         -2.79060        6.05160       -3.16480
C         -2.56560        5.73900       -1.85970
C         -1.46310        4.88400        1.03400
S         -1.08940        5.35790        2.66090
C         -2.06850        4.10620        3.34140
C         -2.68590        3.36110        2.33940
C         -2.33970        3.79470        1.02330
C         -2.82840        3.07890       -0.09190
C         -3.66340        2.00830        0.07060
C         -4.18460        1.19170       -1.10030
C         -3.59650       -0.22340       -1.00090
C         -5.71770        1.12580       -1.04340
C         -3.79260        1.78870       -2.45500
C         -4.05010        1.63620        1.38600
C         -3.58810        2.28490        2.48850
C         -2.16340        3.87840        4.74710
S         -2.48140        5.15770        5.89790
C         -2.55890        4.05400        7.22150
C         -2.34070        2.78280        6.80050
C         -2.09540        2.66660        5.39540
C         -1.75430        1.32510        5.03450
C         -1.82330        0.48620        6.13650
S         -2.26230        1.24450        7.64460
S         -1.39170       -1.13710        5.77080
C         -1.05960       -0.68500        4.09720
C         -1.31000        0.65300        3.88370
C         -0.52390       -1.59300        3.15260
S          0.10810       -0.95380        1.66570
C          0.69530       -2.50020        1.11270
C          0.33290       -3.49640        2.04750
C         -0.33900       -2.98090        3.19810
C         -0.75100       -3.85540        4.21840
C         -0.52170       -5.20650        4.14150
C         -0.97420       -6.10560        5.28120
C         -0.29700       -5.64280        6.57900
C         -2.49890       -5.99960        5.42560
C         -0.61470       -7.57640        5.05420
C          0.11040       -5.70680        2.98440
C          0.51750       -4.88680        1.96840
C          1.48300       -2.61870       -0.04700
S          2.39240       -4.07440       -0.33240
C          3.15450       -3.48770       -1.77980
C          2.68110       -2.18760       -2.05280
C          1.76470       -1.69300       -1.07540
C          1.24260       -0.39490       -1.20850
C          1.59870        0.41710       -2.25540
C          1.08350        1.83790       -2.40090
C          2.26940        2.80470       -2.52470
C          0.21130        1.92930       -3.66120
C          0.24920        2.27810       -1.19750
C          2.46500       -0.10570       -3.23950
C          2.98750       -1.36350       -3.15100
C          4.12470       -4.26800       -2.44300
S          5.09870       -3.59450       -3.72520
C          6.01710       -5.01770       -3.91270
C          5.61900       -6.00460       -3.03860
C          4.53520       -5.59520       -2.19490
C          4.02740       -6.52170       -1.26970
C          4.56420       -7.77880       -1.13270
C          3.97420       -8.71720       -0.08990
C          2.49640       -8.97090       -0.42110
C          4.68980      -10.06970       -0.03470
C          4.08750       -8.06150        1.29460
C          5.64530       -8.15390       -1.96550
C          6.15590       -7.30330       -2.89910
H          1.93160        6.74010       -1.93930
H          0.33960        6.90700       -4.16920
H         -3.36770        8.12170       -6.58510
H         -4.04070        7.63500       -5.03220
H         -2.69890        8.77570       -5.08720
H         -2.97510        5.64870       -7.16380
H         -2.01610        4.64430       -6.07320
H         -3.63010        5.16980       -5.60090
H         -0.14480        6.33860       -6.34440
H         -1.20130        7.30430       -7.36900
H         -0.43960        8.04510       -5.96670
H         -3.80290        6.00660       -3.53620
H         -3.38250        5.47420       -1.20570
H         -2.51600        3.39630       -1.06990
H         -2.51000       -0.18770       -1.05780
H         -3.96300       -0.84150       -1.81780
H         -3.86940       -0.69880       -0.06220
H         -6.13710        2.12990       -1.04330
H         -6.06750        0.60920       -0.15440
H         -6.09900        0.59340       -1.91210
H         -2.71370        1.81060       -2.58180
H         -4.21040        1.17910       -3.25380
H         -4.18030        2.79920       -2.56280
H         -4.72780        0.80780        1.52150
H         -3.90060        1.98860        3.47770
H         -2.75340        4.41760        8.20930
H         -1.16320        1.12400        2.92930
H         -1.26870       -3.44100        5.06710
H          0.78510       -5.69340        6.47710
H         -0.56840       -4.62010        6.82540
H         -0.59620       -6.28330        7.40600
H         -2.84550       -6.65240        6.22380
H         -2.98680       -6.29730        4.49950
H         -2.80320       -4.98340        5.66040
H         -1.11010       -7.97080        4.16980
H         -0.94150       -8.16390        5.90980
H          0.46040       -7.70480        4.95000
H          0.27300       -6.76600        2.87550
H          0.96020       -5.32570        1.09010
H          0.54980       -0.04860       -0.46400
H          1.90380        3.82680       -2.60450
H          2.90530        2.73330       -1.64480
H          2.87340        2.59090       -3.40190
H         -0.20640        2.93050       -3.75460
H         -0.60680        1.21360       -3.60710
H          0.78870        1.71460       -4.55660
H         -0.07630        3.30400       -1.34640
H          0.83230        2.23860       -0.28030
H         -0.63680        1.66020       -1.07580
H          2.72120        0.49780       -4.09630
H          3.62750       -1.72510       -3.93780
H          6.79580       -5.05570       -4.64750
H          3.19190       -6.23850       -0.65510
H          1.92230       -8.04870       -0.40190
H          2.40220       -9.41070       -1.41190
H          2.06340       -9.65730        0.30360
H          4.60900      -10.59670       -0.98270
H          4.23070      -10.69010        0.73250
H          5.74040       -9.94730        0.21910
H          5.12950       -7.85190        1.52730
H          3.53480       -7.12720        1.34060
H          3.69200       -8.72920        2.05730
H          6.07770       -9.13620       -1.87300
H          6.97290       -7.60230       -3.53900
