138

C          9.32220       -2.11060        5.20200
S         11.01330       -2.28220        4.92830
C         10.92920       -1.45910        3.41640
C          9.65430       -1.07880        3.15400
C          8.71640       -1.44930        4.17720
C          7.39250       -1.01760        3.84230
C          7.37790       -0.35700        2.62190
S          8.91540       -0.21960        1.81360
S          5.81500        0.19190        2.17350
C          5.15230       -0.47740        3.65550
C          6.11470       -1.08370        4.42410
C          3.75740       -0.35660        3.93230
C          3.05090       -0.95130        4.93780
C          1.67140       -0.63160        4.92670
C          0.67900       -1.05830        5.82760
C          0.97850       -1.97450        6.91530
S          1.75030       -3.50720        6.62690
C          1.69720       -3.94010        8.30160
C          2.19080       -5.26200        8.77640
C          1.08580       -6.31860        8.69470
C          1.10810       -2.94850        9.02720
Cl         0.88010       -3.01460       10.72650
C          0.70220       -1.83260        8.24700
Cl         0.01750       -0.42560        8.94640
C         -0.60600       -0.57110        5.62580
C         -0.92350        0.34210        4.59130
C          0.06100        0.75530        3.67570
C         -0.26920        1.64540        2.57420
S         -1.10900        3.14690        2.84230
C         -1.11870        3.53930        1.15870
C         -1.70400        4.81450        0.66190
C         -0.66990        5.94290        0.69600
C         -0.48930        2.56540        0.44340
C         -0.01550        1.48750        1.23930
Cl         0.69840        0.08890        0.55820
Cl        -0.29090        2.62850       -1.26130
C          1.34070        0.25050        3.86690
S          2.74230        0.64370        2.91680
C         -2.29900        0.66740        4.58400
C         -3.02780       -0.00090        5.52250
S         -2.02740       -1.02980        6.52370
C         -4.43960        0.11850        5.69600
S         -5.21140       -0.04350        7.25020
C         -6.74480        0.42590        6.62410
C         -6.66580        0.67640        5.29130
C         -5.36190        0.48040        4.73540
C         -5.36650        0.69340        3.32040
C         -6.61440        1.12490        2.88870
S         -7.84860        1.21820        4.11330
S         -6.68280        1.43380        1.19910
C         -5.00860        0.92300        1.04350
C         -4.46700        0.55300        2.24460
C         -4.36350        0.91720       -0.22770
C         -4.80380        1.45780       -1.39790
C         -3.90990        1.26750       -2.48030
C         -4.04470        1.74020       -3.79670
C         -5.22060        2.48150       -4.22120
S         -6.82350        1.83820       -4.01600
C         -7.55820        3.21870       -4.75760
C         -9.03820        3.34090       -4.86170
C         -9.63540        3.86380       -3.55280
C         -6.60540        4.12050       -5.12610
Cl        -6.94950        5.62180       -5.88240
C         -5.27950        3.70400       -4.83010
Cl        -3.91500        4.69500       -5.13640
C         -3.00350        1.46570       -4.67270
C         -1.84020        0.75890       -4.28200
C         -1.71810        0.24940       -2.97570
C         -0.57240       -0.55810       -2.58890
S          1.06010       -0.04670       -2.91340
C          1.74280       -1.44520       -2.16790
C          3.21550       -1.65940       -2.11260
C          3.66660       -2.66630       -3.17280
C          0.75350       -2.26420       -1.71250
C         -0.55610       -1.77000       -1.95110
Cl        -1.95070       -2.68350       -1.56020
Cl         1.05260       -3.74450       -0.89740
C         -2.75750        0.53660       -2.09740
S         -2.80760        0.13270       -0.40520
C         -0.94390        0.59540       -5.36360
C         -1.41130        1.08580       -6.54660
S         -2.97340        1.85390       -6.37060
C         -0.73610        0.99070       -7.80070
S         -0.89920        2.19630       -9.04850
C          0.27270        1.42990      -10.05010
C          0.74890        0.30290       -9.46010
C          0.16950        0.02220       -8.18200
C          0.66300       -1.21170       -7.65180
C          1.62550       -1.75990       -8.48720
S          1.94650       -0.87990       -9.95640
S          2.27970       -3.23390       -7.89060
C          1.21930       -3.14720       -6.49320
C          0.42220       -2.03250       -6.53340
C          1.16290       -4.14660       -5.47600
S         -0.28290       -4.17250       -4.48210
C          0.28060       -5.49790       -3.54830
C          1.50760       -5.88980       -3.97170
C          2.03700       -5.13520       -5.07390
C          3.35000       -5.59840       -5.41300
C          3.73080       -6.65240       -4.59550
S          2.57880       -7.14610       -3.38800
S          5.30370       -7.24950       -4.93610
C          5.46650       -6.06820       -6.19350
C          4.37880       -5.27390       -6.33310
H          8.88590       -2.50550        6.09660
H         11.81450       -1.31330        2.83280
H          5.91340       -1.54850        5.37110
H          3.49940       -1.60240        5.66410
H          2.52250       -5.16060        9.81170
H          3.03870       -5.57410        8.16410
H          0.23760       -6.02430        9.30770
H          0.74920       -6.43430        7.66700
H          1.45780       -7.27560        9.05050
H         -2.56040        5.08610        1.28200
H         -2.04750        4.66390       -0.36390
H          0.18450        5.68910        0.07320
H         -0.32280        6.10670        1.71380
H         -1.11100        6.86380        0.32470
H         -2.73280        1.40230        3.93520
H         -7.59320        0.48900        7.27380
H         -3.46700        0.16860        2.32420
H         -5.73600        1.98710       -1.47740
H         -9.46850        2.36480       -5.09240
H         -9.27560        4.02990       -5.67420
H        -10.71480        3.94960       -3.64320
H         -9.40610        3.18420       -2.73530
H         -9.22640        4.84300       -3.31680
H          3.48120       -2.03570       -1.12170
H          3.72210       -0.70600       -2.26860
H          3.19860       -3.63110       -2.99700
H          3.39040       -2.32380       -4.16770
H          4.74520       -2.79230       -3.13490
H          0.03670        0.17390       -5.26650
H          0.53150        1.85790      -10.99660
H         -0.32440       -1.84270       -5.78550
H         -0.31890       -5.89070       -2.75330
H          6.37810       -6.04280       -6.75620
H          4.31620       -4.48840       -7.06090
