225

C          2.43150       -0.22220       14.22820
C          2.44730        1.03970       13.75280
C          2.25590        1.10140       12.34180
C          2.26910        2.23520       11.51410
C          2.58510        3.55360       12.04020
S          1.54510        4.91940       11.77150
C          2.59950        5.98880       12.63040
C          2.24850        7.42060       12.83850
C          1.42770        7.60210       14.11770
C          3.68710        5.31140       13.09550
Cl         4.95650        6.04000       13.99160
C          3.68540        3.93150       12.75890
Cl         4.98460        2.88130       13.15440
C          2.01220        2.03420       10.16440
C          1.78540        0.74970        9.61610
C          1.81820       -0.39390       10.43340
C          1.65260       -1.71600        9.85160
S          2.62050       -2.21140        8.48990
C          1.84390       -3.75280        8.39070
C          2.25030       -4.75410        7.36710
C          3.38630       -5.64050        7.88160
C          0.90600       -3.87070        9.37270
C          0.79180       -2.71980       10.19940
Cl        -0.38690       -2.59660       11.43670
Cl        -0.07400       -5.26200        9.59380
C          2.04730       -0.18640       11.78800
S          2.16760       -1.41930       13.00990
C          1.56530        0.80570        8.22100
C          1.65960        2.06330        7.69960
S          1.99160        3.26330        8.92920
C          1.58950        2.38320        6.31010
C          1.36890        1.48520        5.30580
C          1.51550        2.02890        4.01070
C          1.39800        1.36320        2.77550
C          1.04280       -0.04360        2.70020
S         -0.26060       -0.53510        1.65140
C         -0.17180       -2.17650        2.17330
C         -1.08750       -3.22420        1.64420
C         -2.21150       -2.64110        0.80200
C          0.82030       -2.32550        3.09740
Cl         1.16800       -3.82600        3.85200
C          1.51700       -1.12520        3.39510
Cl         2.87770       -1.10550        4.44770
C          1.53770        2.14530        1.63620
C          1.73230        3.54710        1.68000
C          1.82440        4.21110        2.91550
C          1.89540        5.66100        2.97840
S          3.11240        6.48680        3.90250
C          2.48740        8.04410        3.47970
C          3.15500        9.29320        3.93770
C          4.30370        9.67540        3.00100
C          1.40090        7.91480        2.66660
C          1.05660        6.56620        2.38590
Cl        -0.33240        6.14940        1.46610
Cl         0.50970        9.23970        2.03700
C          1.77440        3.42200        4.05660
S          1.90160        3.99140        5.69760
C          1.76770        4.11730        0.38400
C          1.59150        3.20970       -0.61530
S          1.45680        1.57090       -0.00620
C          1.27950        3.47450       -1.98230
C          1.16840        2.58530       -3.00840
C          0.52190        3.12140       -4.14910
C          0.18590        2.46180       -5.34370
C          0.42730        1.04360       -5.54570
S         -0.07490       -0.11400       -4.34150
C          0.28470       -1.45880       -5.36570
C          0.08360       -2.86030       -4.90490
C          1.40840       -3.52560       -4.52660
C          0.77830       -1.02530       -6.56020
Cl         1.23530       -2.07430       -7.83740
C          0.85390        0.38910       -6.66860
Cl         1.49280        1.17130       -8.05210
C         -0.59770        3.17090       -6.24620
C         -1.12390        4.45890       -5.98200
C         -0.69450        5.15800       -4.84120
C         -1.15680        6.50290       -4.56050
S         -1.71740        6.96280       -2.97910
C         -2.01270        8.59580       -3.47000
C         -2.51090        9.60350       -2.49380
C         -1.58190        9.71450       -1.28490
C         -1.69640        8.75840       -4.78600
C         -1.21900        7.57420       -5.40960
Cl        -0.69720        7.53960       -7.04360
Cl        -1.84440       10.24310       -5.63590
C          0.12360        4.46510       -3.95240
S          0.65250        5.05690       -2.40380
C         -2.25100        4.75030       -6.80870
C         -2.53990        3.76700       -7.69490
S         -1.32840        2.47330       -7.65670
C         -3.78950        3.26820       -8.22900
S         -4.83910        2.71950       -6.93170
C         -5.35220        1.34540       -7.89590
C         -4.95460        1.49740       -9.20890
C         -4.03110        2.56730       -9.38220
C         -3.29910        2.81710      -10.65670
C         -5.29200        0.54750      -10.30510
C         -5.58790        0.14490       -7.15810
C         -5.45230        0.06360       -5.79720
C         -5.03500       -1.20120       -5.33520
C         -4.51710       -1.51580       -4.06750
C         -4.39280       -0.52820       -3.00840
S         -3.63290        1.01390       -3.29920
C         -3.74640        1.47180       -1.63600
C         -3.20240        2.76970       -1.15130
C         -1.78690        2.58560       -0.60310
C         -4.32340        0.47510       -0.90760
Cl        -4.59030        0.56520        0.78370
C         -4.69160       -0.65800       -1.68010
Cl        -5.50660       -2.00340       -1.00290
C         -3.95160       -2.77580       -3.91940
C         -3.90380       -3.73700       -4.95730
C         -4.42480       -3.41610       -6.22310
C         -4.25060       -4.31520       -7.35760
S         -5.04490       -5.85440       -7.45680
C         -4.33120       -6.20660       -8.99560
C         -4.66880       -7.45610       -9.73130
C         -5.99210       -7.30590      -10.48540
C         -3.52740       -5.18020       -9.39210
C         -3.47280       -4.10820       -8.46060
Cl        -2.46920       -2.73220       -8.67310
Cl        -2.64620       -5.16440      -10.86460
C         -4.96360       -2.15080       -6.38600
S         -5.45140       -1.44230       -7.90350
C         -3.10520       -4.85720       -4.60890
C         -2.52510       -4.74110       -3.37970
S         -3.01830       -3.28210       -2.54760
C         -1.49210       -5.54010       -2.79700
C         -1.09210       -6.80370       -3.10750
C          0.08640       -7.20370       -2.42400
C          0.77210       -8.42580       -2.52360
C          0.21350       -9.54010       -3.26770
S          1.13610      -10.39460       -4.46820
C         -0.17230      -11.47000       -4.82130
C         -0.01320      -12.57430       -5.80670
C          0.68750      -13.77540       -5.16710
C         -1.25020      -11.17920       -4.03890
Cl        -2.73430      -12.04020       -4.09370
C         -1.03890      -10.08160       -3.16270
Cl        -2.22390       -9.56140       -2.03450
C          2.00520       -8.50620       -1.88680
C          2.55790       -7.44460       -1.13100
C          1.82170       -6.26150       -0.93900
C          2.34790       -5.16700       -0.14220
S          2.33980       -3.53310       -0.75040
C          3.21240       -2.93070        0.61750
C          3.61100       -1.49930        0.69130
C          4.72600       -1.17810       -0.30500
C          3.47710       -3.94220        1.49100
C          2.96750       -5.20390        1.07760
Cl         3.04650       -6.58870        2.08910
Cl         4.37660       -3.75280        2.93830
C          0.60730       -6.16900       -1.60980
S         -0.44020       -4.78210       -1.61660
C          3.87440       -7.75810       -0.68140
C          4.26500       -9.00150       -1.02590
S          3.07900       -9.87650       -1.93000
H          2.55310       -0.54440       15.24390
H          2.57840        1.90830       14.37100
H          3.17040        8.00080       12.91230
H          1.67490        7.77970       11.98270
H          1.18140        8.65110       14.25760
H          0.50440        7.03100       14.05750
H          1.99390        7.25910       14.97990
H          2.57590       -4.23430        6.46470
H          1.38620       -5.37420        7.11980
H          4.25500       -5.03490        8.12940
H          3.07170       -6.17930        8.77180
H          3.66930       -6.36090        7.11880
H          1.35510       -0.06050        7.62430
H          1.10470        0.46320        5.48900
H         -1.49770       -3.78590        2.48860
H         -0.50450       -3.92890        1.04210
H         -1.80620       -2.11280       -0.05820
H         -2.86090       -3.43340        0.44130
H         -2.80640       -1.94430        1.38720
H          3.54280        9.14650        4.94700
H          2.41730       10.09750        3.95850
H          5.04640        8.88170        2.97260
H          4.78040       10.58790        3.34820
H          3.92990        9.83880        1.99340
H          1.90090        5.16600        0.19200
H          1.50740        1.56810       -2.93330
H         -0.39280       -3.43000       -5.70700
H         -0.57890       -2.85390       -4.03920
H          2.09540       -3.50690       -5.36810
H          1.86440       -3.00850       -3.68590
H          1.23660       -4.56080       -4.24370
H         -3.50950        9.31640       -2.15310
H         -2.58650       10.56720       -3.00030
H         -0.58330       10.00800       -1.59890
H         -1.95990       10.45880       -0.58910
H         -1.51500        8.75860       -0.77080
H         -2.87270        5.61580       -6.66760
H         -2.78840        1.91220      -10.98260
H         -2.56470        3.60670      -10.52050
H         -3.99290        3.11630      -11.44200
H         -6.20650        0.00380      -10.08250
H         -4.48820       -0.17800      -10.43860
H         -5.41860        1.08750      -11.24100
H         -5.52600        0.92720       -5.16220
H         -3.85120        3.15700       -0.36310
H         -3.18480        3.48610       -1.97430
H         -1.14350        2.16940       -1.37450
H         -1.79160        1.90510        0.24480
H         -1.38430        3.54320       -0.28300
H         -4.74670       -8.28430       -9.02450
H         -3.86620       -7.67290      -10.43860
H         -6.80050       -7.09350       -9.78980
H         -5.92700       -6.49100      -11.20200
H         -6.22320       -8.22310      -11.02030
H         -2.91890       -5.67920       -5.27570
H         -1.60500       -7.42530       -3.81740
H          0.57530      -12.22150       -6.65540
H         -1.00080      -12.87180       -6.16330
H          1.67080      -13.48730       -4.80300
H          0.80360      -14.57200       -5.89680
H          0.10360      -14.15090       -4.33070
H          2.74500       -0.87100        0.46990
H          3.94940       -1.28150        1.70500
H          5.60910       -1.77560       -0.09280
H          4.39680       -1.38990       -1.31940
H          4.99120       -0.12680       -0.23620
H          4.50110       -7.06920       -0.14730
H          5.20040       -9.48030       -0.81160
