
  xtb     03022221153D
 energy: -442.616762281277 gnorm: 0.000469952531 xtb: 6.4.1 (unknown)
225250  0     0  0            999 V2000
    2.4315   -0.2222   14.2282 C   0  0  0  0  0  0  0  0  0  0  0  0
    2.4473    1.0397   13.7528 C   0  0  0  0  0  0  0  0  0  0  0  0
    2.2559    1.1014   12.3418 C   0  0  0  0  0  0  0  0  0  0  0  0
    2.2691    2.2352   11.5141 C   0  0  0  0  0  0  0  0  0  0  0  0
    2.5851    3.5536   12.0402 C   0  0  0  0  0  0  0  0  0  0  0  0
    1.5451    4.9194   11.7715 S   0  0  0  0  0  0  0  0  0  0  0  0
    2.5995    5.9888   12.6304 C   0  0  0  0  0  0  0  0  0  0  0  0
    2.2485    7.4206   12.8385 C   0  0  0  0  0  0  0  0  0  0  0  0
    1.4277    7.6021   14.1177 C   0  0  0  0  0  0  0  0  0  0  0  0
    3.6871    5.3114   13.0955 C   0  0  0  0  0  0  0  0  0  0  0  0
    4.9565    6.0400   13.9916 Cl  0  0  0  0  0  0  0  0  0  0  0  0
    3.6854    3.9315   12.7589 C   0  0  0  0  0  0  0  0  0  0  0  0
    4.9846    2.8813   13.1544 Cl  0  0  0  0  0  0  0  0  0  0  0  0
    2.0122    2.0342   10.1644 C   0  0  0  0  0  0  0  0  0  0  0  0
    1.7854    0.7497    9.6161 C   0  0  0  0  0  0  0  0  0  0  0  0
    1.8182   -0.3939   10.4334 C   0  0  0  0  0  0  0  0  0  0  0  0
    1.6526   -1.7160    9.8516 C   0  0  0  0  0  0  0  0  0  0  0  0
    2.6205   -2.2114    8.4899 S   0  0  0  0  0  0  0  0  0  0  0  0
    1.8439   -3.7528    8.3907 C   0  0  0  0  0  0  0  0  0  0  0  0
    2.2503   -4.7541    7.3671 C   0  0  0  0  0  0  0  0  0  0  0  0
    3.3863   -5.6405    7.8816 C   0  0  0  0  0  0  0  0  0  0  0  0
    0.9060   -3.8707    9.3727 C   0  0  0  0  0  0  0  0  0  0  0  0
    0.7918   -2.7198   10.1994 C   0  0  0  0  0  0  0  0  0  0  0  0
   -0.3869   -2.5966   11.4367 Cl  0  0  0  0  0  0  0  0  0  0  0  0
   -0.0740   -5.2620    9.5938 Cl  0  0  0  0  0  0  0  0  0  0  0  0
    2.0473   -0.1864   11.7880 C   0  0  0  0  0  0  0  0  0  0  0  0
    2.1676   -1.4193   13.0099 S   0  0  0  0  0  0  0  0  0  0  0  0
    1.5653    0.8057    8.2210 C   0  0  0  0  0  0  0  0  0  0  0  0
    1.6596    2.0633    7.6996 C   0  0  0  0  0  0  0  0  0  0  0  0
    1.9916    3.2633    8.9292 S   0  0  0  0  0  0  0  0  0  0  0  0
    1.5895    2.3832    6.3101 C   0  0  0  0  0  0  0  0  0  0  0  0
    1.3689    1.4852    5.3058 C   0  0  0  0  0  0  0  0  0  0  0  0
    1.5155    2.0289    4.0107 C   0  0  0  0  0  0  0  0  0  0  0  0
    1.3980    1.3632    2.7755 C   0  0  0  0  0  0  0  0  0  0  0  0
    1.0428   -0.0436    2.7002 C   0  0  0  0  0  0  0  0  0  0  0  0
   -0.2606   -0.5351    1.6514 S   0  0  0  0  0  0  0  0  0  0  0  0
   -0.1718   -2.1765    2.1733 C   0  0  0  0  0  0  0  0  0  0  0  0
   -1.0875   -3.2242    1.6442 C   0  0  0  0  0  0  0  0  0  0  0  0
   -2.2115   -2.6411    0.8020 C   0  0  0  0  0  0  0  0  0  0  0  0
    0.8203   -2.3255    3.0974 C   0  0  0  0  0  0  0  0  0  0  0  0
    1.1680   -3.8260    3.8520 Cl  0  0  0  0  0  0  0  0  0  0  0  0
    1.5170   -1.1252    3.3951 C   0  0  0  0  0  0  0  0  0  0  0  0
    2.8777   -1.1055    4.4477 Cl  0  0  0  0  0  0  0  0  0  0  0  0
    1.5377    2.1453    1.6362 C   0  0  0  0  0  0  0  0  0  0  0  0
    1.7323    3.5471    1.6800 C   0  0  0  0  0  0  0  0  0  0  0  0
    1.8244    4.2111    2.9155 C   0  0  0  0  0  0  0  0  0  0  0  0
    1.8954    5.6610    2.9784 C   0  0  0  0  0  0  0  0  0  0  0  0
    3.1124    6.4868    3.9025 S   0  0  0  0  0  0  0  0  0  0  0  0
    2.4874    8.0441    3.4797 C   0  0  0  0  0  0  0  0  0  0  0  0
    3.1550    9.2932    3.9377 C   0  0  0  0  0  0  0  0  0  0  0  0
    4.3037    9.6754    3.0010 C   0  0  0  0  0  0  0  0  0  0  0  0
    1.4009    7.9148    2.6666 C   0  0  0  0  0  0  0  0  0  0  0  0
    1.0566    6.5662    2.3859 C   0  0  0  0  0  0  0  0  0  0  0  0
   -0.3324    6.1494    1.4661 Cl  0  0  0  0  0  0  0  0  0  0  0  0
    0.5097    9.2397    2.0370 Cl  0  0  0  0  0  0  0  0  0  0  0  0
    1.7744    3.4220    4.0566 C   0  0  0  0  0  0  0  0  0  0  0  0
    1.9016    3.9914    5.6976 S   0  0  0  0  0  0  0  0  0  0  0  0
    1.7677    4.1173    0.3840 C   0  0  0  0  0  0  0  0  0  0  0  0
    1.5915    3.2097   -0.6153 C   0  0  0  0  0  0  0  0  0  0  0  0
    1.4568    1.5709   -0.0062 S   0  0  0  0  0  0  0  0  0  0  0  0
    1.2795    3.4745   -1.9823 C   0  0  0  0  0  0  0  0  0  0  0  0
    1.1684    2.5853   -3.0084 C   0  0  0  0  0  0  0  0  0  0  0  0
    0.5219    3.1214   -4.1491 C   0  0  0  0  0  0  0  0  0  0  0  0
    0.1859    2.4618   -5.3437 C   0  0  0  0  0  0  0  0  0  0  0  0
    0.4273    1.0436   -5.5457 C   0  0  0  0  0  0  0  0  0  0  0  0
   -0.0749   -0.1140   -4.3415 S   0  0  0  0  0  0  0  0  0  0  0  0
    0.2847   -1.4588   -5.3657 C   0  0  0  0  0  0  0  0  0  0  0  0
    0.0836   -2.8603   -4.9049 C   0  0  0  0  0  0  0  0  0  0  0  0
    1.4084   -3.5256   -4.5266 C   0  0  0  0  0  0  0  0  0  0  0  0
    0.7783   -1.0253   -6.5602 C   0  0  0  0  0  0  0  0  0  0  0  0
    1.2353   -2.0743   -7.8374 Cl  0  0  0  0  0  0  0  0  0  0  0  0
    0.8539    0.3891   -6.6686 C   0  0  0  0  0  0  0  0  0  0  0  0
    1.4928    1.1713   -8.0521 Cl  0  0  0  0  0  0  0  0  0  0  0  0
   -0.5977    3.1709   -6.2462 C   0  0  0  0  0  0  0  0  0  0  0  0
   -1.1239    4.4589   -5.9820 C   0  0  0  0  0  0  0  0  0  0  0  0
   -0.6945    5.1580   -4.8412 C   0  0  0  0  0  0  0  0  0  0  0  0
   -1.1568    6.5029   -4.5605 C   0  0  0  0  0  0  0  0  0  0  0  0
   -1.7174    6.9628   -2.9791 S   0  0  0  0  0  0  0  0  0  0  0  0
   -2.0127    8.5958   -3.4700 C   0  0  0  0  0  0  0  0  0  0  0  0
   -2.5109    9.6035   -2.4938 C   0  0  0  0  0  0  0  0  0  0  0  0
   -1.5819    9.7145   -1.2849 C   0  0  0  0  0  0  0  0  0  0  0  0
   -1.6964    8.7584   -4.7860 C   0  0  0  0  0  0  0  0  0  0  0  0
   -1.2190    7.5742   -5.4096 C   0  0  0  0  0  0  0  0  0  0  0  0
   -0.6972    7.5396   -7.0436 Cl  0  0  0  0  0  0  0  0  0  0  0  0
   -1.8444   10.2431   -5.6359 Cl  0  0  0  0  0  0  0  0  0  0  0  0
    0.1236    4.4651   -3.9524 C   0  0  0  0  0  0  0  0  0  0  0  0
    0.6525    5.0569   -2.4038 S   0  0  0  0  0  0  0  0  0  0  0  0
   -2.2510    4.7503   -6.8087 C   0  0  0  0  0  0  0  0  0  0  0  0
   -2.5399    3.7670   -7.6949 C   0  0  0  0  0  0  0  0  0  0  0  0
   -1.3284    2.4733   -7.6567 S   0  0  0  0  0  0  0  0  0  0  0  0
   -3.7895    3.2682   -8.2290 C   0  0  0  0  0  0  0  0  0  0  0  0
   -4.8391    2.7195   -6.9317 S   0  0  0  0  0  0  0  0  0  0  0  0
   -5.3522    1.3454   -7.8959 C   0  0  0  0  0  0  0  0  0  0  0  0
   -4.9546    1.4974   -9.2089 C   0  0  0  0  0  0  0  0  0  0  0  0
   -4.0311    2.5673   -9.3822 C   0  0  0  0  0  0  0  0  0  0  0  0
   -3.2991    2.8171  -10.6567 C   0  0  0  0  0  0  0  0  0  0  0  0
   -5.2920    0.5475  -10.3051 C   0  0  0  0  0  0  0  0  0  0  0  0
   -5.5879    0.1449   -7.1581 C   0  0  0  0  0  0  0  0  0  0  0  0
   -5.4523    0.0636   -5.7972 C   0  0  0  0  0  0  0  0  0  0  0  0
   -5.0350   -1.2012   -5.3352 C   0  0  0  0  0  0  0  0  0  0  0  0
   -4.5171   -1.5158   -4.0675 C   0  0  0  0  0  0  0  0  0  0  0  0
   -4.3928   -0.5282   -3.0084 C   0  0  0  0  0  0  0  0  0  0  0  0
   -3.6329    1.0139   -3.2992 S   0  0  0  0  0  0  0  0  0  0  0  0
   -3.7464    1.4718   -1.6360 C   0  0  0  0  0  0  0  0  0  0  0  0
   -3.2024    2.7697   -1.1513 C   0  0  0  0  0  0  0  0  0  0  0  0
   -1.7869    2.5856   -0.6031 C   0  0  0  0  0  0  0  0  0  0  0  0
   -4.3234    0.4751   -0.9076 C   0  0  0  0  0  0  0  0  0  0  0  0
   -4.5903    0.5652    0.7837 Cl  0  0  0  0  0  0  0  0  0  0  0  0
   -4.6916   -0.6580   -1.6801 C   0  0  0  0  0  0  0  0  0  0  0  0
   -5.5066   -2.0034   -1.0029 Cl  0  0  0  0  0  0  0  0  0  0  0  0
   -3.9516   -2.7758   -3.9194 C   0  0  0  0  0  0  0  0  0  0  0  0
   -3.9038   -3.7370   -4.9573 C   0  0  0  0  0  0  0  0  0  0  0  0
   -4.4248   -3.4161   -6.2231 C   0  0  0  0  0  0  0  0  0  0  0  0
   -4.2506   -4.3152   -7.3576 C   0  0  0  0  0  0  0  0  0  0  0  0
   -5.0449   -5.8544   -7.4568 S   0  0  0  0  0  0  0  0  0  0  0  0
   -4.3312   -6.2066   -8.9956 C   0  0  0  0  0  0  0  0  0  0  0  0
   -4.6688   -7.4561   -9.7313 C   0  0  0  0  0  0  0  0  0  0  0  0
   -5.9921   -7.3059  -10.4854 C   0  0  0  0  0  0  0  0  0  0  0  0
   -3.5274   -5.1802   -9.3921 C   0  0  0  0  0  0  0  0  0  0  0  0
   -3.4728   -4.1082   -8.4606 C   0  0  0  0  0  0  0  0  0  0  0  0
   -2.4692   -2.7322   -8.6731 Cl  0  0  0  0  0  0  0  0  0  0  0  0
   -2.6462   -5.1644  -10.8646 Cl  0  0  0  0  0  0  0  0  0  0  0  0
   -4.9636   -2.1508   -6.3860 C   0  0  0  0  0  0  0  0  0  0  0  0
   -5.4514   -1.4423   -7.9035 S   0  0  0  0  0  0  0  0  0  0  0  0
   -3.1052   -4.8572   -4.6089 C   0  0  0  0  0  0  0  0  0  0  0  0
   -2.5251   -4.7411   -3.3797 C   0  0  0  0  0  0  0  0  0  0  0  0
   -3.0183   -3.2821   -2.5476 S   0  0  0  0  0  0  0  0  0  0  0  0
   -1.4921   -5.5401   -2.7970 C   0  0  0  0  0  0  0  0  0  0  0  0
   -1.0921   -6.8037   -3.1075 C   0  0  0  0  0  0  0  0  0  0  0  0
    0.0864   -7.2037   -2.4240 C   0  0  0  0  0  0  0  0  0  0  0  0
    0.7721   -8.4258   -2.5236 C   0  0  0  0  0  0  0  0  0  0  0  0
    0.2135   -9.5401   -3.2677 C   0  0  0  0  0  0  0  0  0  0  0  0
    1.1361  -10.3946   -4.4682 S   0  0  0  0  0  0  0  0  0  0  0  0
   -0.1723  -11.4700   -4.8213 C   0  0  0  0  0  0  0  0  0  0  0  0
   -0.0132  -12.5743   -5.8067 C   0  0  0  0  0  0  0  0  0  0  0  0
    0.6875  -13.7754   -5.1671 C   0  0  0  0  0  0  0  0  0  0  0  0
   -1.2502  -11.1792   -4.0389 C   0  0  0  0  0  0  0  0  0  0  0  0
   -2.7343  -12.0402   -4.0937 Cl  0  0  0  0  0  0  0  0  0  0  0  0
   -1.0389  -10.0816   -3.1627 C   0  0  0  0  0  0  0  0  0  0  0  0
   -2.2239   -9.5614   -2.0345 Cl  0  0  0  0  0  0  0  0  0  0  0  0
    2.0052   -8.5062   -1.8868 C   0  0  0  0  0  0  0  0  0  0  0  0
    2.5579   -7.4446   -1.1310 C   0  0  0  0  0  0  0  0  0  0  0  0
    1.8217   -6.2615   -0.9390 C   0  0  0  0  0  0  0  0  0  0  0  0
    2.3479   -5.1670   -0.1422 C   0  0  0  0  0  0  0  0  0  0  0  0
    2.3398   -3.5331   -0.7504 S   0  0  0  0  0  0  0  0  0  0  0  0
    3.2124   -2.9307    0.6175 C   0  0  0  0  0  0  0  0  0  0  0  0
    3.6110   -1.4993    0.6913 C   0  0  0  0  0  0  0  0  0  0  0  0
    4.7260   -1.1781   -0.3050 C   0  0  0  0  0  0  0  0  0  0  0  0
    3.4771   -3.9422    1.4910 C   0  0  0  0  0  0  0  0  0  0  0  0
    2.9675   -5.2039    1.0776 C   0  0  0  0  0  0  0  0  0  0  0  0
    3.0465   -6.5887    2.0891 Cl  0  0  0  0  0  0  0  0  0  0  0  0
    4.3766   -3.7528    2.9383 Cl  0  0  0  0  0  0  0  0  0  0  0  0
    0.6073   -6.1690   -1.6098 C   0  0  0  0  0  0  0  0  0  0  0  0
   -0.4402   -4.7821   -1.6166 S   0  0  0  0  0  0  0  0  0  0  0  0
    3.8744   -7.7581   -0.6814 C   0  0  0  0  0  0  0  0  0  0  0  0
    4.2650   -9.0015   -1.0259 C   0  0  0  0  0  0  0  0  0  0  0  0
    3.0790   -9.8765   -1.9300 S   0  0  0  0  0  0  0  0  0  0  0  0
    2.5531   -0.5444   15.2439 H   0  0  0  0  0  0  0  0  0  0  0  0
    2.5784    1.9083   14.3710 H   0  0  0  0  0  0  0  0  0  0  0  0
    3.1704    8.0008   12.9123 H   0  0  0  0  0  0  0  0  0  0  0  0
    1.6749    7.7797   11.9827 H   0  0  0  0  0  0  0  0  0  0  0  0
    1.1814    8.6511   14.2576 H   0  0  0  0  0  0  0  0  0  0  0  0
    0.5044    7.0310   14.0575 H   0  0  0  0  0  0  0  0  0  0  0  0
    1.9939    7.2591   14.9799 H   0  0  0  0  0  0  0  0  0  0  0  0
    2.5759   -4.2343    6.4647 H   0  0  0  0  0  0  0  0  0  0  0  0
    1.3862   -5.3742    7.1198 H   0  0  0  0  0  0  0  0  0  0  0  0
    4.2550   -5.0349    8.1294 H   0  0  0  0  0  0  0  0  0  0  0  0
    3.0717   -6.1793    8.7718 H   0  0  0  0  0  0  0  0  0  0  0  0
    3.6693   -6.3609    7.1188 H   0  0  0  0  0  0  0  0  0  0  0  0
    1.3551   -0.0605    7.6243 H   0  0  0  0  0  0  0  0  0  0  0  0
    1.1047    0.4632    5.4890 H   0  0  0  0  0  0  0  0  0  0  0  0
   -1.4977   -3.7859    2.4886 H   0  0  0  0  0  0  0  0  0  0  0  0
   -0.5045   -3.9289    1.0421 H   0  0  0  0  0  0  0  0  0  0  0  0
   -1.8062   -2.1128   -0.0582 H   0  0  0  0  0  0  0  0  0  0  0  0
   -2.8609   -3.4334    0.4413 H   0  0  0  0  0  0  0  0  0  0  0  0
   -2.8064   -1.9443    1.3872 H   0  0  0  0  0  0  0  0  0  0  0  0
    3.5428    9.1465    4.9470 H   0  0  0  0  0  0  0  0  0  0  0  0
    2.4173   10.0975    3.9585 H   0  0  0  0  0  0  0  0  0  0  0  0
    5.0464    8.8817    2.9726 H   0  0  0  0  0  0  0  0  0  0  0  0
    4.7804   10.5879    3.3482 H   0  0  0  0  0  0  0  0  0  0  0  0
    3.9299    9.8388    1.9934 H   0  0  0  0  0  0  0  0  0  0  0  0
    1.9009    5.1660    0.1920 H   0  0  0  0  0  0  0  0  0  0  0  0
    1.5074    1.5681   -2.9333 H   0  0  0  0  0  0  0  0  0  0  0  0
   -0.3928   -3.4300   -5.7070 H   0  0  0  0  0  0  0  0  0  0  0  0
   -0.5789   -2.8539   -4.0392 H   0  0  0  0  0  0  0  0  0  0  0  0
    2.0954   -3.5069   -5.3681 H   0  0  0  0  0  0  0  0  0  0  0  0
    1.8644   -3.0085   -3.6859 H   0  0  0  0  0  0  0  0  0  0  0  0
    1.2366   -4.5608   -4.2437 H   0  0  0  0  0  0  0  0  0  0  0  0
   -3.5095    9.3164   -2.1531 H   0  0  0  0  0  0  0  0  0  0  0  0
   -2.5865   10.5672   -3.0003 H   0  0  0  0  0  0  0  0  0  0  0  0
   -0.5833   10.0080   -1.5989 H   0  0  0  0  0  0  0  0  0  0  0  0
   -1.9599   10.4588   -0.5891 H   0  0  0  0  0  0  0  0  0  0  0  0
   -1.5150    8.7586   -0.7708 H   0  0  0  0  0  0  0  0  0  0  0  0
   -2.8727    5.6158   -6.6676 H   0  0  0  0  0  0  0  0  0  0  0  0
   -2.7884    1.9122  -10.9826 H   0  0  0  0  0  0  0  0  0  0  0  0
   -2.5647    3.6067  -10.5205 H   0  0  0  0  0  0  0  0  0  0  0  0
   -3.9929    3.1163  -11.4420 H   0  0  0  0  0  0  0  0  0  0  0  0
   -6.2065    0.0038  -10.0825 H   0  0  0  0  0  0  0  0  0  0  0  0
   -4.4882   -0.1780  -10.4386 H   0  0  0  0  0  0  0  0  0  0  0  0
   -5.4186    1.0875  -11.2410 H   0  0  0  0  0  0  0  0  0  0  0  0
   -5.5260    0.9272   -5.1622 H   0  0  0  0  0  0  0  0  0  0  0  0
   -3.8512    3.1570   -0.3631 H   0  0  0  0  0  0  0  0  0  0  0  0
   -3.1848    3.4861   -1.9743 H   0  0  0  0  0  0  0  0  0  0  0  0
   -1.1435    2.1694   -1.3745 H   0  0  0  0  0  0  0  0  0  0  0  0
   -1.7916    1.9051    0.2448 H   0  0  0  0  0  0  0  0  0  0  0  0
   -1.3843    3.5432   -0.2830 H   0  0  0  0  0  0  0  0  0  0  0  0
   -4.7467   -8.2843   -9.0245 H   0  0  0  0  0  0  0  0  0  0  0  0
   -3.8662   -7.6729  -10.4386 H   0  0  0  0  0  0  0  0  0  0  0  0
   -6.8005   -7.0935   -9.7898 H   0  0  0  0  0  0  0  0  0  0  0  0
   -5.9270   -6.4910  -11.2020 H   0  0  0  0  0  0  0  0  0  0  0  0
   -6.2232   -8.2231  -11.0203 H   0  0  0  0  0  0  0  0  0  0  0  0
   -2.9189   -5.6792   -5.2757 H   0  0  0  0  0  0  0  0  0  0  0  0
   -1.6050   -7.4253   -3.8174 H   0  0  0  0  0  0  0  0  0  0  0  0
    0.5753  -12.2215   -6.6554 H   0  0  0  0  0  0  0  0  0  0  0  0
   -1.0008  -12.8718   -6.1633 H   0  0  0  0  0  0  0  0  0  0  0  0
    1.6708  -13.4873   -4.8030 H   0  0  0  0  0  0  0  0  0  0  0  0
    0.8036  -14.5720   -5.8968 H   0  0  0  0  0  0  0  0  0  0  0  0
    0.1036  -14.1509   -4.3307 H   0  0  0  0  0  0  0  0  0  0  0  0
    2.7450   -0.8710    0.4699 H   0  0  0  0  0  0  0  0  0  0  0  0
    3.9494   -1.2815    1.7050 H   0  0  0  0  0  0  0  0  0  0  0  0
    5.6091   -1.7756   -0.0928 H   0  0  0  0  0  0  0  0  0  0  0  0
    4.3968   -1.3899   -1.3194 H   0  0  0  0  0  0  0  0  0  0  0  0
    4.9912   -0.1268   -0.2362 H   0  0  0  0  0  0  0  0  0  0  0  0
    4.5011   -7.0692   -0.1473 H   0  0  0  0  0  0  0  0  0  0  0  0
    5.2004   -9.4803   -0.8116 H   0  0  0  0  0  0  0  0  0  0  0  0
  1  2  2  0  0  0  0
  2  3  1  0  0  0  0
  3  4  2  0  0  0  0
  4  5  1  0  0  0  0
  5  6  1  0  0  0  0
  6  7  1  0  0  0  0
  7  8  1  0  0  0  0
  8  9  1  0  0  0  0
  7 10  2  0  0  0  0
 10 11  1  0  0  0  0
 10 12  1  0  0  0  0
 12 13  1  0  0  0  0
  4 14  1  0  0  0  0
 14 15  2  0  0  0  0
 15 16  1  0  0  0  0
 16 17  1  0  0  0  0
 17 18  1  0  0  0  0
 18 19  1  0  0  0  0
 19 20  1  0  0  0  0
 20 21  1  0  0  0  0
 19 22  2  0  0  0  0
 22 23  1  0  0  0  0
 23 24  1  0  0  0  0
 22 25  1  0  0  0  0
 16 26  2  0  0  0  0
 26 27  1  0  0  0  0
 15 28  1  0  0  0  0
 28 29  2  0  0  0  0
 29 30  1  0  0  0  0
 29 31  1  0  0  0  0
 31 32  2  0  0  0  0
 32 33  1  0  0  0  0
 33 34  2  0  0  0  0
 34 35  1  0  0  0  0
 35 36  1  0  0  0  0
 36 37  1  0  0  0  0
 37 38  1  0  0  0  0
 38 39  1  0  0  0  0
 37 40  2  0  0  0  0
 40 41  1  0  0  0  0
 40 42  1  0  0  0  0
 42 43  1  0  0  0  0
 34 44  1  0  0  0  0
 44 45  2  0  0  0  0
 45 46  1  0  0  0  0
 46 47  1  0  0  0  0
 47 48  1  0  0  0  0
 48 49  1  0  0  0  0
 49 50  1  0  0  0  0
 50 51  1  0  0  0  0
 49 52  2  0  0  0  0
 52 53  1  0  0  0  0
 53 54  1  0  0  0  0
 52 55  1  0  0  0  0
 46 56  2  0  0  0  0
 56 57  1  0  0  0  0
 45 58  1  0  0  0  0
 58 59  2  0  0  0  0
 59 60  1  0  0  0  0
 59 61  1  0  0  0  0
 61 62  2  0  0  0  0
 62 63  1  0  0  0  0
 63 64  2  0  0  0  0
 64 65  1  0  0  0  0
 65 66  1  0  0  0  0
 66 67  1  0  0  0  0
 67 68  1  0  0  0  0
 68 69  1  0  0  0  0
 67 70  2  0  0  0  0
 70 71  1  0  0  0  0
 70 72  1  0  0  0  0
 72 73  1  0  0  0  0
 64 74  1  0  0  0  0
 74 75  2  0  0  0  0
 75 76  1  0  0  0  0
 76 77  1  0  0  0  0
 77 78  1  0  0  0  0
 78 79  1  0  0  0  0
 79 80  1  0  0  0  0
 80 81  1  0  0  0  0
 79 82  2  0  0  0  0
 82 83  1  0  0  0  0
 83 84  1  0  0  0  0
 82 85  1  0  0  0  0
 76 86  2  0  0  0  0
 86 87  1  0  0  0  0
 75 88  1  0  0  0  0
 88 89  2  0  0  0  0
 89 90  1  0  0  0  0
 89 91  1  0  0  0  0
 91 92  1  0  0  0  0
 92 93  1  0  0  0  0
 93 94  2  0  0  0  0
 94 95  1  0  0  0  0
 95 96  1  0  0  0  0
 94 97  1  0  0  0  0
 93 98  1  0  0  0  0
 98 99  2  0  0  0  0
 99100  1  0  0  0  0
100101  2  0  0  0  0
101102  1  0  0  0  0
102103  1  0  0  0  0
103104  1  0  0  0  0
104105  1  0  0  0  0
105106  1  0  0  0  0
104107  2  0  0  0  0
107108  1  0  0  0  0
107109  1  0  0  0  0
109110  1  0  0  0  0
101111  1  0  0  0  0
111112  2  0  0  0  0
112113  1  0  0  0  0
113114  1  0  0  0  0
114115  1  0  0  0  0
115116  1  0  0  0  0
116117  1  0  0  0  0
117118  1  0  0  0  0
116119  2  0  0  0  0
119120  1  0  0  0  0
120121  1  0  0  0  0
119122  1  0  0  0  0
113123  2  0  0  0  0
123124  1  0  0  0  0
112125  1  0  0  0  0
125126  2  0  0  0  0
126127  1  0  0  0  0
126128  1  0  0  0  0
128129  2  0  0  0  0
129130  1  0  0  0  0
130131  2  0  0  0  0
131132  1  0  0  0  0
132133  1  0  0  0  0
133134  1  0  0  0  0
134135  1  0  0  0  0
135136  1  0  0  0  0
134137  2  0  0  0  0
137138  1  0  0  0  0
137139  1  0  0  0  0
139140  1  0  0  0  0
131141  1  0  0  0  0
141142  2  0  0  0  0
142143  1  0  0  0  0
143144  1  0  0  0  0
144145  1  0  0  0  0
145146  1  0  0  0  0
146147  1  0  0  0  0
147148  1  0  0  0  0
146149  2  0  0  0  0
149150  1  0  0  0  0
150151  1  0  0  0  0
149152  1  0  0  0  0
143153  2  0  0  0  0
153154  1  0  0  0  0
142155  1  0  0  0  0
155156  2  0  0  0  0
156157  1  0  0  0  0
 27  1  1  0  0  0  0
 57 31  1  0  0  0  0
 87 61  1  0  0  0  0
 95 91  2  0  0  0  0
124 98  1  0  0  0  0
154128  1  0  0  0  0
 26  3  1  0  0  0  0
 56 33  1  0  0  0  0
 86 63  1  0  0  0  0
123100  1  0  0  0  0
153130  1  0  0  0  0
 12  5  2  0  0  0  0
 30 14  1  0  0  0  0
 42 35  2  0  0  0  0
 60 44  1  0  0  0  0
 72 65  2  0  0  0  0
 90 74  1  0  0  0  0
109102  2  0  0  0  0
127111  1  0  0  0  0
139132  2  0  0  0  0
157141  1  0  0  0  0
 23 17  2  0  0  0  0
 53 47  2  0  0  0  0
 83 77  2  0  0  0  0
120114  2  0  0  0  0
150144  2  0  0  0  0
  1158  1  0  0  0  0
  2159  1  0  0  0  0
  8160  1  0  0  0  0
  8161  1  0  0  0  0
  9162  1  0  0  0  0
  9163  1  0  0  0  0
  9164  1  0  0  0  0
 20165  1  0  0  0  0
 20166  1  0  0  0  0
 21167  1  0  0  0  0
 21168  1  0  0  0  0
 21169  1  0  0  0  0
 28170  1  0  0  0  0
 32171  1  0  0  0  0
 38172  1  0  0  0  0
 38173  1  0  0  0  0
 39174  1  0  0  0  0
 39175  1  0  0  0  0
 39176  1  0  0  0  0
 50177  1  0  0  0  0
 50178  1  0  0  0  0
 51179  1  0  0  0  0
 51180  1  0  0  0  0
 51181  1  0  0  0  0
 58182  1  0  0  0  0
 62183  1  0  0  0  0
 68184  1  0  0  0  0
 68185  1  0  0  0  0
 69186  1  0  0  0  0
 69187  1  0  0  0  0
 69188  1  0  0  0  0
 80189  1  0  0  0  0
 80190  1  0  0  0  0
 81191  1  0  0  0  0
 81192  1  0  0  0  0
 81193  1  0  0  0  0
 88194  1  0  0  0  0
 96195  1  0  0  0  0
 96196  1  0  0  0  0
 96197  1  0  0  0  0
 97198  1  0  0  0  0
 97199  1  0  0  0  0
 97200  1  0  0  0  0
 99201  1  0  0  0  0
105202  1  0  0  0  0
105203  1  0  0  0  0
106204  1  0  0  0  0
106205  1  0  0  0  0
106206  1  0  0  0  0
117207  1  0  0  0  0
117208  1  0  0  0  0
118209  1  0  0  0  0
118210  1  0  0  0  0
118211  1  0  0  0  0
125212  1  0  0  0  0
129213  1  0  0  0  0
135214  1  0  0  0  0
135215  1  0  0  0  0
136216  1  0  0  0  0
136217  1  0  0  0  0
136218  1  0  0  0  0
147219  1  0  0  0  0
147220  1  0  0  0  0
148221  1  0  0  0  0
148222  1  0  0  0  0
148223  1  0  0  0  0
155224  1  0  0  0  0
156225  1  0  0  0  0
M  END
