238

C          2.52960       -1.01100       13.26770
C          1.82350        0.03300       12.78990
C          1.30160       -0.20030       11.48220
C          0.53880        0.66760       10.68560
C          0.27150        2.05300       11.09070
C          1.31180        2.87730       11.52090
C          1.07540        4.19260       11.85390
C         -0.20440        4.74260       11.78020
S         -0.38290        6.43030       12.26380
C         -1.74710        7.04810       11.19840
C         -1.62120        8.55200       11.05740
C         -1.23630        3.90240       11.37280
F         -2.51230        4.34840       11.31500
C         -1.01060        2.58690       11.02110
C          0.09230        0.16370        9.47240
C          0.43050       -1.12780        8.99910
C          1.24380       -1.97330        9.76960
C          1.68210       -3.27630        9.25660
C          1.55540       -4.43760       10.01170
C          1.97380       -5.65960        9.52060
C          2.53510       -5.76530        8.25320
S          3.12990       -7.24780        7.51100
C          2.46550       -8.58020        8.56660
C          0.96780       -8.75260        8.40220
C          2.66890       -4.58910        7.51230
C          2.25560       -3.36660        7.98850
F          3.22470       -4.64630        6.28390
C          1.63070       -1.49520       11.01400
S          2.61190       -2.35130       12.17600
C         -0.15130       -1.39670        7.73330
C         -0.87900       -0.35910        7.23490
S         -0.89060        1.02300        8.31400
C         -1.55820       -0.29080        5.98360
C         -2.29120        0.74580        5.49040
C         -2.76090        0.53370        4.16960
C         -3.43240        1.45440        3.34650
C         -3.89150        2.73460        3.89700
C         -3.57170        3.95450        3.30530
C         -3.97310        5.13840        3.88620
C         -4.72930        5.15810        5.05800
S         -5.18400        6.74190        5.69580
C         -5.17500        6.52820        7.51550
C         -3.83650        6.04290        8.03390
C         -5.09270        3.92950        5.60190
F         -5.88300        3.85440        6.69630
C         -4.66530        2.73820        5.05360
C         -3.60680        1.09160        2.02040
C         -3.19980       -0.16900        1.51910
C         -2.54700       -1.09850        2.34510
C         -2.00270       -2.33660        1.78070
C         -2.15580       -3.56860        2.41150
C         -1.63100       -4.71600        1.84740
C         -0.96010       -4.66960        0.63350
S         -0.31890       -6.16100       -0.10720
C         -1.73840       -6.55910       -1.19710
C         -2.96370       -6.98760       -0.41620
C         -0.79160       -3.43340        0.02450
C         -1.28810       -2.27700        0.58590
F         -0.12510       -3.33400       -1.14270
C         -2.34750       -0.72250        3.66210
S         -1.44640       -1.62280        4.84940
C         -3.46320       -0.29430        0.13600
C         -3.95840        0.84010       -0.43590
S         -4.27410        2.08960        0.75030
C         -3.96970        1.07520       -1.84730
C         -3.13050        0.43220       -2.71130
C         -3.13030        0.96950       -4.01890
C         -2.27770        0.60490       -5.07760
C         -1.44640       -0.60010       -5.00240
C         -0.13120       -0.62470       -5.46680
C          0.60890       -1.78280       -5.42830
C          0.10400       -2.97050       -4.89900
S          1.19110       -4.35500       -4.96110
C          0.60820       -5.48520       -3.63910
C          1.71150       -6.46090       -3.28290
C         -1.20830       -2.93640       -4.43610
F         -1.80770       -4.04340       -3.93240
C         -1.97130       -1.78670       -4.49010
C         -2.27140        1.46940       -6.16610
C         -3.18680        2.54410       -6.30110
C         -4.12260        2.82660       -5.28900
C         -5.11800        3.89030       -5.45850
C         -5.32520        4.86430       -4.48320
C         -6.28410        5.83800       -4.65840
C         -7.07420        5.88590       -5.80620
S         -8.23800        7.21030       -5.91720
C         -9.68540        6.49080       -6.77710
C        -10.25110        5.29690       -6.03500
C         -6.83680        4.92340       -6.78400
C         -5.88670        3.93660       -6.61850
F         -7.53690        4.91830       -7.93850
C         -4.01630        2.07010       -4.13140
S         -4.87220        2.34810       -2.63220
C         -2.92790        3.32630       -7.45710
C         -1.84900        2.89130       -8.16370
S         -1.13930        1.44510       -7.49200
C         -1.12930        3.56690       -9.20140
O          0.20330        3.46590       -9.17940
C          0.73160        4.30090      -10.11930
C         -0.31320        4.91330      -10.80500
C         -1.51330        4.43560      -10.20320
C         -2.90380        4.80480      -10.56800
F         -3.03940        5.18370      -11.83910
F         -3.37990        5.82240       -9.81450
F         -3.76380        3.78690      -10.37630
O         -0.34360        5.75990      -11.83940
C          0.84730        6.01990      -12.55300
C          2.14980        4.50850      -10.08430
C          3.03250        3.73180       -9.42780
C          2.79890        2.42120       -8.86920
O          3.35700        2.13130       -7.68450
C          3.13050        0.82850       -7.39820
C          2.41590        0.24430       -8.44010
C          2.20000        1.28190       -9.39250
C          1.58900        1.14570      -10.73880
F          1.98400        0.02450      -11.36980
F          1.90910        2.14630      -11.57680
F          0.23880        1.10180      -10.72620
O          2.06330       -1.05330       -8.42520
C          0.85230       -1.45790       -9.04500
C          3.54580        0.24170       -6.15930
C          3.80290       -1.07740       -6.06110
C          4.03920       -1.82680       -4.86610
C          4.56920       -3.08180       -4.82120
C          4.60960       -3.64720       -3.52330
C          5.10140       -4.91090       -3.16200
C          5.57850       -5.86460       -4.17040
C          6.80920       -6.49880       -4.03790
C          7.24960       -7.41130       -4.97750
C          6.46980       -7.72530       -6.08410
S          6.88830       -8.88720       -7.34080
C          8.66720       -9.20750       -7.08440
C          9.52840       -8.02130       -7.47490
C          5.23220       -7.08820       -6.19830
F          4.44180       -7.38260       -7.25070
C          4.78450       -6.17170       -5.27520
C          5.08440       -5.21900       -1.80910
C          4.52790       -4.36140       -0.83070
C          3.96910       -3.12590       -1.20260
C          3.25650       -2.30630       -0.21430
C          2.34600       -2.90960        0.65480
C          1.63650       -2.15770        1.56940
C          1.79600       -0.78040        1.63020
S          0.76730        0.18570        2.71930
C          1.98760        0.63290        4.00680
C          2.38420       -0.56810        4.84200
C          2.71520       -0.18830        0.77330
C          3.44670       -0.92960       -0.13360
F          2.91790        1.14360        0.82430
C          4.07280       -2.77280       -2.54370
S          3.54000       -1.27780       -3.27470
C          4.64770       -4.92100        0.47780
C          5.22150       -6.14040        0.48020
S          5.66530       -6.70180       -1.09430
H          3.01910       -1.09630       14.21810
H          1.65180        0.93970       13.34090
H          2.31820        2.48930       11.55950
H          1.88560        4.82930       12.17370
H         -2.69480        6.77480       11.66020
H         -1.64550        6.55280       10.23410
H         -0.66720        8.81550       10.60640
H         -2.42350        8.92880       10.42650
H         -1.68730        9.03370       12.03020
H         -1.85320        1.98250       10.72390
H          1.10730       -4.39130       10.99220
H          1.86170       -6.53230       10.14280
H          2.75430       -8.38620        9.59840
H          2.99660       -9.46620        8.21930
H          0.62130       -9.58340        9.01340
H          0.43390       -7.85330        8.70230
H          0.72770       -8.96190        7.36250
H          2.40400       -2.48910        7.37900
H         -0.05340       -2.33570        7.21800
H         -2.45050        1.65530        6.04200
H         -2.97280        3.97430        2.40850
H         -3.70010        6.08290        3.44200
H         -5.39690        7.53090        7.88120
H         -5.98650        5.86190        7.79850
H         -3.59740        5.05800        7.63760
H         -3.87250        5.97120        9.11900
H         -3.04340        6.73140        7.74800
H         -4.96950        1.81390        5.52070
H         -2.70050       -3.63060        3.34090
H         -1.74090       -5.66820        2.34290
H         -1.37110       -7.36810       -1.82710
H         -1.93830       -5.68550       -1.81600
H         -3.75520       -7.27210       -1.10650
H         -3.32810       -6.17480        0.21000
H         -2.73160       -7.84040        0.21830
H         -1.07850       -1.33200        0.11050
H         -3.28830       -1.19390       -0.42300
H         -2.45080       -0.33890       -2.40050
H          0.33540        0.27480       -5.83420
H          1.61230       -1.78750       -5.81860
H         -0.27720       -6.00500       -4.00240
H          0.36150       -4.86140       -2.78590
H          1.38410       -7.09000       -2.45780
H          2.60450       -5.92560       -2.96960
H          1.96220       -7.09540       -4.13000
H         -2.99750       -1.84110       -4.15970
H         -4.72090        4.86920       -3.58990
H         -6.44160        6.58950       -3.90060
H        -10.39720        7.31640       -6.79340
H         -9.40660        6.24350       -7.79870
H        -10.49250        5.56450       -5.00830
H         -9.53800        4.47500       -6.01920
H        -11.15740        4.95450       -6.53040
H         -5.75980        3.20430       -7.40110
H         -3.46970        4.22270       -7.69560
H          0.52800        6.41690      -13.51570
H          1.45460        6.77090      -12.04070
H          1.42800        5.10630      -12.70120
H          2.50970        5.41700      -10.53820
H          4.03880        4.09850       -9.28120
H          1.00000       -1.67130      -10.10530
H          0.56010       -2.37430       -8.53380
H          0.06880       -0.70880       -8.91840
H          3.62210        0.89730       -5.30330
H          3.82100       -1.66780       -6.96740
H          4.94020       -3.58410       -5.69560
H          7.44360       -6.26490       -3.19680
H          8.20790       -7.88220       -4.83210
H          8.86700      -10.06060       -7.73290
H          8.82220       -9.51510       -6.05110
H         10.58040       -8.26810       -7.34410
H          9.35860       -7.76300       -8.51750
H          9.29640       -7.15110       -6.86470
H          3.81430       -5.71880       -5.40890
H          2.16970       -3.97260        0.59070
H          0.93950       -2.62960        2.24510
H          2.84340        1.08900        3.51100
H          1.47970        1.38470        4.61080
H          1.50250       -1.01720        5.29520
H          3.06800       -0.25930        5.63100
H          2.87730       -1.32050        4.22880
H          4.15830       -0.42450       -0.76730
H          4.33860       -4.41420        1.37350
H          5.42910       -6.76710        1.32530
