
  xtb     02282216023D
 energy: -198.228099580117 gnorm: 0.000357823442 xtb: 6.4.1 (unknown)
154161  0     0  0            999 V2000
   -2.4156   -3.3778    3.6935 C   0  0  0  0  0  0  0  0  0  0  0  0
   -3.3202   -2.0528    3.0772 S   0  0  0  0  0  0  0  0  0  0  0  0
   -1.8709   -1.3180    2.4454 C   0  0  0  0  0  0  0  0  0  0  0  0
   -0.7683   -2.0976    2.7100 C   0  0  0  0  0  0  0  0  0  0  0  0
   -1.0803   -3.2712    3.4451 C   0  0  0  0  0  0  0  0  0  0  0  0
   -0.0296   -4.2545    3.8811 C   0  0  0  0  0  0  0  0  0  0  0  0
   -0.3360   -4.8547    5.2526 C   0  0  0  0  0  0  0  0  0  0  0  0
    1.3369   -3.5652    3.8775 C   0  0  0  0  0  0  0  0  0  0  0  0
    1.5859   -2.9028    2.5287 C   0  0  0  0  0  0  0  0  0  0  0  0
    0.6307   -1.7306    2.3300 C   0  0  0  0  0  0  0  0  0  0  0  0
   -1.8869   -0.0351    1.8104 C   0  0  0  0  0  0  0  0  0  0  0  0
   -2.9139    0.8278    1.8581 C   0  0  0  0  0  0  0  0  0  0  0  0
   -2.9360    2.1615    1.2780 C   0  0  0  0  0  0  0  0  0  0  0  0
   -4.1362    2.6381    0.7333 C   0  0  0  0  0  0  0  0  0  0  0  0
   -5.4087    1.8550    0.8456 C   0  0  0  0  0  0  0  0  0  0  0  0
   -4.1329    3.8549    0.0783 C   0  0  0  0  0  0  0  0  0  0  0  0
   -3.0016    4.6563    0.0010 C   0  0  0  0  0  0  0  0  0  0  0  0
   -3.0936    5.9336   -0.7891 C   0  0  0  0  0  0  0  0  0  0  0  0
   -2.5447    5.7414   -2.2045 C   0  0  0  0  0  0  0  0  0  0  0  0
   -1.8276    4.2437    0.6360 C   0  0  0  0  0  0  0  0  0  0  0  0
   -0.6468    5.1706    0.6965 C   0  0  0  0  0  0  0  0  0  0  0  0
   -1.7890    2.9857    1.2560 C   0  0  0  0  0  0  0  0  0  0  0  0
   -0.6055    2.5122    1.9742 C   0  0  0  0  0  0  0  0  0  0  0  0
    0.6591    2.5473    1.5486 C   0  0  0  0  0  0  0  0  0  0  0  0
    1.7763    1.9440    2.2853 C   0  0  0  0  0  0  0  0  0  0  0  0
    2.0242    2.2316    3.6268 C   0  0  0  0  0  0  0  0  0  0  0  0
    1.1998    3.2060    4.4160 C   0  0  0  0  0  0  0  0  0  0  0  0
    3.1007    1.6134    4.2448 C   0  0  0  0  0  0  0  0  0  0  0  0
    3.9160    0.7037    3.5902 C   0  0  0  0  0  0  0  0  0  0  0  0
    5.0226    0.0557    4.3802 C   0  0  0  0  0  0  0  0  0  0  0  0
    4.5120   -1.1816    5.1224 C   0  0  0  0  0  0  0  0  0  0  0  0
    3.6720    0.4030    2.2481 C   0  0  0  0  0  0  0  0  0  0  0  0
    4.5096   -0.6275    1.5435 C   0  0  0  0  0  0  0  0  0  0  0  0
    2.6191    1.0510    1.5925 C   0  0  0  0  0  0  0  0  0  0  0  0
    2.2875    0.8167    0.1866 C   0  0  0  0  0  0  0  0  0  0  0  0
    3.1445    0.7289   -0.8295 C   0  0  0  0  0  0  0  0  0  0  0  0
    2.7544    0.6449   -2.2450 C   0  0  0  0  0  0  0  0  0  0  0  0
    3.2007    1.6816   -3.0677 C   0  0  0  0  0  0  0  0  0  0  0  0
    4.0115    2.8126   -2.5071 C   0  0  0  0  0  0  0  0  0  0  0  0
    2.8681    1.6633   -4.4087 C   0  0  0  0  0  0  0  0  0  0  0  0
    2.0934    0.6515   -4.9537 C   0  0  0  0  0  0  0  0  0  0  0  0
    1.7420    0.7591   -6.4149 C   0  0  0  0  0  0  0  0  0  0  0  0
    0.4766    1.5984   -6.6094 C   0  0  0  0  0  0  0  0  0  0  0  0
    1.6433   -0.3925   -4.1424 C   0  0  0  0  0  0  0  0  0  0  0  0
    0.7670   -1.4443   -4.7651 C   0  0  0  0  0  0  0  0  0  0  0  0
    1.9948   -0.4133   -2.7807 C   0  0  0  0  0  0  0  0  0  0  0  0
    1.6129   -1.4972   -1.8704 C   0  0  0  0  0  0  0  0  0  0  0  0
    1.5305   -2.7957   -2.1530 C   0  0  0  0  0  0  0  0  0  0  0  0
    1.2301   -3.8737   -1.1950 C   0  0  0  0  0  0  0  0  0  0  0  0
    2.2861   -4.7629   -0.9614 C   0  0  0  0  0  0  0  0  0  0  0  0
    3.6274   -4.5326   -1.5932 C   0  0  0  0  0  0  0  0  0  0  0  0
    2.0971   -5.8418   -0.1212 C   0  0  0  0  0  0  0  0  0  0  0  0
    0.8576   -6.1242    0.4403 C   0  0  0  0  0  0  0  0  0  0  0  0
    0.7494   -7.3763    1.2727 C   0  0  0  0  0  0  0  0  0  0  0  0
    0.4066   -8.5862    0.4014 C   0  0  0  0  0  0  0  0  0  0  0  0
   -0.2103   -5.2684    0.1892 C   0  0  0  0  0  0  0  0  0  0  0  0
   -1.5920   -5.6170    0.6760 C   0  0  0  0  0  0  0  0  0  0  0  0
   -0.0134   -4.0887   -0.5716 C   0  0  0  0  0  0  0  0  0  0  0  0
   -1.1466   -3.1803   -0.6381 C   0  0  0  0  0  0  0  0  0  0  0  0
   -1.4616   -2.2016   -1.5018 C   0  0  0  0  0  0  0  0  0  0  0  0
   -2.7232   -1.5202   -1.4644 C   0  0  0  0  0  0  0  0  0  0  0  0
   -4.0793   -2.2569   -0.6622 S   0  0  0  0  0  0  0  0  0  0  0  0
   -5.1739   -1.0516   -1.2780 C   0  0  0  0  0  0  0  0  0  0  0  0
   -4.4993   -0.1223   -2.0422 C   0  0  0  0  0  0  0  0  0  0  0  0
   -3.1093   -0.3682   -2.1198 C   0  0  0  0  0  0  0  0  0  0  0  0
   -2.1457    0.5488   -2.8230 C   0  0  0  0  0  0  0  0  0  0  0  0
   -1.0484    1.0215   -1.8666 C   0  0  0  0  0  0  0  0  0  0  0  0
   -2.8635    1.7727   -3.4004 C   0  0  0  0  0  0  0  0  0  0  0  0
   -4.2263    1.4058   -3.9688 C   0  0  0  0  0  0  0  0  0  0  0  0
   -5.1429    0.9766   -2.8269 C   0  0  0  0  0  0  0  0  0  0  0  0
   -6.5642   -1.2120   -0.9439 C   0  0  0  0  0  0  0  0  0  0  0  0
   -7.5515   -0.3295   -1.0876 C   0  0  0  0  0  0  0  0  0  0  0  0
   -2.9391   -4.1553    4.2132 H   0  0  0  0  0  0  0  0  0  0  0  0
    0.0076   -5.0690    3.1467 H   0  0  0  0  0  0  0  0  0  0  0  0
   -1.2425   -5.4536    5.2254 H   0  0  0  0  0  0  0  0  0  0  0  0
    0.4850   -5.4946    5.5695 H   0  0  0  0  0  0  0  0  0  0  0  0
   -0.4648   -4.0666    5.9915 H   0  0  0  0  0  0  0  0  0  0  0  0
    2.1137   -4.3048    4.0835 H   0  0  0  0  0  0  0  0  0  0  0  0
    1.3689   -2.8108    4.6676 H   0  0  0  0  0  0  0  0  0  0  0  0
    1.4401   -3.6375    1.7350 H   0  0  0  0  0  0  0  0  0  0  0  0
    2.6123   -2.5416    2.4649 H   0  0  0  0  0  0  0  0  0  0  0  0
    0.9584   -0.8835    2.9429 H   0  0  0  0  0  0  0  0  0  0  0  0
    0.6573   -1.4057    1.2878 H   0  0  0  0  0  0  0  0  0  0  0  0
   -0.9792    0.2256    1.2865 H   0  0  0  0  0  0  0  0  0  0  0  0
   -3.8230    0.5051    2.3500 H   0  0  0  0  0  0  0  0  0  0  0  0
   -5.2962    0.8542    0.4362 H   0  0  0  0  0  0  0  0  0  0  0  0
   -6.2149    2.3593    0.3179 H   0  0  0  0  0  0  0  0  0  0  0  0
   -5.7017    1.7582    1.8914 H   0  0  0  0  0  0  0  0  0  0  0  0
   -5.0484    4.2050   -0.3804 H   0  0  0  0  0  0  0  0  0  0  0  0
   -2.5476    6.7411   -0.2994 H   0  0  0  0  0  0  0  0  0  0  0  0
   -4.1403    6.2386   -0.8560 H   0  0  0  0  0  0  0  0  0  0  0  0
   -3.1227    4.9874   -2.7342 H   0  0  0  0  0  0  0  0  0  0  0  0
   -1.5080    5.4158   -2.1751 H   0  0  0  0  0  0  0  0  0  0  0  0
   -2.5993    6.6735   -2.7630 H   0  0  0  0  0  0  0  0  0  0  0  0
   -0.0731    5.1378   -0.2296 H   0  0  0  0  0  0  0  0  0  0  0  0
    0.0162    4.9039    1.5146 H   0  0  0  0  0  0  0  0  0  0  0  0
   -0.9738    6.1973    0.8475 H   0  0  0  0  0  0  0  0  0  0  0  0
   -0.8198    2.0257    2.9181 H   0  0  0  0  0  0  0  0  0  0  0  0
    0.8941    2.9458    0.5707 H   0  0  0  0  0  0  0  0  0  0  0  0
    0.4139    2.6853    4.9638 H   0  0  0  0  0  0  0  0  0  0  0  0
    1.8247    3.7218    5.1428 H   0  0  0  0  0  0  0  0  0  0  0  0
    0.7276    3.9423    3.7706 H   0  0  0  0  0  0  0  0  0  0  0  0
    3.3100    1.8483    5.2798 H   0  0  0  0  0  0  0  0  0  0  0  0
    5.3979    0.7727    5.1143 H   0  0  0  0  0  0  0  0  0  0  0  0
    5.8559   -0.2185    3.7331 H   0  0  0  0  0  0  0  0  0  0  0  0
    3.7028   -0.9070    5.7955 H   0  0  0  0  0  0  0  0  0  0  0  0
    4.1313   -1.9249    4.4256 H   0  0  0  0  0  0  0  0  0  0  0  0
    5.3111   -1.6327    5.7069 H   0  0  0  0  0  0  0  0  0  0  0  0
    3.9708   -1.0531    0.7004 H   0  0  0  0  0  0  0  0  0  0  0  0
    4.7803   -1.4353    2.2185 H   0  0  0  0  0  0  0  0  0  0  0  0
    5.4340   -0.1841    1.1706 H   0  0  0  0  0  0  0  0  0  0  0  0
    1.2268    0.7979   -0.0305 H   0  0  0  0  0  0  0  0  0  0  0  0
    4.2060    0.8435   -0.6542 H   0  0  0  0  0  0  0  0  0  0  0  0
    3.5342    3.2298   -1.6213 H   0  0  0  0  0  0  0  0  0  0  0  0
    5.0043    2.4668   -2.2171 H   0  0  0  0  0  0  0  0  0  0  0  0
    4.1293    3.6010   -3.2468 H   0  0  0  0  0  0  0  0  0  0  0  0
    3.2134    2.4633   -5.0495 H   0  0  0  0  0  0  0  0  0  0  0  0
    2.5668    1.2474   -6.9393 H   0  0  0  0  0  0  0  0  0  0  0  0
    1.6067   -0.2252   -6.8628 H   0  0  0  0  0  0  0  0  0  0  0  0
    0.2331    1.6826   -7.6664 H   0  0  0  0  0  0  0  0  0  0  0  0
   -0.3713    1.1520   -6.0943 H   0  0  0  0  0  0  0  0  0  0  0  0
    0.6248    2.5982   -6.2068 H   0  0  0  0  0  0  0  0  0  0  0  0
    1.3687   -2.1642   -5.3222 H   0  0  0  0  0  0  0  0  0  0  0  0
    0.0635   -0.9920   -5.4600 H   0  0  0  0  0  0  0  0  0  0  0  0
    0.1969   -1.9895   -4.0211 H   0  0  0  0  0  0  0  0  0  0  0  0
    1.4248   -1.2047   -0.8482 H   0  0  0  0  0  0  0  0  0  0  0  0
    1.8130   -3.1608   -3.1325 H   0  0  0  0  0  0  0  0  0  0  0  0
    4.3711   -5.1992   -1.1629 H   0  0  0  0  0  0  0  0  0  0  0  0
    3.5824   -4.7206   -2.6666 H   0  0  0  0  0  0  0  0  0  0  0  0
    3.9524   -3.5029   -1.4507 H   0  0  0  0  0  0  0  0  0  0  0  0
    2.9288   -6.5013    0.0856 H   0  0  0  0  0  0  0  0  0  0  0  0
    1.7123   -7.5554    1.7575 H   0  0  0  0  0  0  0  0  0  0  0  0
    0.0049   -7.2674    2.0625 H   0  0  0  0  0  0  0  0  0  0  0  0
   -0.5470   -8.4429   -0.1019 H   0  0  0  0  0  0  0  0  0  0  0  0
    1.1711   -8.7282   -0.3593 H   0  0  0  0  0  0  0  0  0  0  0  0
    0.3477   -9.4881    1.0071 H   0  0  0  0  0  0  0  0  0  0  0  0
   -2.3198   -5.4712   -0.1202 H   0  0  0  0  0  0  0  0  0  0  0  0
   -1.6492   -6.6542    0.9871 H   0  0  0  0  0  0  0  0  0  0  0  0
   -1.8873   -4.9956    1.5222 H   0  0  0  0  0  0  0  0  0  0  0  0
   -1.8735   -3.3349    0.1481 H   0  0  0  0  0  0  0  0  0  0  0  0
   -0.8141   -1.9259   -2.3173 H   0  0  0  0  0  0  0  0  0  0  0  0
   -1.6744   -0.0107   -3.6417 H   0  0  0  0  0  0  0  0  0  0  0  0
   -0.5191    0.1749   -1.4425 H   0  0  0  0  0  0  0  0  0  0  0  0
   -1.4861    1.5997   -1.0548 H   0  0  0  0  0  0  0  0  0  0  0  0
   -0.3331    1.6469   -2.3982 H   0  0  0  0  0  0  0  0  0  0  0  0
   -2.2345    2.2295   -4.1676 H   0  0  0  0  0  0  0  0  0  0  0  0
   -3.0037    2.5062   -2.6022 H   0  0  0  0  0  0  0  0  0  0  0  0
   -4.6626    2.2593   -4.4919 H   0  0  0  0  0  0  0  0  0  0  0  0
   -4.1218    0.5874   -4.6854 H   0  0  0  0  0  0  0  0  0  0  0  0
   -6.1004    0.6292   -3.2218 H   0  0  0  0  0  0  0  0  0  0  0  0
   -5.3330    1.8353   -2.1761 H   0  0  0  0  0  0  0  0  0  0  0  0
   -6.7932   -2.1777   -0.5085 H   0  0  0  0  0  0  0  0  0  0  0  0
   -7.4046    0.6641   -1.4672 H   0  0  0  0  0  0  0  0  0  0  0  0
   -8.5570   -0.5850   -0.8008 H   0  0  0  0  0  0  0  0  0  0  0  0
  1  2  1  0  0  0  0
  2  3  1  0  0  0  0
  3  4  2  0  0  0  0
  4  5  1  0  0  0  0
  5  6  1  0  0  0  0
  6  7  1  0  0  0  0
  6  8  1  0  0  0  0
  8  9  1  0  0  0  0
  9 10  1  0  0  0  0
  3 11  1  0  0  0  0
 11 12  2  0  0  0  0
 12 13  1  0  0  0  0
 13 14  2  0  0  0  0
 14 15  1  0  0  0  0
 14 16  1  0  0  0  0
 16 17  2  0  0  0  0
 17 18  1  0  0  0  0
 18 19  1  0  0  0  0
 17 20  1  0  0  0  0
 20 21  1  0  0  0  0
 20 22  2  0  0  0  0
 22 23  1  0  0  0  0
 23 24  2  0  0  0  0
 24 25  1  0  0  0  0
 25 26  2  0  0  0  0
 26 27  1  0  0  0  0
 26 28  1  0  0  0  0
 28 29  2  0  0  0  0
 29 30  1  0  0  0  0
 30 31  1  0  0  0  0
 29 32  1  0  0  0  0
 32 33  1  0  0  0  0
 32 34  2  0  0  0  0
 34 35  1  0  0  0  0
 35 36  2  0  0  0  0
 36 37  1  0  0  0  0
 37 38  2  0  0  0  0
 38 39  1  0  0  0  0
 38 40  1  0  0  0  0
 40 41  2  0  0  0  0
 41 42  1  0  0  0  0
 42 43  1  0  0  0  0
 41 44  1  0  0  0  0
 44 45  1  0  0  0  0
 44 46  2  0  0  0  0
 46 47  1  0  0  0  0
 47 48  2  0  0  0  0
 48 49  1  0  0  0  0
 49 50  2  0  0  0  0
 50 51  1  0  0  0  0
 50 52  1  0  0  0  0
 52 53  2  0  0  0  0
 53 54  1  0  0  0  0
 54 55  1  0  0  0  0
 53 56  1  0  0  0  0
 56 57  1  0  0  0  0
 56 58  2  0  0  0  0
 58 59  1  0  0  0  0
 59 60  2  0  0  0  0
 60 61  1  0  0  0  0
 61 62  1  0  0  0  0
 62 63  1  0  0  0  0
 63 64  2  0  0  0  0
 64 65  1  0  0  0  0
 65 66  1  0  0  0  0
 66 67  1  0  0  0  0
 66 68  1  0  0  0  0
 68 69  1  0  0  0  0
 69 70  1  0  0  0  0
 63 71  1  0  0  0  0
 71 72  2  0  0  0  0
  5  1  2  0  0  0  0
 22 13  1  0  0  0  0
 34 25  1  0  0  0  0
 46 37  1  0  0  0  0
 58 49  1  0  0  0  0
 65 61  2  0  0  0  0
 10  4  1  0  0  0  0
 70 64  1  0  0  0  0
  1 73  1  0  0  0  0
  6 74  1  0  0  0  0
  7 75  1  0  0  0  0
  7 76  1  0  0  0  0
  7 77  1  0  0  0  0
  8 78  1  0  0  0  0
  8 79  1  0  0  0  0
  9 80  1  0  0  0  0
  9 81  1  0  0  0  0
 10 82  1  0  0  0  0
 10 83  1  0  0  0  0
 11 84  1  0  0  0  0
 12 85  1  0  0  0  0
 15 86  1  0  0  0  0
 15 87  1  0  0  0  0
 15 88  1  0  0  0  0
 16 89  1  0  0  0  0
 18 90  1  0  0  0  0
 18 91  1  0  0  0  0
 19 92  1  0  0  0  0
 19 93  1  0  0  0  0
 19 94  1  0  0  0  0
 21 95  1  0  0  0  0
 21 96  1  0  0  0  0
 21 97  1  0  0  0  0
 23 98  1  0  0  0  0
 24 99  1  0  0  0  0
 27100  1  0  0  0  0
 27101  1  0  0  0  0
 27102  1  0  0  0  0
 28103  1  0  0  0  0
 30104  1  0  0  0  0
 30105  1  0  0  0  0
 31106  1  0  0  0  0
 31107  1  0  0  0  0
 31108  1  0  0  0  0
 33109  1  0  0  0  0
 33110  1  0  0  0  0
 33111  1  0  0  0  0
 35112  1  0  0  0  0
 36113  1  0  0  0  0
 39114  1  0  0  0  0
 39115  1  0  0  0  0
 39116  1  0  0  0  0
 40117  1  0  0  0  0
 42118  1  0  0  0  0
 42119  1  0  0  0  0
 43120  1  0  0  0  0
 43121  1  0  0  0  0
 43122  1  0  0  0  0
 45123  1  0  0  0  0
 45124  1  0  0  0  0
 45125  1  0  0  0  0
 47126  1  0  0  0  0
 48127  1  0  0  0  0
 51128  1  0  0  0  0
 51129  1  0  0  0  0
 51130  1  0  0  0  0
 52131  1  0  0  0  0
 54132  1  0  0  0  0
 54133  1  0  0  0  0
 55134  1  0  0  0  0
 55135  1  0  0  0  0
 55136  1  0  0  0  0
 57137  1  0  0  0  0
 57138  1  0  0  0  0
 57139  1  0  0  0  0
 59140  1  0  0  0  0
 60141  1  0  0  0  0
 66142  1  0  0  0  0
 67143  1  0  0  0  0
 67144  1  0  0  0  0
 67145  1  0  0  0  0
 68146  1  0  0  0  0
 68147  1  0  0  0  0
 69148  1  0  0  0  0
 69149  1  0  0  0  0
 70150  1  0  0  0  0
 70151  1  0  0  0  0
 71152  1  0  0  0  0
 72153  1  0  0  0  0
 72154  1  0  0  0  0
M  END
