
  xtb     03042212433D
 energy: -399.376152235116 gnorm: 0.000457143350 xtb: 6.4.1 (unknown)
236259  0     0  0            999 V2000
   -3.4217   -0.0377   16.1577 C   0  0  0  0  0  0  0  0  0  0  0  0
   -3.0441    0.2740   14.9019 C   0  0  0  0  0  0  0  0  0  0  0  0
   -3.7008   -0.5171   13.9118 C   0  0  0  0  0  0  0  0  0  0  0  0
   -3.5165   -0.4957   12.5217 C   0  0  0  0  0  0  0  0  0  0  0  0
   -2.5914    0.4533   11.8883 C   0  0  0  0  0  0  0  0  0  0  0  0
   -2.6898    1.8227   12.1283 C   0  0  0  0  0  0  0  0  0  0  0  0
   -1.7988    2.7015   11.5515 C   0  0  0  0  0  0  0  0  0  0  0  0
   -0.7750    2.2548   10.7172 C   0  0  0  0  0  0  0  0  0  0  0  0
    0.2853    3.4916   10.0236 S   0  0  0  0  0  0  0  0  0  0  0  0
    1.9606    2.7354    9.9998 C   0  0  0  0  0  0  0  0  0  0  0  0
    2.4192    2.3600    8.6047 C   0  0  0  0  0  0  0  0  0  0  0  0
   -0.7112    0.8896   10.4597 C   0  0  0  0  0  0  0  0  0  0  0  0
    0.2317    0.3835    9.6321 F   0  0  0  0  0  0  0  0  0  0  0  0
   -1.5938   -0.0027   11.0342 C   0  0  0  0  0  0  0  0  0  0  0  0
   -4.2409   -1.4178   11.7818 C   0  0  0  0  0  0  0  0  0  0  0  0
   -5.1314   -2.3506   12.3660 C   0  0  0  0  0  0  0  0  0  0  0  0
   -5.3034   -2.3845   13.7578 C   0  0  0  0  0  0  0  0  0  0  0  0
   -6.1652   -3.3837   14.3998 C   0  0  0  0  0  0  0  0  0  0  0  0
   -6.0243   -4.7364   14.1041 C   0  0  0  0  0  0  0  0  0  0  0  0
   -6.8072   -5.6923   14.7227 C   0  0  0  0  0  0  0  0  0  0  0  0
   -7.7647   -5.3253   15.6617 C   0  0  0  0  0  0  0  0  0  0  0  0
   -8.8236   -6.4321   16.5263 S   0  0  0  0  0  0  0  0  0  0  0  0
   -8.1905   -8.0844   16.0499 C   0  0  0  0  0  0  0  0  0  0  0  0
   -8.9275   -9.1365   16.8570 C   0  0  0  0  0  0  0  0  0  0  0  0
   -7.9021   -3.9635   15.9413 C   0  0  0  0  0  0  0  0  0  0  0  0
   -7.1242   -3.0035   15.3366 C   0  0  0  0  0  0  0  0  0  0  0  0
   -8.8320   -3.5744   16.8360 F   0  0  0  0  0  0  0  0  0  0  0  0
   -4.5894   -1.4504   14.4963 C   0  0  0  0  0  0  0  0  0  0  0  0
   -4.5939   -1.3084   16.2358 S   0  0  0  0  0  0  0  0  0  0  0  0
   -5.7894   -3.1430   11.3874 C   0  0  0  0  0  0  0  0  0  0  0  0
   -5.4182   -2.8558   10.1090 C   0  0  0  0  0  0  0  0  0  0  0  0
   -4.2298   -1.5622   10.0446 S   0  0  0  0  0  0  0  0  0  0  0  0
   -5.8356   -3.4710    8.8870 C   0  0  0  0  0  0  0  0  0  0  0  0
   -5.7595   -2.5655    7.4080 S   0  0  0  0  0  0  0  0  0  0  0  0
   -6.3087   -3.9389    6.4840 C   0  0  0  0  0  0  0  0  0  0  0  0
   -6.5214   -5.0301    7.2955 C   0  0  0  0  0  0  0  0  0  0  0  0
   -6.2596   -4.7621    8.6607 C   0  0  0  0  0  0  0  0  0  0  0  0
   -6.3702   -5.8137    9.7195 C   0  0  0  0  0  0  0  0  0  0  0  0
   -6.2701   -7.2098    9.1112 C   0  0  0  0  0  0  0  0  0  0  0  0
   -7.2519   -7.3328    7.9536 C   0  0  0  0  0  0  0  0  0  0  0  0
   -6.8371   -6.4116    6.8093 C   0  0  0  0  0  0  0  0  0  0  0  0
   -6.3309   -3.7750    5.0544 C   0  0  0  0  0  0  0  0  0  0  0  0
   -4.9814   -2.9031    4.3788 S   0  0  0  0  0  0  0  0  0  0  0  0
   -5.6422   -3.0258    2.7738 C   0  0  0  0  0  0  0  0  0  0  0  0
   -6.8366   -3.7091    2.7803 C   0  0  0  0  0  0  0  0  0  0  0  0
   -7.2371   -4.1145    4.0768 C   0  0  0  0  0  0  0  0  0  0  0  0
   -8.5712   -4.7516    4.3062 C   0  0  0  0  0  0  0  0  0  0  0  0
   -9.5316   -4.3685    3.1827 C   0  0  0  0  0  0  0  0  0  0  0  0
   -8.9150   -4.7645    1.8462 C   0  0  0  0  0  0  0  0  0  0  0  0
   -7.6753   -3.9199    1.5581 C   0  0  0  0  0  0  0  0  0  0  0  0
   -4.8975   -2.4161    1.7192 C   0  0  0  0  0  0  0  0  0  0  0  0
   -3.9443   -1.4588    1.9016 C   0  0  0  0  0  0  0  0  0  0  0  0
   -3.2684   -1.0772    0.7184 C   0  0  0  0  0  0  0  0  0  0  0  0
   -2.2203   -0.1509    0.5895 C   0  0  0  0  0  0  0  0  0  0  0  0
   -1.7170    0.5641    1.7680 C   0  0  0  0  0  0  0  0  0  0  0  0
   -1.3776   -0.1252    2.9303 C   0  0  0  0  0  0  0  0  0  0  0  0
   -1.0037    0.5474    4.0760 C   0  0  0  0  0  0  0  0  0  0  0  0
   -0.9616    1.9372    4.1040 C   0  0  0  0  0  0  0  0  0  0  0  0
   -0.5570    2.8979    5.5228 S   0  0  0  0  0  0  0  0  0  0  0  0
   -0.9435    1.7917    6.9232 C   0  0  0  0  0  0  0  0  0  0  0  0
   -2.4190    1.4581    7.0221 C   0  0  0  0  0  0  0  0  0  0  0  0
   -1.2438    2.6121    2.9151 C   0  0  0  0  0  0  0  0  0  0  0  0
   -1.1806    3.9574    2.8936 F   0  0  0  0  0  0  0  0  0  0  0  0
   -1.6148    1.9533    1.7640 C   0  0  0  0  0  0  0  0  0  0  0  0
   -1.7152    0.0372   -0.6872 C   0  0  0  0  0  0  0  0  0  0  0  0
   -2.1931   -0.6716   -1.8185 C   0  0  0  0  0  0  0  0  0  0  0  0
   -3.2430   -1.5979   -1.6874 C   0  0  0  0  0  0  0  0  0  0  0  0
   -3.7289   -2.3797   -2.8309 C   0  0  0  0  0  0  0  0  0  0  0  0
   -2.8453   -3.0806   -3.6514 C   0  0  0  0  0  0  0  0  0  0  0  0
   -3.3130   -3.8434   -4.7004 C   0  0  0  0  0  0  0  0  0  0  0  0
   -4.6750   -3.9322   -4.9765 C   0  0  0  0  0  0  0  0  0  0  0  0
   -5.1825   -4.9243   -6.3550 S   0  0  0  0  0  0  0  0  0  0  0  0
   -6.6039   -5.8670   -5.6927 C   0  0  0  0  0  0  0  0  0  0  0  0
   -6.2268   -6.6681   -4.4631 C   0  0  0  0  0  0  0  0  0  0  0  0
   -5.5436   -3.2055   -4.1689 C   0  0  0  0  0  0  0  0  0  0  0  0
   -5.0908   -2.4540   -3.1039 C   0  0  0  0  0  0  0  0  0  0  0  0
   -6.8732   -3.2121   -4.4072 F   0  0  0  0  0  0  0  0  0  0  0  0
   -3.7666   -1.7637   -0.4152 C   0  0  0  0  0  0  0  0  0  0  0  0
   -5.0447   -2.8698    0.0303 S   0  0  0  0  0  0  0  0  0  0  0  0
   -1.4841   -0.3241   -2.9936 C   0  0  0  0  0  0  0  0  0  0  0  0
   -0.4778    0.5742   -2.7815 C   0  0  0  0  0  0  0  0  0  0  0  0
   -0.3851    1.0824   -1.1091 S   0  0  0  0  0  0  0  0  0  0  0  0
    0.4750    1.0282   -3.7442 C   0  0  0  0  0  0  0  0  0  0  0  0
    0.6249    0.5581   -5.0171 C   0  0  0  0  0  0  0  0  0  0  0  0
    1.7257    1.1214   -5.7061 C   0  0  0  0  0  0  0  0  0  0  0  0
    2.1868    0.8085   -6.9967 C   0  0  0  0  0  0  0  0  0  0  0  0
    1.5373   -0.2359   -7.7978 C   0  0  0  0  0  0  0  0  0  0  0  0
    1.1557   -0.0074   -9.1183 C   0  0  0  0  0  0  0  0  0  0  0  0
    0.5046   -0.9854   -9.8403 C   0  0  0  0  0  0  0  0  0  0  0  0
    0.2171   -2.2287   -9.2824 C   0  0  0  0  0  0  0  0  0  0  0  0
   -0.6193   -3.4199  -10.2896 S   0  0  0  0  0  0  0  0  0  0  0  0
   -1.8836   -4.1051   -9.1541 C   0  0  0  0  0  0  0  0  0  0  0  0
   -2.7795   -3.0249   -8.5840 C   0  0  0  0  0  0  0  0  0  0  0  0
    0.6475   -2.4602   -7.9796 C   0  0  0  0  0  0  0  0  0  0  0  0
    0.4505   -3.6600   -7.3873 F   0  0  0  0  0  0  0  0  0  0  0  0
    1.2855   -1.4865   -7.2399 C   0  0  0  0  0  0  0  0  0  0  0  0
    3.2892    1.5154   -7.4486 C   0  0  0  0  0  0  0  0  0  0  0  0
    3.9596    2.4896   -6.6664 C   0  0  0  0  0  0  0  0  0  0  0  0
    3.5091    2.7887   -5.3699 C   0  0  0  0  0  0  0  0  0  0  0  0
    4.1959    3.7760   -4.5286 C   0  0  0  0  0  0  0  0  0  0  0  0
    5.5703    3.7128   -4.3198 C   0  0  0  0  0  0  0  0  0  0  0  0
    6.2192    4.6463   -3.5346 C   0  0  0  0  0  0  0  0  0  0  0  0
    5.5145    5.6805   -2.9292 C   0  0  0  0  0  0  0  0  0  0  0  0
    6.2072    6.9610   -1.9401 S   0  0  0  0  0  0  0  0  0  0  0  0
    7.9250    6.4231   -1.6354 C   0  0  0  0  0  0  0  0  0  0  0  0
    8.0020    5.2764   -0.6451 C   0  0  0  0  0  0  0  0  0  0  0  0
    4.1350    5.7288   -3.1449 C   0  0  0  0  0  0  0  0  0  0  0  0
    3.4760    4.8023   -3.9197 C   0  0  0  0  0  0  0  0  0  0  0  0
    3.4223    6.7239   -2.5829 F   0  0  0  0  0  0  0  0  0  0  0  0
    2.3927    2.0971   -4.9244 C   0  0  0  0  0  0  0  0  0  0  0  0
    1.6713    2.2406   -3.3424 S   0  0  0  0  0  0  0  0  0  0  0  0
    5.0623    3.0522   -7.3585 C   0  0  0  0  0  0  0  0  0  0  0  0
    5.2613    2.5199   -8.5964 C   0  0  0  0  0  0  0  0  0  0  0  0
    4.0697    1.2951   -8.9935 S   0  0  0  0  0  0  0  0  0  0  0  0
    6.2967    2.8320   -9.5258 C   0  0  0  0  0  0  0  0  0  0  0  0
    6.4692    2.3330  -10.7811 C   0  0  0  0  0  0  0  0  0  0  0  0
    7.6269    2.8269  -11.4368 C   0  0  0  0  0  0  0  0  0  0  0  0
    8.0988    2.5039  -12.7186 C   0  0  0  0  0  0  0  0  0  0  0  0
    7.4242    1.5004  -13.5500 C   0  0  0  0  0  0  0  0  0  0  0  0
    7.1114    0.2449  -13.0363 C   0  0  0  0  0  0  0  0  0  0  0  0
    6.4833   -0.7111  -13.8109 C   0  0  0  0  0  0  0  0  0  0  0  0
    6.1463   -0.4465  -15.1334 C   0  0  0  0  0  0  0  0  0  0  0  0
    5.3250   -1.5533  -16.2288 S   0  0  0  0  0  0  0  0  0  0  0  0
    5.3281   -3.1522  -15.3474 C   0  0  0  0  0  0  0  0  0  0  0  0
    6.7013   -3.7968  -15.3246 C   0  0  0  0  0  0  0  0  0  0  0  0
    6.4652    0.8177  -15.6347 C   0  0  0  0  0  0  0  0  0  0  0  0
    6.1429    1.1137  -16.9095 F   0  0  0  0  0  0  0  0  0  0  0  0
    7.0917    1.7782  -14.8744 C   0  0  0  0  0  0  0  0  0  0  0  0
    9.2435    3.1648  -13.1438 C   0  0  0  0  0  0  0  0  0  0  0  0
    9.9508    4.0874  -12.3361 C   0  0  0  0  0  0  0  0  0  0  0  0
    9.4955    4.3875  -11.0439 C   0  0  0  0  0  0  0  0  0  0  0  0
   10.2344    5.2917  -10.1531 C   0  0  0  0  0  0  0  0  0  0  0  0
   11.5922    5.0969   -9.9044 C   0  0  0  0  0  0  0  0  0  0  0  0
   12.2766    5.9356   -9.0513 C   0  0  0  0  0  0  0  0  0  0  0  0
   11.6386    6.9939   -8.4063 C   0  0  0  0  0  0  0  0  0  0  0  0
   12.6125    7.9629   -7.2916 S   0  0  0  0  0  0  0  0  0  0  0  0
   12.0181    9.6771   -7.5398 C   0  0  0  0  0  0  0  0  0  0  0  0
   12.1514   10.1211   -8.9822 C   0  0  0  0  0  0  0  0  0  0  0  0
   10.2781    7.1607   -8.6451 C   0  0  0  0  0  0  0  0  0  0  0  0
    9.5841    6.3392   -9.5103 C   0  0  0  0  0  0  0  0  0  0  0  0
    9.5817    8.1424   -8.0314 F   0  0  0  0  0  0  0  0  0  0  0  0
    8.3270    3.7619  -10.6352 C   0  0  0  0  0  0  0  0  0  0  0  0
    7.5598    3.9644   -9.0806 S   0  0  0  0  0  0  0  0  0  0  0  0
   11.0885    4.6163  -13.0158 C   0  0  0  0  0  0  0  0  0  0  0  0
   11.2468    4.1019  -14.2519 C   0  0  0  0  0  0  0  0  0  0  0  0
   10.0322    2.9489  -14.6856 S   0  0  0  0  0  0  0  0  0  0  0  0
   -3.0847    0.4025   17.0759 H   0  0  0  0  0  0  0  0  0  0  0  0
   -2.3143    1.0273   14.6669 H   0  0  0  0  0  0  0  0  0  0  0  0
   -3.4771    2.1968   12.7648 H   0  0  0  0  0  0  0  0  0  0  0  0
   -1.8751    3.7610   11.7404 H   0  0  0  0  0  0  0  0  0  0  0  0
    1.9458    1.8804   10.6718 H   0  0  0  0  0  0  0  0  0  0  0  0
    2.6036    3.5085   10.4218 H   0  0  0  0  0  0  0  0  0  0  0  0
    1.8299    1.5377    8.2104 H   0  0  0  0  0  0  0  0  0  0  0  0
    2.3273    3.2098    7.9321 H   0  0  0  0  0  0  0  0  0  0  0  0
    3.4624    2.0519    8.6376 H   0  0  0  0  0  0  0  0  0  0  0  0
   -1.4866   -1.0534   10.8138 H   0  0  0  0  0  0  0  0  0  0  0  0
   -5.2709   -5.0497   13.3970 H   0  0  0  0  0  0  0  0  0  0  0  0
   -6.6622   -6.7295   14.4681 H   0  0  0  0  0  0  0  0  0  0  0  0
   -7.1221   -8.1067   16.2647 H   0  0  0  0  0  0  0  0  0  0  0  0
   -8.3643   -8.2213   14.9822 H   0  0  0  0  0  0  0  0  0  0  0  0
   -8.7681   -8.9793   17.9211 H   0  0  0  0  0  0  0  0  0  0  0  0
   -8.5657  -10.1276   16.5915 H   0  0  0  0  0  0  0  0  0  0  0  0
   -9.9957   -9.0894   16.6588 H   0  0  0  0  0  0  0  0  0  0  0  0
   -7.2803   -1.9664   15.5871 H   0  0  0  0  0  0  0  0  0  0  0  0
   -6.5535   -3.8543   11.6370 H   0  0  0  0  0  0  0  0  0  0  0  0
   -5.5865   -5.6647   10.4660 H   0  0  0  0  0  0  0  0  0  0  0  0
   -7.3351   -5.7121   10.2280 H   0  0  0  0  0  0  0  0  0  0  0  0
   -5.2549   -7.3802    8.7467 H   0  0  0  0  0  0  0  0  0  0  0  0
   -6.4855   -7.9584    9.8758 H   0  0  0  0  0  0  0  0  0  0  0  0
   -7.2888   -8.3622    7.5926 H   0  0  0  0  0  0  0  0  0  0  0  0
   -8.2519   -7.0612    8.2994 H   0  0  0  0  0  0  0  0  0  0  0  0
   -7.6239   -6.3826    6.0582 H   0  0  0  0  0  0  0  0  0  0  0  0
   -5.9414   -6.8134    6.3231 H   0  0  0  0  0  0  0  0  0  0  0  0
   -8.9633   -4.4493    5.2799 H   0  0  0  0  0  0  0  0  0  0  0  0
   -8.4666   -5.8420    4.3053 H   0  0  0  0  0  0  0  0  0  0  0  0
  -10.4855   -4.8786    3.3267 H   0  0  0  0  0  0  0  0  0  0  0  0
   -9.7144   -3.2923    3.2008 H   0  0  0  0  0  0  0  0  0  0  0  0
   -8.6413   -5.8215    1.8807 H   0  0  0  0  0  0  0  0  0  0  0  0
   -9.6359   -4.6330    1.0381 H   0  0  0  0  0  0  0  0  0  0  0  0
   -7.9773   -2.9394    1.1759 H   0  0  0  0  0  0  0  0  0  0  0  0
   -7.0752   -4.3938    0.7770 H   0  0  0  0  0  0  0  0  0  0  0  0
   -3.7439   -1.0280    2.8657 H   0  0  0  0  0  0  0  0  0  0  0  0
   -1.3920   -1.2047    2.9333 H   0  0  0  0  0  0  0  0  0  0  0  0
   -0.7463   -0.0204    4.9556 H   0  0  0  0  0  0  0  0  0  0  0  0
   -0.6244    2.3790    7.7832 H   0  0  0  0  0  0  0  0  0  0  0  0
   -0.3221    0.8998    6.8547 H   0  0  0  0  0  0  0  0  0  0  0  0
   -2.5997    0.8391    7.8998 H   0  0  0  0  0  0  0  0  0  0  0  0
   -2.7608    0.9158    6.1427 H   0  0  0  0  0  0  0  0  0  0  0  0
   -3.0045    2.3697    7.1153 H   0  0  0  0  0  0  0  0  0  0  0  0
   -1.8571    2.5297    0.8852 H   0  0  0  0  0  0  0  0  0  0  0  0
   -1.7873   -3.0562   -3.4400 H   0  0  0  0  0  0  0  0  0  0  0  0
   -2.6259   -4.3948   -5.3234 H   0  0  0  0  0  0  0  0  0  0  0  0
   -7.4226   -5.1780   -5.4965 H   0  0  0  0  0  0  0  0  0  0  0  0
   -6.8790   -6.5199   -6.5210 H   0  0  0  0  0  0  0  0  0  0  0  0
   -7.0741   -7.2736   -4.1473 H   0  0  0  0  0  0  0  0  0  0  0  0
   -5.9485   -6.0106   -3.6410 H   0  0  0  0  0  0  0  0  0  0  0  0
   -5.3873   -7.3262   -4.6785 H   0  0  0  0  0  0  0  0  0  0  0  0
   -5.8087   -1.9079   -2.5124 H   0  0  0  0  0  0  0  0  0  0  0  0
   -1.7223   -0.7229   -3.9620 H   0  0  0  0  0  0  0  0  0  0  0  0
   -0.0309   -0.1724   -5.4524 H   0  0  0  0  0  0  0  0  0  0  0  0
    1.3407    0.9547   -9.5699 H   0  0  0  0  0  0  0  0  0  0  0  0
    0.1937   -0.7978  -10.8561 H   0  0  0  0  0  0  0  0  0  0  0  0
   -2.4483   -4.7873   -9.7887 H   0  0  0  0  0  0  0  0  0  0  0  0
   -1.3862   -4.6778   -8.3747 H   0  0  0  0  0  0  0  0  0  0  0  0
   -2.2171   -2.3499   -7.9407 H   0  0  0  0  0  0  0  0  0  0  0  0
   -3.5711   -3.4833   -7.9950 H   0  0  0  0  0  0  0  0  0  0  0  0
   -3.2313   -2.4424   -9.3840 H   0  0  0  0  0  0  0  0  0  0  0  0
    1.6120   -1.7244   -6.2391 H   0  0  0  0  0  0  0  0  0  0  0  0
    6.1402    2.9088   -4.7610 H   0  0  0  0  0  0  0  0  0  0  0  0
    7.2860    4.5618   -3.4062 H   0  0  0  0  0  0  0  0  0  0  0  0
    8.4024    7.3155   -1.2306 H   0  0  0  0  0  0  0  0  0  0  0  0
    8.3917    6.1857   -2.5904 H   0  0  0  0  0  0  0  0  0  0  0  0
    9.0422    5.0106   -0.4661 H   0  0  0  0  0  0  0  0  0  0  0  0
    7.5495    5.5678    0.2998 H   0  0  0  0  0  0  0  0  0  0  0  0
    7.4774    4.3993   -1.0180 H   0  0  0  0  0  0  0  0  0  0  0  0
    2.4113    4.8997   -4.0615 H   0  0  0  0  0  0  0  0  0  0  0  0
    5.6828    3.8337   -6.9577 H   0  0  0  0  0  0  0  0  0  0  0  0
    5.7771    1.6430  -11.2297 H   0  0  0  0  0  0  0  0  0  0  0  0
    7.3831    0.0023  -12.0199 H   0  0  0  0  0  0  0  0  0  0  0  0
    6.2544   -1.6664  -13.3678 H   0  0  0  0  0  0  0  0  0  0  0  0
    4.9184   -3.0011  -14.3496 H   0  0  0  0  0  0  0  0  0  0  0  0
    4.6266   -3.7588  -15.9200 H   0  0  0  0  0  0  0  0  0  0  0  0
    6.6505   -4.7578  -14.8161 H   0  0  0  0  0  0  0  0  0  0  0  0
    7.4227   -3.1673  -14.8080 H   0  0  0  0  0  0  0  0  0  0  0  0
    7.0555   -3.9586  -16.3399 H   0  0  0  0  0  0  0  0  0  0  0  0
    7.2978    2.7413  -15.3135 H   0  0  0  0  0  0  0  0  0  0  0  0
   12.1072    4.2719  -10.3725 H   0  0  0  0  0  0  0  0  0  0  0  0
   13.3277    5.7827   -8.8611 H   0  0  0  0  0  0  0  0  0  0  0  0
   12.6676   10.2606   -6.8870 H   0  0  0  0  0  0  0  0  0  0  0  0
   10.9940    9.7536   -7.1816 H   0  0  0  0  0  0  0  0  0  0  0  0
   11.8667   11.1676   -9.0702 H   0  0  0  0  0  0  0  0  0  0  0  0
   11.5035    9.5343   -9.6309 H   0  0  0  0  0  0  0  0  0  0  0  0
   13.1781   10.0074   -9.3240 H   0  0  0  0  0  0  0  0  0  0  0  0
    8.5350    6.5299   -9.6737 H   0  0  0  0  0  0  0  0  0  0  0  0
   11.7393    5.3575  -12.5887 H   0  0  0  0  0  0  0  0  0  0  0  0
   12.0129    4.3295  -14.9672 H   0  0  0  0  0  0  0  0  0  0  0  0
  1  2  2  0  0  0  0
  2  3  1  0  0  0  0
  3  4  2  0  0  0  0
  4  5  1  0  0  0  0
  5  6  2  0  0  0  0
  6  7  1  0  0  0  0
  7  8  2  0  0  0  0
  8  9  1  0  0  0  0
  9 10  1  0  0  0  0
 10 11  1  0  0  0  0
  8 12  1  0  0  0  0
 12 13  1  0  0  0  0
 12 14  2  0  0  0  0
  4 15  1  0  0  0  0
 15 16  2  0  0  0  0
 16 17  1  0  0  0  0
 17 18  1  0  0  0  0
 18 19  2  0  0  0  0
 19 20  1  0  0  0  0
 20 21  2  0  0  0  0
 21 22  1  0  0  0  0
 22 23  1  0  0  0  0
 23 24  1  0  0  0  0
 21 25  1  0  0  0  0
 25 26  2  0  0  0  0
 25 27  1  0  0  0  0
 17 28  2  0  0  0  0
 28 29  1  0  0  0  0
 16 30  1  0  0  0  0
 30 31  2  0  0  0  0
 31 32  1  0  0  0  0
 31 33  1  0  0  0  0
 33 34  1  0  0  0  0
 34 35  1  0  0  0  0
 35 36  2  0  0  0  0
 36 37  1  0  0  0  0
 37 38  1  0  0  0  0
 38 39  1  0  0  0  0
 39 40  1  0  0  0  0
 40 41  1  0  0  0  0
 35 42  1  0  0  0  0
 42 43  1  0  0  0  0
 43 44  1  0  0  0  0
 44 45  2  0  0  0  0
 45 46  1  0  0  0  0
 46 47  1  0  0  0  0
 47 48  1  0  0  0  0
 48 49  1  0  0  0  0
 49 50  1  0  0  0  0
 44 51  1  0  0  0  0
 51 52  2  0  0  0  0
 52 53  1  0  0  0  0
 53 54  2  0  0  0  0
 54 55  1  0  0  0  0
 55 56  2  0  0  0  0
 56 57  1  0  0  0  0
 57 58  2  0  0  0  0
 58 59  1  0  0  0  0
 59 60  1  0  0  0  0
 60 61  1  0  0  0  0
 58 62  1  0  0  0  0
 62 63  1  0  0  0  0
 62 64  2  0  0  0  0
 54 65  1  0  0  0  0
 65 66  2  0  0  0  0
 66 67  1  0  0  0  0
 67 68  1  0  0  0  0
 68 69  2  0  0  0  0
 69 70  1  0  0  0  0
 70 71  2  0  0  0  0
 71 72  1  0  0  0  0
 72 73  1  0  0  0  0
 73 74  1  0  0  0  0
 71 75  1  0  0  0  0
 75 76  2  0  0  0  0
 75 77  1  0  0  0  0
 67 78  2  0  0  0  0
 78 79  1  0  0  0  0
 66 80  1  0  0  0  0
 80 81  2  0  0  0  0
 81 82  1  0  0  0  0
 81 83  1  0  0  0  0
 83 84  2  0  0  0  0
 84 85  1  0  0  0  0
 85 86  2  0  0  0  0
 86 87  1  0  0  0  0
 87 88  2  0  0  0  0
 88 89  1  0  0  0  0
 89 90  2  0  0  0  0
 90 91  1  0  0  0  0
 91 92  1  0  0  0  0
 92 93  1  0  0  0  0
 90 94  1  0  0  0  0
 94 95  1  0  0  0  0
 94 96  2  0  0  0  0
 86 97  1  0  0  0  0
 97 98  2  0  0  0  0
 98 99  1  0  0  0  0
 99100  1  0  0  0  0
100101  2  0  0  0  0
101102  1  0  0  0  0
102103  2  0  0  0  0
103104  1  0  0  0  0
104105  1  0  0  0  0
105106  1  0  0  0  0
103107  1  0  0  0  0
107108  2  0  0  0  0
107109  1  0  0  0  0
 99110  2  0  0  0  0
110111  1  0  0  0  0
 98112  1  0  0  0  0
112113  2  0  0  0  0
113114  1  0  0  0  0
113115  1  0  0  0  0
115116  2  0  0  0  0
116117  1  0  0  0  0
117118  2  0  0  0  0
118119  1  0  0  0  0
119120  2  0  0  0  0
120121  1  0  0  0  0
121122  2  0  0  0  0
122123  1  0  0  0  0
123124  1  0  0  0  0
124125  1  0  0  0  0
122126  1  0  0  0  0
126127  1  0  0  0  0
126128  2  0  0  0  0
118129  1  0  0  0  0
129130  2  0  0  0  0
130131  1  0  0  0  0
131132  1  0  0  0  0
132133  2  0  0  0  0
133134  1  0  0  0  0
134135  2  0  0  0  0
135136  1  0  0  0  0
136137  1  0  0  0  0
137138  1  0  0  0  0
135139  1  0  0  0  0
139140  2  0  0  0  0
139141  1  0  0  0  0
131142  2  0  0  0  0
142143  1  0  0  0  0
130144  1  0  0  0  0
144145  2  0  0  0  0
145146  1  0  0  0  0
 29  1  1  0  0  0  0
 37 33  2  0  0  0  0
 46 42  2  0  0  0  0
 79 51  1  0  0  0  0
111 83  1  0  0  0  0
143115  1  0  0  0  0
 28  3  1  0  0  0  0
 41 36  1  0  0  0  0
 50 45  1  0  0  0  0
 78 53  1  0  0  0  0
110 85  1  0  0  0  0
142117  1  0  0  0  0
 14  5  1  0  0  0  0
 32 15  1  0  0  0  0
 64 55  1  0  0  0  0
 82 65  1  0  0  0  0
 96 87  1  0  0  0  0
114 97  1  0  0  0  0
128119  1  0  0  0  0
146129  1  0  0  0  0
 26 18  1  0  0  0  0
 76 68  1  0  0  0  0
108100  1  0  0  0  0
140132  1  0  0  0  0
  1147  1  0  0  0  0
  2148  1  0  0  0  0
  6149  1  0  0  0  0
  7150  1  0  0  0  0
 10151  1  0  0  0  0
 10152  1  0  0  0  0
 11153  1  0  0  0  0
 11154  1  0  0  0  0
 11155  1  0  0  0  0
 14156  1  0  0  0  0
 19157  1  0  0  0  0
 20158  1  0  0  0  0
 23159  1  0  0  0  0
 23160  1  0  0  0  0
 24161  1  0  0  0  0
 24162  1  0  0  0  0
 24163  1  0  0  0  0
 26164  1  0  0  0  0
 30165  1  0  0  0  0
 38166  1  0  0  0  0
 38167  1  0  0  0  0
 39168  1  0  0  0  0
 39169  1  0  0  0  0
 40170  1  0  0  0  0
 40171  1  0  0  0  0
 41172  1  0  0  0  0
 41173  1  0  0  0  0
 47174  1  0  0  0  0
 47175  1  0  0  0  0
 48176  1  0  0  0  0
 48177  1  0  0  0  0
 49178  1  0  0  0  0
 49179  1  0  0  0  0
 50180  1  0  0  0  0
 50181  1  0  0  0  0
 52182  1  0  0  0  0
 56183  1  0  0  0  0
 57184  1  0  0  0  0
 60185  1  0  0  0  0
 60186  1  0  0  0  0
 61187  1  0  0  0  0
 61188  1  0  0  0  0
 61189  1  0  0  0  0
 64190  1  0  0  0  0
 69191  1  0  0  0  0
 70192  1  0  0  0  0
 73193  1  0  0  0  0
 73194  1  0  0  0  0
 74195  1  0  0  0  0
 74196  1  0  0  0  0
 74197  1  0  0  0  0
 76198  1  0  0  0  0
 80199  1  0  0  0  0
 84200  1  0  0  0  0
 88201  1  0  0  0  0
 89202  1  0  0  0  0
 92203  1  0  0  0  0
 92204  1  0  0  0  0
 93205  1  0  0  0  0
 93206  1  0  0  0  0
 93207  1  0  0  0  0
 96208  1  0  0  0  0
101209  1  0  0  0  0
102210  1  0  0  0  0
105211  1  0  0  0  0
105212  1  0  0  0  0
106213  1  0  0  0  0
106214  1  0  0  0  0
106215  1  0  0  0  0
108216  1  0  0  0  0
112217  1  0  0  0  0
116218  1  0  0  0  0
120219  1  0  0  0  0
121220  1  0  0  0  0
124221  1  0  0  0  0
124222  1  0  0  0  0
125223  1  0  0  0  0
125224  1  0  0  0  0
125225  1  0  0  0  0
128226  1  0  0  0  0
133227  1  0  0  0  0
134228  1  0  0  0  0
137229  1  0  0  0  0
137230  1  0  0  0  0
138231  1  0  0  0  0
138232  1  0  0  0  0
138233  1  0  0  0  0
140234  1  0  0  0  0
144235  1  0  0  0  0
145236  1  0  0  0  0
M  END
