236

C         -3.42170       -0.03770       16.15770
C         -3.04410        0.27400       14.90190
C         -3.70080       -0.51710       13.91180
C         -3.51650       -0.49570       12.52170
C         -2.59140        0.45330       11.88830
C         -2.68980        1.82270       12.12830
C         -1.79880        2.70150       11.55150
C         -0.77500        2.25480       10.71720
S          0.28530        3.49160       10.02360
C          1.96060        2.73540        9.99980
C          2.41920        2.36000        8.60470
C         -0.71120        0.88960       10.45970
F          0.23170        0.38350        9.63210
C         -1.59380       -0.00270       11.03420
C         -4.24090       -1.41780       11.78180
C         -5.13140       -2.35060       12.36600
C         -5.30340       -2.38450       13.75780
C         -6.16520       -3.38370       14.39980
C         -6.02430       -4.73640       14.10410
C         -6.80720       -5.69230       14.72270
C         -7.76470       -5.32530       15.66170
S         -8.82360       -6.43210       16.52630
C         -8.19050       -8.08440       16.04990
C         -8.92750       -9.13650       16.85700
C         -7.90210       -3.96350       15.94130
C         -7.12420       -3.00350       15.33660
F         -8.83200       -3.57440       16.83600
C         -4.58940       -1.45040       14.49630
S         -4.59390       -1.30840       16.23580
C         -5.78940       -3.14300       11.38740
C         -5.41820       -2.85580       10.10900
S         -4.22980       -1.56220       10.04460
C         -5.83560       -3.47100        8.88700
S         -5.75950       -2.56550        7.40800
C         -6.30870       -3.93890        6.48400
C         -6.52140       -5.03010        7.29550
C         -6.25960       -4.76210        8.66070
C         -6.37020       -5.81370        9.71950
C         -6.27010       -7.20980        9.11120
C         -7.25190       -7.33280        7.95360
C         -6.83710       -6.41160        6.80930
C         -6.33090       -3.77500        5.05440
S         -4.98140       -2.90310        4.37880
C         -5.64220       -3.02580        2.77380
C         -6.83660       -3.70910        2.78030
C         -7.23710       -4.11450        4.07680
C         -8.57120       -4.75160        4.30620
C         -9.53160       -4.36850        3.18270
C         -8.91500       -4.76450        1.84620
C         -7.67530       -3.91990        1.55810
C         -4.89750       -2.41610        1.71920
C         -3.94430       -1.45880        1.90160
C         -3.26840       -1.07720        0.71840
C         -2.22030       -0.15090        0.58950
C         -1.71700        0.56410        1.76800
C         -1.37760       -0.12520        2.93030
C         -1.00370        0.54740        4.07600
C         -0.96160        1.93720        4.10400
S         -0.55700        2.89790        5.52280
C         -0.94350        1.79170        6.92320
C         -2.41900        1.45810        7.02210
C         -1.24380        2.61210        2.91510
F         -1.18060        3.95740        2.89360
C         -1.61480        1.95330        1.76400
C         -1.71520        0.03720       -0.68720
C         -2.19310       -0.67160       -1.81850
C         -3.24300       -1.59790       -1.68740
C         -3.72890       -2.37970       -2.83090
C         -2.84530       -3.08060       -3.65140
C         -3.31300       -3.84340       -4.70040
C         -4.67500       -3.93220       -4.97650
S         -5.18250       -4.92430       -6.35500
C         -6.60390       -5.86700       -5.69270
C         -6.22680       -6.66810       -4.46310
C         -5.54360       -3.20550       -4.16890
C         -5.09080       -2.45400       -3.10390
F         -6.87320       -3.21210       -4.40720
C         -3.76660       -1.76370       -0.41520
S         -5.04470       -2.86980        0.03030
C         -1.48410       -0.32410       -2.99360
C         -0.47780        0.57420       -2.78150
S         -0.38510        1.08240       -1.10910
C          0.47500        1.02820       -3.74420
C          0.62490        0.55810       -5.01710
C          1.72570        1.12140       -5.70610
C          2.18680        0.80850       -6.99670
C          1.53730       -0.23590       -7.79780
C          1.15570       -0.00740       -9.11830
C          0.50460       -0.98540       -9.84030
C          0.21710       -2.22870       -9.28240
S         -0.61930       -3.41990      -10.28960
C         -1.88360       -4.10510       -9.15410
C         -2.77950       -3.02490       -8.58400
C          0.64750       -2.46020       -7.97960
F          0.45050       -3.66000       -7.38730
C          1.28550       -1.48650       -7.23990
C          3.28920        1.51540       -7.44860
C          3.95960        2.48960       -6.66640
C          3.50910        2.78870       -5.36990
C          4.19590        3.77600       -4.52860
C          5.57030        3.71280       -4.31980
C          6.21920        4.64630       -3.53460
C          5.51450        5.68050       -2.92920
S          6.20720        6.96100       -1.94010
C          7.92500        6.42310       -1.63540
C          8.00200        5.27640       -0.64510
C          4.13500        5.72880       -3.14490
C          3.47600        4.80230       -3.91970
F          3.42230        6.72390       -2.58290
C          2.39270        2.09710       -4.92440
S          1.67130        2.24060       -3.34240
C          5.06230        3.05220       -7.35850
C          5.26130        2.51990       -8.59640
S          4.06970        1.29510       -8.99350
C          6.29670        2.83200       -9.52580
C          6.46920        2.33300      -10.78110
C          7.62690        2.82690      -11.43680
C          8.09880        2.50390      -12.71860
C          7.42420        1.50040      -13.55000
C          7.11140        0.24490      -13.03630
C          6.48330       -0.71110      -13.81090
C          6.14630       -0.44650      -15.13340
S          5.32500       -1.55330      -16.22880
C          5.32810       -3.15220      -15.34740
C          6.70130       -3.79680      -15.32460
C          6.46520        0.81770      -15.63470
F          6.14290        1.11370      -16.90950
C          7.09170        1.77820      -14.87440
C          9.24350        3.16480      -13.14380
C          9.95080        4.08740      -12.33610
C          9.49550        4.38750      -11.04390
C         10.23440        5.29170      -10.15310
C         11.59220        5.09690       -9.90440
C         12.27660        5.93560       -9.05130
C         11.63860        6.99390       -8.40630
S         12.61250        7.96290       -7.29160
C         12.01810        9.67710       -7.53980
C         12.15140       10.12110       -8.98220
C         10.27810        7.16070       -8.64510
C          9.58410        6.33920       -9.51030
F          9.58170        8.14240       -8.03140
C          8.32700        3.76190      -10.63520
S          7.55980        3.96440       -9.08060
C         11.08850        4.61630      -13.01580
C         11.24680        4.10190      -14.25190
S         10.03220        2.94890      -14.68560
H         -3.08470        0.40250       17.07590
H         -2.31430        1.02730       14.66690
H         -3.47710        2.19680       12.76480
H         -1.87510        3.76100       11.74040
H          1.94580        1.88040       10.67180
H          2.60360        3.50850       10.42180
H          1.82990        1.53770        8.21040
H          2.32730        3.20980        7.93210
H          3.46240        2.05190        8.63760
H         -1.48660       -1.05340       10.81380
H         -5.27090       -5.04970       13.39700
H         -6.66220       -6.72950       14.46810
H         -7.12210       -8.10670       16.26470
H         -8.36430       -8.22130       14.98220
H         -8.76810       -8.97930       17.92110
H         -8.56570      -10.12760       16.59150
H         -9.99570       -9.08940       16.65880
H         -7.28030       -1.96640       15.58710
H         -6.55350       -3.85430       11.63700
H         -5.58650       -5.66470       10.46600
H         -7.33510       -5.71210       10.22800
H         -5.25490       -7.38020        8.74670
H         -6.48550       -7.95840        9.87580
H         -7.28880       -8.36220        7.59260
H         -8.25190       -7.06120        8.29940
H         -7.62390       -6.38260        6.05820
H         -5.94140       -6.81340        6.32310
H         -8.96330       -4.44930        5.27990
H         -8.46660       -5.84200        4.30530
H        -10.48550       -4.87860        3.32670
H         -9.71440       -3.29230        3.20080
H         -8.64130       -5.82150        1.88070
H         -9.63590       -4.63300        1.03810
H         -7.97730       -2.93940        1.17590
H         -7.07520       -4.39380        0.77700
H         -3.74390       -1.02800        2.86570
H         -1.39200       -1.20470        2.93330
H         -0.74630       -0.02040        4.95560
H         -0.62440        2.37900        7.78320
H         -0.32210        0.89980        6.85470
H         -2.59970        0.83910        7.89980
H         -2.76080        0.91580        6.14270
H         -3.00450        2.36970        7.11530
H         -1.85710        2.52970        0.88520
H         -1.78730       -3.05620       -3.44000
H         -2.62590       -4.39480       -5.32340
H         -7.42260       -5.17800       -5.49650
H         -6.87900       -6.51990       -6.52100
H         -7.07410       -7.27360       -4.14730
H         -5.94850       -6.01060       -3.64100
H         -5.38730       -7.32620       -4.67850
H         -5.80870       -1.90790       -2.51240
H         -1.72230       -0.72290       -3.96200
H         -0.03090       -0.17240       -5.45240
H          1.34070        0.95470       -9.56990
H          0.19370       -0.79780      -10.85610
H         -2.44830       -4.78730       -9.78870
H         -1.38620       -4.67780       -8.37470
H         -2.21710       -2.34990       -7.94070
H         -3.57110       -3.48330       -7.99500
H         -3.23130       -2.44240       -9.38400
H          1.61200       -1.72440       -6.23910
H          6.14020        2.90880       -4.76100
H          7.28600        4.56180       -3.40620
H          8.40240        7.31550       -1.23060
H          8.39170        6.18570       -2.59040
H          9.04220        5.01060       -0.46610
H          7.54950        5.56780        0.29980
H          7.47740        4.39930       -1.01800
H          2.41130        4.89970       -4.06150
H          5.68280        3.83370       -6.95770
H          5.77710        1.64300      -11.22970
H          7.38310        0.00230      -12.01990
H          6.25440       -1.66640      -13.36780
H          4.91840       -3.00110      -14.34960
H          4.62660       -3.75880      -15.92000
H          6.65050       -4.75780      -14.81610
H          7.42270       -3.16730      -14.80800
H          7.05550       -3.95860      -16.33990
H          7.29780        2.74130      -15.31350
H         12.10720        4.27190      -10.37250
H         13.32770        5.78270       -8.86110
H         12.66760       10.26060       -6.88700
H         10.99400        9.75360       -7.18160
H         11.86670       11.16760       -9.07020
H         11.50350        9.53430       -9.63090
H         13.17810       10.00740       -9.32400
H          8.53500        6.52990       -9.67370
H         11.73930        5.35750      -12.58870
H         12.01290        4.32950      -14.96720
