200

C          7.29000       -6.28080       12.48870
C          7.09570       -7.07130       11.41470
C          6.50220       -6.38250       10.31520
C          6.14550       -6.90140        9.05730
C          6.29500       -8.31180        8.75390
C          5.96730       -9.38420        9.53370
C          6.24390      -10.62360        8.92180
C          6.79220      -10.50430        7.68240
C          7.18230      -11.58070        6.72910
C          6.17050      -11.69850        5.58720
S          6.96270       -8.83850        7.23500
C          5.63560       -5.99430        8.13590
C          5.43080       -4.62480        8.42990
C          5.74010       -4.11400        9.70440
C          5.49020       -2.73160       10.05890
C          6.26870       -1.88910       10.80150
C          5.71280       -0.60310       10.95400
C          4.50200       -0.45880       10.35000
C          3.63650        0.75110       10.26220
C          3.54270        1.26740        8.82460
S          4.02370       -1.92730        9.56700
C          6.29020       -5.01630       10.61060
S          6.77960       -4.64600       12.24360
C          4.92230       -3.92110        7.31140
C          4.70110       -4.70530        6.22030
S          5.13090       -6.37740        6.50940
C          4.18130       -4.27460        4.96560
C          3.90140       -5.01230        3.85520
C          3.37550       -4.24730        2.78310
C          3.00650       -4.68910        1.49740
C          3.02620       -6.09600        1.15390
C          2.61680       -7.15590        1.91370
C          2.76350       -8.39720        1.26370
C          3.29230       -8.29450        0.01410
C          3.55720       -9.37510       -0.97660
C          2.53980       -9.33620       -2.11880
S          3.60870       -6.64030       -0.39380
C          2.61120       -3.70750        0.59510
C          2.54070       -2.33080        0.91960
C          2.89210       -1.89040        2.21100
C          2.86890       -0.48640        2.56910
C          3.28940        0.58490        1.83210
C          3.13930        1.81650        2.50050
C          2.60550        1.69540        3.74620
C          2.28100        2.76680        4.72950
C          0.76990        2.92590        4.90630
S          2.27580        0.03570        4.12140
C          3.28760       -2.87280        3.11090
S          3.81010       -2.57690        4.74560
C          2.05900       -1.55710       -0.16480
C          1.78650       -2.29040       -1.28240
S          2.09440       -3.99530       -1.04420
C          1.33820       -1.80570       -2.54930
C          1.35340       -0.51730       -2.99480
C          0.88520       -0.36720       -4.32450
C          0.78860        0.82040       -5.07570
C          1.00600        2.11240       -4.46660
C          0.60830        2.52530       -3.22450
C          0.92560        3.86940       -2.95520
C          1.56710        4.49010       -3.98320
C          2.10570        5.87850       -4.03940
C          3.62530        5.88850       -3.85800
S          1.78450        3.41150       -5.32180
C          0.40960        0.67270       -6.40620
C         -0.00010       -0.55870       -6.96570
C          0.02940       -1.73500       -6.19480
C         -0.44410       -3.01090       -6.69330
C          0.08730       -4.25160       -6.48710
C         -0.66670       -5.28980       -7.07120
C         -1.78590       -4.85720       -7.71060
C         -2.79990       -5.65310       -8.45750
C         -2.70120       -5.41130       -9.96490
S         -1.92100       -3.13090       -7.61440
C          0.52250       -1.60860       -4.89890
S          0.73000       -2.91220       -3.76130
C         -0.41270       -0.40620       -8.31960
C         -0.34670        0.87020       -8.76550
S          0.30750        1.96140       -7.57170
C         -0.77360        1.34580      -10.11670
C         -0.09890        2.66300      -10.49470
O          1.07210        2.86040      -10.60180
O         -1.01830        3.61450      -10.72920
C         -2.34320        3.17300      -10.48030
C         -2.27900        1.64320      -10.31040
C         -3.25910        1.16570       -9.24460
C         -3.12060        1.81750       -7.86580
C         -2.70650        3.29870       -7.88920
C         -2.87530        3.94220       -9.26610
O         -4.28440        4.18290       -9.36340
C         -4.80120        4.33840       -8.13790
O         -5.95850        4.55600       -7.92920
C         -3.67300        4.20140       -7.10900
C         -4.10700        3.76730       -5.71000
C         -2.88210        3.45840       -4.84090
O         -1.98000        2.72500       -5.11550
O         -2.94450        4.13500       -3.69240
C         -4.15590        4.85580       -3.54460
C         -4.85760        4.84710       -4.92480
C         -6.36250        4.61150       -4.80520
C         -6.90630        5.42900       -3.63840
C         -6.40710        4.83380       -2.32050
C         -5.00780        4.19460       -2.44640
O         -4.38260        4.36390       -1.18480
C         -4.99490        5.29120       -0.43190
O         -4.60050        5.61290        0.64670
C         -6.20520        5.84080       -1.18670
C         -7.44660        6.13790       -0.35140
C         -7.19170        7.23590        0.68820
O         -6.45050        8.16270        0.58110
O         -7.99790        7.03380        1.74030
C         -8.86330        5.92560        1.50490
C         -8.12120        5.04180        0.48570
C         -7.16150        4.09170        1.19710
C         -7.93180        3.24440        2.20240
C         -8.41630        4.12030        3.35610
C         -9.26170        5.29600        2.84050
O        -10.58550        4.77980        2.72370
C        -10.75030        3.69170        3.50020
O        -11.78400        3.10090        3.57650
C         -9.44280        3.38350        4.21270
H          7.71970       -6.54570       13.43500
H          7.37750       -8.10750       11.37890
H          5.50380       -9.28840       10.49970
H          6.04360      -11.57180        9.38930
H          8.16840      -11.36290        6.31170
H          7.24010      -12.52780        7.27000
H          6.11190      -10.76040        5.03980
H          5.18320      -11.93130        5.97980
H          6.46730      -12.48640        4.89930
H          7.22990       -2.16740       11.19430
H          6.19930        0.18930       11.49510
H          4.05280        1.52690       10.90830
H          2.63160        0.51150       10.62030
H          2.91200        2.15230        8.78330
H          4.53110        1.52530        8.45020
H          3.11640        0.50440        8.17660
H          4.73300       -2.86360        7.29690
H          4.09360       -6.06860        3.80160
H          2.18300       -7.04610        2.89160
H          2.48620       -9.33540        1.71150
H          4.56230       -9.25810       -1.38920
H          3.50550      -10.34020       -0.46800
H          2.74330      -10.12970       -2.83370
H          1.53170       -9.46540       -1.73130
H          2.59070       -8.37960       -2.63380
H          3.73730        0.48980        0.85890
H          3.42680        2.76020        2.07110
H          2.71270        3.70650        4.37850
H          2.73020        2.52320        5.69600
H          0.55440        3.71260        5.62490
H          0.33490        1.99590        5.26550
H          0.30230        3.18310        3.95880
H          1.88850       -0.49860       -0.10540
H          1.73600        0.29900       -2.41130
H          0.05350        1.90100       -2.54800
H          0.67460        4.36210       -2.03230
H          1.85940        6.33100       -5.00300
H          1.63730        6.47080       -3.25020
H          4.00480        6.90650       -3.89930
H          4.09980        5.30700       -4.64500
H          3.89410        5.45480       -2.89750
H          1.01020       -4.41730       -5.96170
H         -0.38640       -6.32660       -7.01260
H         -2.63900       -6.71160       -8.24280
H         -3.80350       -5.38400       -8.11750
H         -2.87560       -4.36120      -10.18920
H         -3.44160       -6.00750      -10.49250
H         -1.71240       -5.68300      -10.32760
H         -0.74820       -1.22270       -8.93240
H         -0.44830        0.59100      -10.84070
H         -2.95680        3.46490      -11.34010
H         -2.58420        1.18410      -11.25560
H         -3.16730        0.08490       -9.13030
H         -4.25890        1.37530       -9.63380
H         -4.08990        1.70960       -7.37920
H         -2.40270        1.27410       -7.25520
H         -1.68280        3.40820       -7.53600
H         -2.36810        4.91960       -9.28560
H         -3.21310        5.19720       -7.03040
H         -4.70890        2.85660       -5.77260
H         -3.88590        5.86400       -3.21300
H         -4.70170        5.82040       -5.39780
H         -6.83700        4.89690       -5.74270
H         -6.57350        3.55440       -4.63370
H         -6.57220        6.46310       -3.74090
H         -7.99580        5.42930       -3.65230
H         -7.10390        4.05760       -1.99030
H         -5.04250        3.11700       -2.63720
H         -5.87300        6.80900       -1.58630
H         -8.19820        6.55510       -1.03700
H         -9.79230        6.31290        1.05820
H         -8.84150        4.46410       -0.09890
H         -6.39520        4.66070        1.72470
H         -6.66570        3.44750        0.46950
H         -7.28910        2.45630        2.59600
H         -8.78830        2.77280        1.71310
H         -7.56170        4.48430        3.92730
H         -9.27560        6.11080        3.57890
H         -9.27670        2.31090        4.28250
H         -9.50360        3.79230        5.22330
