228

C         18.95530       -6.84010       -1.20220
C         17.97330       -7.07630       -0.30980
C         16.71500       -6.53480       -0.71030
C         15.47930       -6.62690       -0.05230
C         15.34700       -7.27070        1.26070
C         14.38570       -8.25390        1.48610
C         14.26840       -8.84980        2.72300
C         15.08600       -8.47950        3.78960
S         14.78980       -9.27740        5.34030
C         16.45220       -9.48600        6.07760
C         17.37160      -10.29810        5.18800
C         16.01940       -7.47380        3.55790
F         16.82010       -7.02520        4.55080
C         16.16720       -6.88830        2.31670
C         14.38820       -6.06470       -0.69560
C         14.47790       -5.40530       -1.94400
C         15.71080       -5.32180       -2.60700
C         15.82580       -4.69200       -3.92820
C         14.99440       -5.08340       -4.97410
C         15.09760       -4.50750       -6.22570
C         16.04100       -3.51770       -6.47710
S         16.25360       -2.68070       -8.01440
C         15.48050       -3.79770       -9.23600
C         16.24920       -5.09520       -9.39550
C         16.86310       -3.13020       -5.41730
C         16.77290       -3.69930       -4.16680
F         17.77700       -2.16220       -5.62070
C         16.80460       -5.88430       -1.96320
S         18.43150       -5.94900       -2.59100
C         13.23210       -4.85310       -2.34430
C         12.21360       -5.08200       -1.46790
S         12.76030       -6.00580       -0.07490
C         10.83390       -4.71230       -1.54380
C          9.88890       -4.87330       -0.48170
C          8.63010       -4.45370       -0.85550
C          8.73150       -4.00500       -2.20910
C         10.13070       -4.17170       -2.60390
N         10.46430       -3.82380       -3.87690
C          9.51850       -3.35160       -4.70850
N          8.26510       -3.21780       -4.40030
C          7.85830       -3.55150       -3.16070
C          7.42590       -4.47700       -0.05910
C          6.30680       -3.61850       -0.18200
C          5.31170       -3.94230        0.73610
C          5.79390       -5.05130        1.49290
C          7.12520       -5.35290        0.97070
N          7.79570       -6.39970        1.51900
C          7.23290       -7.09600        2.52130
N          6.06080       -6.84600        3.02310
C          5.33110       -5.83560        2.51810
C          4.05140       -3.27970        0.85220
C          3.63820       -2.17750        0.15930
C          2.31540       -1.76840        0.45310
C          1.61500       -0.66640       -0.06460
C          2.17860        0.19250       -1.11220
C          2.71970       -0.35420       -2.27570
C          3.19180        0.46020       -3.28190
C          3.15230        1.84930       -3.16870
S          3.79580        2.79940       -4.51140
C          2.69490        4.27180       -4.55190
C          2.66630        4.82730       -5.96190
C          2.64140        2.38060       -1.98890
F          2.61660        3.71850       -1.78490
C          2.14930        1.57680       -0.98150
C          0.34180       -0.44690        0.43820
C         -0.26950       -1.28160        1.40510
C          0.43460       -2.38010        1.92940
C         -0.15210       -3.23030        2.97160
C         -0.70750       -2.66550        4.11990
C         -1.26190       -3.46170        5.09720
C         -1.28370       -4.85120        4.97640
S         -1.99730       -5.75840        6.31180
C         -2.70210       -7.25570        5.51170
C         -3.80960       -7.80140        6.39160
C         -0.69820       -5.40240        3.84100
C         -0.14990       -4.61510        2.84850
F         -0.64510       -6.74320        3.66740
C          1.70820       -2.59800        1.42910
S          2.79730       -3.86530        1.93100
C         -1.60430       -0.88640        1.67650
C         -2.00220        0.21250        0.97600
S         -0.73700        0.82490       -0.07400
C         -3.26060        0.87930        1.01190
C         -3.60100        2.03010        0.36630
C         -4.93200        2.45000        0.61100
C         -5.59240        3.57240        0.08340
C         -4.88300        4.53400       -0.76840
C         -3.66030        5.06930       -0.37230
C         -2.97270        5.95830       -1.17540
C         -3.48680        6.34820       -2.40680
S         -2.69850        7.43320       -3.54920
C         -1.37980        8.23590       -2.57330
C         -1.93300        9.21130       -1.55190
C         -4.71710        5.80910       -2.78800
F         -5.24150        6.15740       -3.98000
C         -5.41310        4.92400       -1.99640
C         -6.93170        3.71500        0.41240
C         -7.62730        2.79850        1.24000
C         -6.96290        1.68320        1.77780
C         -7.66370        0.70020        2.61140
C         -8.86840        0.13460        2.19390
C         -9.50370       -0.81300        2.96570
C         -8.97520       -1.22940        4.18760
S         -9.89700       -2.42790        5.09760
C         -8.61040       -3.38710        5.99360
C         -9.16460       -4.75860        6.32490
C         -7.78710       -0.63660        4.60410
C         -7.12910        0.29770        3.83030
F         -7.23560       -0.94900        5.79850
C         -5.62070        1.54800        1.45940
S         -4.58420        0.23680        1.96510
C         -8.97070        3.19570        1.45270
C         -9.30500        4.35630        0.82170
S         -7.96220        5.03670       -0.07600
C        -10.57710        5.00170        0.82800
C        -10.90550        6.23130        0.34360
C        -12.27480        6.56410        0.51890
C        -12.94150        7.73410        0.12230
C        -12.22270        8.87120       -0.46360
C        -12.66310        9.47840       -1.63880
C        -12.00300       10.57210       -2.15360
C        -10.87870       11.10720       -1.52430
S        -10.11660       12.49920       -2.29460
C         -9.39410       13.44730       -0.89510
C         -9.22730       14.89270       -1.32060
C        -10.43300       10.47260       -0.36870
F         -9.32690       10.90310        0.28170
C        -11.09170        9.38320        0.16400
C        -14.31210        7.77420        0.34280
C        -15.03330        6.71670        0.94680
C        -14.36620        5.55200        1.35200
C        -15.07650        4.41130        1.94310
C        -16.18810        3.85490        1.31130
C        -16.81180        2.74490        1.83770
C        -16.36580        2.15300        3.01920
S        -17.25060        0.74350        3.60600
C        -15.95480       -0.27460        4.42130
C        -16.38690       -1.72740        4.40180
C        -15.28050        2.74370        3.65980
C        -14.63120        3.84000        3.12990
F        -14.82730        2.26510        4.84000
C        -12.99630        5.51400        1.13810
S        -11.95500        4.17010        1.52570
C        -16.41230        7.04550        1.11020
C        -16.71590        8.27550        0.65000
S        -15.36070        9.12360       -0.01310
H         19.98470       -7.13530       -1.14420
H         18.11550       -7.63030        0.60030
H         13.74540       -8.57050        0.67720
H         13.53390       -9.62220        2.89000
H         16.24440      -10.01030        7.01050
H         16.86520       -8.50640        6.30680
H         18.31990      -10.46320        5.69540
H         16.92530      -11.26310        4.95650
H         17.56900       -9.77580        4.25370
H         16.90050       -6.10580        2.19560
H         14.27060       -5.86880       -4.81060
H         14.43340       -4.83740       -7.00880
H         14.43990       -3.96090       -8.95790
H         15.50380       -3.21640      -10.15770
H         15.78120       -5.71130      -10.16100
H         17.27430       -4.88860       -9.69360
H         16.27010       -5.65500       -8.46270
H         17.43150       -3.35680       -3.38470
H         13.14080       -4.26230       -3.23860
H         10.17870       -5.23390        0.48990
H         11.42120       -3.93670       -4.18860
H          9.82910       -3.07270       -5.70510
H          6.79790       -3.44380       -2.98610
H          6.25340       -2.80500       -0.88020
H          8.70650       -6.64670        1.14920
H          7.79840       -7.91780        2.93610
H          4.36400       -5.69720        2.97970
H          4.27020       -1.64840       -0.52940
H          2.73370       -1.42580       -2.40380
H          3.59470        0.03380       -4.18750
H          3.07830        5.00700       -3.84580
H          1.70570        3.93990       -4.24000
H          3.66280        5.13410       -6.27170
H          2.30400        4.07660       -6.66060
H          2.00590        5.69090       -6.00280
H          1.77070        2.04430       -0.08610
H         -0.68900       -1.59420        4.24960
H         -1.69310       -3.02070        5.98260
H         -3.08580       -6.95140        4.53910
H         -1.90500       -7.98620        5.38260
H         -4.59190       -7.05770        6.52600
H         -3.42020       -8.07200        7.37040
H         -4.24210       -8.68710        5.93100
H          0.27160       -5.09800        1.98090
H         -2.25620       -1.40720        2.35530
H         -2.92010        2.55030       -0.28330
H         -3.24690        4.79920        0.58770
H         -2.02350        6.33800       -0.83390
H         -0.75710        7.46440       -2.12230
H         -0.79060        8.75820       -3.32720
H         -2.56260        8.70280       -0.82490
H         -2.53040        9.97300       -2.04730
H         -1.11510        9.69830       -1.02420
H         -6.35140        4.52900       -2.35220
H         -9.28900        0.41670        1.24090
H        -10.42830       -1.25820        2.63230
H         -7.74660       -3.45950        5.33440
H         -8.34120       -2.84300        6.89760
H        -10.04770       -4.67130        6.95380
H         -8.41360       -5.33820        6.85740
H         -9.43970       -5.29020        5.41660
H         -6.21460        0.72740        4.20800
H         -9.66280        2.65460        2.07280
H        -10.19110        6.87250       -0.14130
H        -13.52380        9.08350       -2.15550
H        -12.34950       11.04120       -3.06110
H        -10.08370       13.36110       -0.05690
H         -8.43590       13.00080       -0.63370
H         -8.80140       15.46910       -0.50200
H        -10.18790       15.32500       -1.59130
H         -8.56350       14.96330       -2.17930
H        -10.71920        8.95090        1.08000
H        -16.53950        4.27650        0.38180
H        -17.65960        2.30480        1.33600
H        -15.03300       -0.13130        3.85980
H        -15.82550        0.08460        5.44110
H        -17.32390       -1.85470        4.93920
H        -16.52650       -2.07130        3.37930
H        -15.62480       -2.34100        4.87740
H        -13.79580        4.25600        3.67100
H        -17.12510        6.38620        1.57130
H        -17.67110        8.76330        0.65310
