231

C        -10.57610      -11.37410       12.98020
C        -10.81030      -10.07610       13.26170
C        -10.38890       -9.20010       12.21980
C        -10.51780       -7.80380       12.15060
C        -11.00880       -7.02420       13.27450
S        -12.28540       -5.86050       13.08480
C        -12.20240       -5.38410       14.74630
C        -13.05730       -4.28450       15.27120
C        -12.43030       -2.92210       14.96360
C        -11.23280       -6.08920       15.39460
Cl       -10.84460       -5.88180       17.05420
C        -10.55740       -7.02460       14.56560
Cl        -9.25070       -7.98380       15.12990
C        -10.13540       -7.19290       10.96380
C         -9.58090       -7.90620        9.87340
C         -9.40610       -9.29840        9.96050
C         -8.82670      -10.05320        8.86240
S         -9.47150       -9.93460        7.25070
C         -8.31800      -11.06010        6.61950
C         -8.28510      -11.39130        5.16850
C         -7.64850      -10.25770        4.36100
C         -7.48590      -11.48800        7.60980
C         -7.77450      -10.92580        8.88320
Cl        -6.82270      -11.25640       10.26900
Cl        -6.20350      -12.60230        7.36980
C         -9.82970       -9.91430       11.13240
S         -9.82930      -11.62660       11.44180
C         -9.22420       -7.04590        8.80890
C         -9.50330       -5.73110        9.05400
S        -10.21640       -5.48320       10.63450
C         -9.26010       -4.63440        8.18740
S         -8.48170       -4.87380        6.64420
C         -8.51070       -3.17880        6.25200
C         -9.12090       -2.45730        7.27620
C         -9.43440       -1.10040        7.53110
C        -10.04830       -0.92700        8.73480
C        -10.50270        0.34940        9.28970
O        -10.39100        1.41130        8.72670
O        -11.06830        0.17460       10.48960
C        -11.53570        1.34140       11.16440
C        -10.41430        2.01630       11.94080
S        -10.28290       -2.40550        9.64160
C         -9.53330       -3.29500        8.35600
C         -7.89570       -2.72280        5.05830
C         -7.74940       -1.43850        4.61010
C         -6.97400       -1.33210        3.43350
C         -6.55310       -0.15610        2.78400
C         -6.87180        1.15480        3.32350
S         -7.62270        2.37620        2.34060
C         -7.65550        3.51420        3.64320
C         -8.27750        4.85640        3.47840
C         -9.78880        4.79040        3.71270
C         -7.11170        2.96660        4.76730
Cl        -6.96730        3.79260        6.26410
C         -6.66250        1.63090        4.58890
Cl        -5.86430        0.75530        5.83260
C         -5.79360       -0.31100        1.63320
C         -5.44280       -1.58240        1.11730
C         -5.81070       -2.75740        1.79760
C         -5.35370       -4.05350        1.32400
S         -6.46170       -5.36630        1.05760
C         -5.20830       -6.41200        0.47920
C         -5.50350       -7.81290        0.07190
C         -5.82060       -8.68520        1.28780
C         -4.00520       -5.77250        0.51280
C         -4.08290       -4.43700        0.99130
Cl        -2.68100       -3.46470        1.20210
Cl        -2.52310       -6.47600        0.00960
C         -6.57870       -2.60170        2.94080
S         -7.12280       -3.88100        3.98550
C         -4.65730       -1.47740       -0.05120
C         -4.32480       -0.19280       -0.37260
S         -5.07670        0.97160        0.69590
C         -3.35500        0.16860       -1.35570
C         -2.43900       -0.69960       -1.87580
C         -1.50230       -0.08840       -2.73700
C         -0.42480       -0.70830       -3.39670
C         -0.28940       -2.15240       -3.36550
S          1.20720       -2.92700       -2.93670
C          0.51280       -4.50880       -3.04990
C          1.33470       -5.72860       -2.82200
C          2.24910       -6.00270       -4.01790
C         -0.79730       -4.42660       -3.41700
Cl        -1.82320       -5.78530       -3.63110
C         -1.25640       -3.09500       -3.59510
Cl        -2.84780       -2.74480       -4.13830
C          0.48500        0.13290       -4.02090
C          0.30890        1.53810       -4.08010
C         -0.84270        2.13940       -3.53520
C         -1.08280        3.56130       -3.69550
S         -1.51530        4.57520       -2.35030
C         -1.58110        5.99310       -3.33910
C         -1.96970        7.31300       -2.77110
C         -3.49230        7.46450       -2.73690
C         -1.30020        5.68150       -4.63640
C         -1.01350        4.30600       -4.84280
Cl        -0.70200        3.66070       -6.40330
Cl        -1.27370        6.82790       -5.91300
C         -1.70490        1.30960       -2.83060
S         -3.11010        1.80460       -1.92380
C          1.42220        2.18150       -4.67000
C          2.39670        1.31910       -5.08210
S          1.97300       -0.35220       -4.78050
C          3.66040        1.66370       -5.64840
C          4.18240        2.91810       -5.77800
C          5.47960        2.93580       -6.34190
C          6.31200        4.04870       -6.56110
C          5.83020        5.39970       -6.33870
S          6.74890        6.54690       -5.40890
C          5.55540        7.78390       -5.60720
C          5.76370        9.14590       -5.04370
C          6.78600        9.92880       -5.87040
C          4.51750        7.32440       -6.36190
Cl         3.13940        8.26060       -6.77530
C          4.66720        5.97380       -6.77700
Cl         3.52550        5.20350       -7.80340
C          7.60730        3.78680       -6.98700
C          8.08350        2.48000       -7.26260
C          7.23950        1.37090       -7.07350
C          7.68920        0.00670       -7.29580
S          6.74840       -1.09040       -8.26380
C          7.83720       -2.40290       -7.97780
C          7.55770       -3.76540       -8.50820
C          6.60570       -4.52120       -7.57750
C          8.86190       -2.00080       -7.17410
C          8.78730       -0.63470       -6.79110
Cl         9.92960        0.08020       -5.72510
Cl        10.12490       -3.03640       -6.65000
C          5.95240        1.63050       -6.62040
S          4.75840        0.42810       -6.22120
C          9.42350        2.49320       -7.71940
C          9.97500        3.74150       -7.75340
S          8.83750        4.98160       -7.27480
C         11.32410        4.08750       -8.06920
C         12.33180        3.24360       -8.43440
C         13.57720        3.89510       -8.61260
C         14.81320        3.32100       -8.95510
C         14.94840        1.88460       -9.13390
S         14.44570        0.78260       -7.88410
C         14.93180       -0.60440       -8.79980
C         14.73470       -1.97980       -8.26570
C         13.25200       -2.28860       -8.05790
C         15.44490       -0.21870      -10.00160
Cl        16.02870       -1.30770      -11.19310
C         15.46080        1.19020      -10.19320
Cl        15.98940        1.91050      -11.65510
C         15.89570        4.18370       -9.07930
C         15.79630        5.58020       -8.86320
C         14.56950        6.14690       -8.48590
C         14.44690        7.55790       -8.15670
S         13.22580        8.55880       -8.88300
C         13.70500        9.94470       -7.96430
C         12.96310       11.23080       -8.07080
C         11.69020       11.19210       -7.22130
C         14.74610        9.63190       -7.14220
C         15.17310        8.28120       -7.25160
Cl        16.41890        7.62560       -6.26940
Cl        15.48700       10.74600       -6.06680
C         13.48000        5.29000       -8.39340
S         11.86320        5.74840       -7.94360
C         17.04660        6.23280       -9.06950
C         18.03970        5.37430       -9.37770
S         17.53100        3.72410       -9.45790
H        -10.79730      -12.23000       13.58760
H        -11.28240       -9.73800       14.16540
H        -13.16440       -4.40490       16.35050
H        -14.04510       -4.34160       14.81110
H        -13.06580       -2.12510       15.34020
H        -12.30820       -2.79750       13.89030
H        -11.45450       -2.84250       15.43550
H         -9.30270      -11.56130        4.81120
H         -7.70950      -12.30840        5.03420
H         -8.21760       -9.33940        4.48580
H         -6.62890      -10.08240        4.69430
H         -7.62950      -10.51710        3.30620
H         -8.77180       -7.37720        7.89200
H         -9.23230       -0.27120        6.88000
H        -11.95520        2.03240       10.42570
H        -12.32160        0.98590       11.83380
H        -10.81250        2.86010       12.49680
H         -9.96230        1.31240       12.63560
H         -9.65130        2.37550       11.25430
H         -8.17620       -0.58870        5.10400
H         -7.82580        5.54180        4.19780
H         -8.08110        5.22490        2.47020
H        -10.25170        4.11260        2.99930
H        -10.22800        5.77700        3.59310
H         -9.99930        4.43450        4.71790
H         -4.63420       -8.21090       -0.45440
H         -6.35670       -7.82100       -0.60970
H         -4.97780       -8.69920        1.97380
H         -6.02770       -9.70380        0.97100
H         -6.68930       -8.29560        1.81320
H         -4.35200       -2.32390       -0.63530
H         -2.39050       -1.73410       -1.59490
H          1.94260       -5.59640       -1.92490
H          0.66380       -6.57520       -2.66660
H          2.83110       -6.90360       -3.84440
H          1.65950       -6.13720       -4.92090
H          2.93020       -5.16900       -4.16870
H         -1.53690        8.10160       -3.38950
H         -1.57330        7.40280       -1.75840
H         -3.76140        8.43110       -2.31980
H         -3.90050        7.39250       -3.74170
H         -3.93510        6.68270       -2.12440
H          1.50870        3.24790       -4.75610
H          3.67190        3.80150       -5.44530
H          6.11970        9.06340       -4.01470
H          4.80770        9.67200       -5.04170
H          7.74160        9.41000       -5.87670
H          6.44080       10.03350       -6.89600
H          6.92780       10.91960       -5.44750
H          8.49910       -4.31120       -8.59270
H          7.10800       -3.68470       -9.49910
H          5.66330       -3.98630       -7.48730
H          6.40880       -5.51440       -7.97160
H          7.04520       -4.61910       -6.58810
H          9.95760        1.60790       -8.00690
H         12.19310        2.18790       -8.57080
H         15.17010       -2.68920       -8.97110
H         15.25790       -2.07720       -7.31100
H         12.81920       -1.59440       -7.34150
H         13.13030       -3.29990       -7.67940
H         12.70990       -2.20240       -8.99680
H         13.61060       12.03940       -7.72730
H         12.69730       11.41270       -9.11360
H         11.94010       11.02700       -6.17620
H         11.15470       12.13360       -7.30740
H         11.03990       10.38660       -7.55430
H         17.17890        7.29640       -8.99710
H         19.06870        5.60170       -9.57730
