
  xtb     02282220343D
 energy: -210.134687608932 gnorm: 0.000238007744 xtb: 6.4.1 (unknown)
121137  0     0  0            999 V2000
   -7.4799    2.5458  -15.4862 C   0  0  0  0  0  0  0  0  0  0  0  0
   -7.8442    0.9022  -15.0623 S   0  0  0  0  0  0  0  0  0  0  0  0
   -7.5801    1.2706  -13.3963 C   0  0  0  0  0  0  0  0  0  0  0  0
   -7.5879    0.6882  -12.1250 C   0  0  0  0  0  0  0  0  0  0  0  0
   -7.2402    1.7044  -11.2153 C   0  0  0  0  0  0  0  0  0  0  0  0
   -7.0053    2.8726  -11.8914 N   0  0  0  0  0  0  0  0  0  0  0  0
   -6.6950    4.1461  -11.2977 C   0  0  0  0  0  0  0  0  0  0  0  0
   -7.9584    4.9002  -10.8865 C   0  0  0  0  0  0  0  0  0  0  0  0
   -7.2264    2.6201  -13.2198 C   0  0  0  0  0  0  0  0  0  0  0  0
   -7.1720    3.3424  -14.4285 C   0  0  0  0  0  0  0  0  0  0  0  0
   -7.1932    1.2742   -9.8836 C   0  0  0  0  0  0  0  0  0  0  0  0
   -7.4944   -0.0629   -9.7700 C   0  0  0  0  0  0  0  0  0  0  0  0
   -7.8556   -0.8164  -11.3219 S   0  0  0  0  0  0  0  0  0  0  0  0
   -7.4891   -0.8415   -8.5817 C   0  0  0  0  0  0  0  0  0  0  0  0
   -7.1584   -0.0454   -7.0442 S   0  0  0  0  0  0  0  0  0  0  0  0
   -7.2211   -1.5668   -6.2367 C   0  0  0  0  0  0  0  0  0  0  0  0
   -7.0182   -2.1412   -4.9832 C   0  0  0  0  0  0  0  0  0  0  0  0
   -7.1767   -3.5330   -5.1420 C   0  0  0  0  0  0  0  0  0  0  0  0
   -7.4687   -3.8147   -6.4531 N   0  0  0  0  0  0  0  0  0  0  0  0
   -7.7861   -5.1068   -7.0000 C   0  0  0  0  0  0  0  0  0  0  0  0
   -9.2833   -5.4001   -6.9170 C   0  0  0  0  0  0  0  0  0  0  0  0
   -7.5024   -2.6208   -7.1280 C   0  0  0  0  0  0  0  0  0  0  0  0
   -7.6606   -2.2011   -8.4549 C   0  0  0  0  0  0  0  0  0  0  0  0
   -6.9090   -4.2605   -3.9753 C   0  0  0  0  0  0  0  0  0  0  0  0
   -6.5466   -3.4338   -2.9329 C   0  0  0  0  0  0  0  0  0  0  0  0
   -6.5721   -1.7289   -3.3726 S   0  0  0  0  0  0  0  0  0  0  0  0
   -6.0318   -3.7860   -1.6537 C   0  0  0  0  0  0  0  0  0  0  0  0
   -5.6697   -2.4945   -0.5147 S   0  0  0  0  0  0  0  0  0  0  0  0
   -4.8714   -3.6180    0.5168 C   0  0  0  0  0  0  0  0  0  0  0  0
   -4.0417   -3.6552    1.6355 C   0  0  0  0  0  0  0  0  0  0  0  0
   -3.6164   -4.9905    1.7853 C   0  0  0  0  0  0  0  0  0  0  0  0
   -4.1809   -5.7642    0.8009 N   0  0  0  0  0  0  0  0  0  0  0  0
   -4.0633   -7.1913    0.6680 C   0  0  0  0  0  0  0  0  0  0  0  0
   -5.1404   -7.9214    1.4694 C   0  0  0  0  0  0  0  0  0  0  0  0
   -4.9401   -4.9328    0.0143 C   0  0  0  0  0  0  0  0  0  0  0  0
   -5.6118   -5.0235   -1.2117 C   0  0  0  0  0  0  0  0  0  0  0  0
   -2.6306   -5.1513    2.7679 C   0  0  0  0  0  0  0  0  0  0  0  0
   -2.3036   -3.9498    3.3607 C   0  0  0  0  0  0  0  0  0  0  0  0
   -3.2677   -2.6050    2.7574 S   0  0  0  0  0  0  0  0  0  0  0  0
   -1.1907   -3.6427    4.1940 C   0  0  0  0  0  0  0  0  0  0  0  0
   -1.0628   -2.0236    4.8714 S   0  0  0  0  0  0  0  0  0  0  0  0
    0.5732   -2.3298    5.3169 C   0  0  0  0  0  0  0  0  0  0  0  0
    1.7153   -1.6673    5.7623 C   0  0  0  0  0  0  0  0  0  0  0  0
    2.7762   -2.5955    5.6938 C   0  0  0  0  0  0  0  0  0  0  0  0
    2.3034   -3.8024    5.2448 N   0  0  0  0  0  0  0  0  0  0  0  0
    3.0639   -5.0160    5.1116 C   0  0  0  0  0  0  0  0  0  0  0  0
    3.0639   -5.8240    6.4085 C   0  0  0  0  0  0  0  0  0  0  0  0
    0.9617   -3.6484    5.0020 C   0  0  0  0  0  0  0  0  0  0  0  0
   -0.0485   -4.3933    4.3816 C   0  0  0  0  0  0  0  0  0  0  0  0
    4.0266   -2.0273    5.9537 C   0  0  0  0  0  0  0  0  0  0  0  0
    3.9236   -0.6785    6.2252 C   0  0  0  0  0  0  0  0  0  0  0  0
    2.2602   -0.0964    6.2185 S   0  0  0  0  0  0  0  0  0  0  0  0
    4.9795    0.2576    6.3447 C   0  0  0  0  0  0  0  0  0  0  0  0
    6.6133   -0.1589    5.8710 S   0  0  0  0  0  0  0  0  0  0  0  0
    7.1910    1.4788    6.0355 C   0  0  0  0  0  0  0  0  0  0  0  0
    6.1658    2.2987    6.5031 C   0  0  0  0  0  0  0  0  0  0  0  0
    6.0352    3.6581    6.8702 C   0  0  0  0  0  0  0  0  0  0  0  0
    4.7684    3.9717    7.2649 C   0  0  0  0  0  0  0  0  0  0  0  0
    4.3093    5.2855    7.7065 C   0  0  0  0  0  0  0  0  0  0  0  0
    5.0128    6.2672    7.7674 O   0  0  0  0  0  0  0  0  0  0  0  0
    3.0076    5.2601    8.0203 O   0  0  0  0  0  0  0  0  0  0  0  0
    2.4281    6.4733    8.4925 C   0  0  0  0  0  0  0  0  0  0  0  0
    2.6546    6.6486    9.9875 C   0  0  0  0  0  0  0  0  0  0  0  0
    3.6502    2.6256    7.2156 S   0  0  0  0  0  0  0  0  0  0  0  0
    4.9333    1.5977    6.6585 C   0  0  0  0  0  0  0  0  0  0  0  0
    8.4983    1.8224    5.6157 C   0  0  0  0  0  0  0  0  0  0  0  0
    9.6655    0.5470    5.2639 S   0  0  0  0  0  0  0  0  0  0  0  0
   10.8119    1.7229    4.7396 C   0  0  0  0  0  0  0  0  0  0  0  0
   12.0965    1.8446    4.2030 C   0  0  0  0  0  0  0  0  0  0  0  0
   12.3215    3.2186    3.9993 C   0  0  0  0  0  0  0  0  0  0  0  0
   11.2301    3.9357    4.4133 N   0  0  0  0  0  0  0  0  0  0  0  0
   11.0251    5.3517    4.2556 C   0  0  0  0  0  0  0  0  0  0  0  0
   10.3690    5.6785    2.9149 C   0  0  0  0  0  0  0  0  0  0  0  0
   10.2968    3.0311    4.8488 C   0  0  0  0  0  0  0  0  0  0  0  0
    8.9923    3.0837    5.3470 C   0  0  0  0  0  0  0  0  0  0  0  0
   13.5847    3.4965    3.4414 C   0  0  0  0  0  0  0  0  0  0  0  0
   14.2880    2.3510    3.2347 C   0  0  0  0  0  0  0  0  0  0  0  0
   13.4555    0.9033    3.7054 S   0  0  0  0  0  0  0  0  0  0  0  0
   -7.5199    2.8221  -16.5209 H   0  0  0  0  0  0  0  0  0  0  0  0
   -6.1264    4.7324  -12.0246 H   0  0  0  0  0  0  0  0  0  0  0  0
   -6.0631    3.9708  -10.4222 H   0  0  0  0  0  0  0  0  0  0  0  0
   -8.5894    5.0796  -11.7539 H   0  0  0  0  0  0  0  0  0  0  0  0
   -7.6949    5.8551  -10.4402 H   0  0  0  0  0  0  0  0  0  0  0  0
   -8.5233    4.3184  -10.1620 H   0  0  0  0  0  0  0  0  0  0  0  0
   -6.9238    4.3844  -14.5186 H   0  0  0  0  0  0  0  0  0  0  0  0
   -6.9464    1.8856   -9.0345 H   0  0  0  0  0  0  0  0  0  0  0  0
   -7.4577   -5.1272   -8.0429 H   0  0  0  0  0  0  0  0  0  0  0  0
   -7.2235   -5.8614   -6.4434 H   0  0  0  0  0  0  0  0  0  0  0  0
   -9.8430   -4.6516   -7.4729 H   0  0  0  0  0  0  0  0  0  0  0  0
   -9.6135   -5.3800   -5.8809 H   0  0  0  0  0  0  0  0  0  0  0  0
   -9.4970   -6.3799   -7.3353 H   0  0  0  0  0  0  0  0  0  0  0  0
   -7.8698   -2.8372   -9.2960 H   0  0  0  0  0  0  0  0  0  0  0  0
   -6.9578   -5.3302   -3.8873 H   0  0  0  0  0  0  0  0  0  0  0  0
   -3.0705   -7.4880    1.0178 H   0  0  0  0  0  0  0  0  0  0  0  0
   -4.1478   -7.4450   -0.3923 H   0  0  0  0  0  0  0  0  0  0  0  0
   -6.1289   -7.6294    1.1226 H   0  0  0  0  0  0  0  0  0  0  0  0
   -5.0309   -8.9963    1.3535 H   0  0  0  0  0  0  0  0  0  0  0  0
   -5.0571   -7.6715    2.5245 H   0  0  0  0  0  0  0  0  0  0  0  0
   -5.7461   -5.9259   -1.7794 H   0  0  0  0  0  0  0  0  0  0  0  0
   -2.1544   -6.0802    3.0229 H   0  0  0  0  0  0  0  0  0  0  0  0
    2.6278   -5.6063    4.3011 H   0  0  0  0  0  0  0  0  0  0  0  0
    4.0881   -4.7502    4.8359 H   0  0  0  0  0  0  0  0  0  0  0  0
    3.6437   -6.7343    6.2828 H   0  0  0  0  0  0  0  0  0  0  0  0
    3.5000   -5.2389    7.2147 H   0  0  0  0  0  0  0  0  0  0  0  0
    2.0466   -6.0905    6.6857 H   0  0  0  0  0  0  0  0  0  0  0  0
    0.0551   -5.4016    4.0251 H   0  0  0  0  0  0  0  0  0  0  0  0
    4.9719   -2.5385    5.9225 H   0  0  0  0  0  0  0  0  0  0  0  0
    6.8246    4.3859    6.8773 H   0  0  0  0  0  0  0  0  0  0  0  0
    2.8661    7.3127    7.9418 H   0  0  0  0  0  0  0  0  0  0  0  0
    1.3642    6.3882    8.2617 H   0  0  0  0  0  0  0  0  0  0  0  0
    3.7184    6.7421   10.1926 H   0  0  0  0  0  0  0  0  0  0  0  0
    2.2638    5.7902   10.5287 H   0  0  0  0  0  0  0  0  0  0  0  0
    2.1492    7.5468   10.3304 H   0  0  0  0  0  0  0  0  0  0  0  0
   10.3927    5.7004    5.0767 H   0  0  0  0  0  0  0  0  0  0  0  0
   11.9962    5.8481    4.3304 H   0  0  0  0  0  0  0  0  0  0  0  0
   10.2223    6.7510    2.8221 H   0  0  0  0  0  0  0  0  0  0  0  0
    9.4029    5.1850    2.8388 H   0  0  0  0  0  0  0  0  0  0  0  0
   10.9966    5.3374    2.0948 H   0  0  0  0  0  0  0  0  0  0  0  0
    8.4150    3.9801    5.4650 H   0  0  0  0  0  0  0  0  0  0  0  0
   13.9562    4.4762    3.2016 H   0  0  0  0  0  0  0  0  0  0  0  0
   15.2725    2.2572    2.8215 H   0  0  0  0  0  0  0  0  0  0  0  0
  1  2  1  0  0  0  0
  2  3  1  0  0  0  0
  3  4  1  0  0  0  0
  4  5  2  0  0  0  0
  5  6  1  0  0  0  0
  6  7  1  0  0  0  0
  7  8  1  0  0  0  0
  6  9  1  0  0  0  0
  9 10  1  0  0  0  0
  5 11  1  0  0  0  0
 11 12  2  0  0  0  0
 12 13  1  0  0  0  0
 12 14  1  0  0  0  0
 14 15  1  0  0  0  0
 15 16  1  0  0  0  0
 16 17  1  0  0  0  0
 17 18  2  0  0  0  0
 18 19  1  0  0  0  0
 19 20  1  0  0  0  0
 20 21  1  0  0  0  0
 19 22  1  0  0  0  0
 22 23  1  0  0  0  0
 18 24  1  0  0  0  0
 24 25  2  0  0  0  0
 25 26  1  0  0  0  0
 25 27  1  0  0  0  0
 27 28  1  0  0  0  0
 28 29  1  0  0  0  0
 29 30  1  0  0  0  0
 30 31  2  0  0  0  0
 31 32  1  0  0  0  0
 32 33  1  0  0  0  0
 33 34  1  0  0  0  0
 32 35  1  0  0  0  0
 35 36  1  0  0  0  0
 31 37  1  0  0  0  0
 37 38  2  0  0  0  0
 38 39  1  0  0  0  0
 38 40  1  0  0  0  0
 40 41  1  0  0  0  0
 41 42  1  0  0  0  0
 42 43  1  0  0  0  0
 43 44  2  0  0  0  0
 44 45  1  0  0  0  0
 45 46  1  0  0  0  0
 46 47  1  0  0  0  0
 45 48  1  0  0  0  0
 48 49  1  0  0  0  0
 44 50  1  0  0  0  0
 50 51  2  0  0  0  0
 51 52  1  0  0  0  0
 51 53  1  0  0  0  0
 53 54  1  0  0  0  0
 54 55  1  0  0  0  0
 55 56  2  0  0  0  0
 56 57  1  0  0  0  0
 57 58  2  0  0  0  0
 58 59  1  0  0  0  0
 59 60  2  0  0  0  0
 59 61  1  0  0  0  0
 61 62  1  0  0  0  0
 62 63  1  0  0  0  0
 58 64  1  0  0  0  0
 64 65  1  0  0  0  0
 55 66  1  0  0  0  0
 66 67  1  0  0  0  0
 67 68  1  0  0  0  0
 68 69  1  0  0  0  0
 69 70  2  0  0  0  0
 70 71  1  0  0  0  0
 71 72  1  0  0  0  0
 72 73  1  0  0  0  0
 71 74  1  0  0  0  0
 74 75  1  0  0  0  0
 70 76  1  0  0  0  0
 76 77  2  0  0  0  0
 77 78  1  0  0  0  0
 10  1  2  0  0  0  0
 23 14  2  0  0  0  0
 36 27  2  0  0  0  0
 49 40  2  0  0  0  0
 65 53  2  0  0  0  0
 75 66  2  0  0  0  0
  9  3  2  0  0  0  0
 22 16  2  0  0  0  0
 35 29  2  0  0  0  0
 48 42  2  0  0  0  0
 65 56  1  0  0  0  0
 74 68  2  0  0  0  0
 13  4  1  0  0  0  0
 26 17  1  0  0  0  0
 39 30  1  0  0  0  0
 52 43  1  0  0  0  0
 78 69  1  0  0  0  0
  1 79  1  0  0  0  0
  7 80  1  0  0  0  0
  7 81  1  0  0  0  0
  8 82  1  0  0  0  0
  8 83  1  0  0  0  0
  8 84  1  0  0  0  0
 10 85  1  0  0  0  0
 11 86  1  0  0  0  0
 20 87  1  0  0  0  0
 20 88  1  0  0  0  0
 21 89  1  0  0  0  0
 21 90  1  0  0  0  0
 21 91  1  0  0  0  0
 23 92  1  0  0  0  0
 24 93  1  0  0  0  0
 33 94  1  0  0  0  0
 33 95  1  0  0  0  0
 34 96  1  0  0  0  0
 34 97  1  0  0  0  0
 34 98  1  0  0  0  0
 36 99  1  0  0  0  0
 37100  1  0  0  0  0
 46101  1  0  0  0  0
 46102  1  0  0  0  0
 47103  1  0  0  0  0
 47104  1  0  0  0  0
 47105  1  0  0  0  0
 49106  1  0  0  0  0
 50107  1  0  0  0  0
 57108  1  0  0  0  0
 62109  1  0  0  0  0
 62110  1  0  0  0  0
 63111  1  0  0  0  0
 63112  1  0  0  0  0
 63113  1  0  0  0  0
 72114  1  0  0  0  0
 72115  1  0  0  0  0
 73116  1  0  0  0  0
 73117  1  0  0  0  0
 73118  1  0  0  0  0
 75119  1  0  0  0  0
 76120  1  0  0  0  0
 77121  1  0  0  0  0
M  END
