
  xtb     03022221123D
 energy: -134.798519785537 gnorm: 0.000281552553 xtb: 6.4.1 (unknown)
 91 97  0     0  0            999 V2000
    6.2573   -6.9834   -3.9244 C   0  0  0  0  0  0  0  0  0  0  0  0
    5.8654   -6.0318   -3.0395 N   0  0  0  0  0  0  0  0  0  0  0  0
    6.7535   -5.4346   -2.0756 C   0  0  0  0  0  0  0  0  0  0  0  0
    7.1546   -6.4267   -0.9867 C   0  0  0  0  0  0  0  0  0  0  0  0
    4.5572   -5.7156   -3.2907 C   0  0  0  0  0  0  0  0  0  0  0  0
    4.1352   -6.4837   -4.3631 C   0  0  0  0  0  0  0  0  0  0  0  0
    5.2098   -7.2917   -4.7524 C   0  0  0  0  0  0  0  0  0  0  0  0
    3.7666   -4.7311   -2.6025 C   0  0  0  0  0  0  0  0  0  0  0  0
    2.6485   -3.7847   -3.5624 S   0  0  0  0  0  0  0  0  0  0  0  0
    2.0080   -2.9291   -2.1869 C   0  0  0  0  0  0  0  0  0  0  0  0
    2.6308   -3.3732   -1.0320 C   0  0  0  0  0  0  0  0  0  0  0  0
    2.4592   -3.1505    0.3567 C   0  0  0  0  0  0  0  0  0  0  0  0
    3.2782   -3.9233    1.1209 C   0  0  0  0  0  0  0  0  0  0  0  0
    3.3355   -3.9317    2.5767 C   0  0  0  0  0  0  0  0  0  0  0  0
    2.6565   -3.2280    3.2885 O   0  0  0  0  0  0  0  0  0  0  0  0
    4.2492   -4.8082    3.0216 O   0  0  0  0  0  0  0  0  0  0  0  0
    4.3880   -4.9367    4.4336 C   0  0  0  0  0  0  0  0  0  0  0  0
    3.3429   -5.8814    5.0101 C   0  0  0  0  0  0  0  0  0  0  0  0
    4.3178   -4.9875    0.1977 S   0  0  0  0  0  0  0  0  0  0  0  0
    3.6222   -4.3800   -1.2868 C   0  0  0  0  0  0  0  0  0  0  0  0
    0.9530   -1.9879   -2.4314 C   0  0  0  0  0  0  0  0  0  0  0  0
    0.8108   -0.7483   -1.8617 N   0  0  0  0  0  0  0  0  0  0  0  0
    1.6844   -0.1465   -0.8844 C   0  0  0  0  0  0  0  0  0  0  0  0
    0.9666    0.1186    0.4389 C   0  0  0  0  0  0  0  0  0  0  0  0
   -0.2833   -0.1343   -2.4065 C   0  0  0  0  0  0  0  0  0  0  0  0
   -0.8536   -0.9989   -3.3222 C   0  0  0  0  0  0  0  0  0  0  0  0
   -0.0694   -2.1516   -3.3539 C   0  0  0  0  0  0  0  0  0  0  0  0
   -0.6778    1.2197   -2.0617 C   0  0  0  0  0  0  0  0  0  0  0  0
   -1.9150    1.5300   -1.5633 N   0  0  0  0  0  0  0  0  0  0  0  0
   -3.0078    0.6105   -1.3816 C   0  0  0  0  0  0  0  0  0  0  0  0
   -4.0414    0.7344   -2.4993 C   0  0  0  0  0  0  0  0  0  0  0  0
   -1.9792    2.8777   -1.3363 C   0  0  0  0  0  0  0  0  0  0  0  0
   -0.7742    3.4317   -1.7008 C   0  0  0  0  0  0  0  0  0  0  0  0
    0.0476    2.3889   -2.1529 C   0  0  0  0  0  0  0  0  0  0  0  0
   -3.1608    3.5270   -0.7829 C   0  0  0  0  0  0  0  0  0  0  0  0
   -3.4455    3.5218    0.5567 N   0  0  0  0  0  0  0  0  0  0  0  0
   -2.6010    2.9370    1.5656 C   0  0  0  0  0  0  0  0  0  0  0  0
   -1.3734    3.8005    1.8506 C   0  0  0  0  0  0  0  0  0  0  0  0
   -4.6116    4.2098    0.7692 C   0  0  0  0  0  0  0  0  0  0  0  0
   -5.0689    4.6479   -0.4575 C   0  0  0  0  0  0  0  0  0  0  0  0
   -4.1532    4.2230   -1.4309 C   0  0  0  0  0  0  0  0  0  0  0  0
   -5.2035    4.3812    2.0813 C   0  0  0  0  0  0  0  0  0  0  0  0
   -6.5301    4.1428    2.3309 N   0  0  0  0  0  0  0  0  0  0  0  0
   -7.5265    3.7016    1.3918 C   0  0  0  0  0  0  0  0  0  0  0  0
   -8.4697    4.8360    0.9941 C   0  0  0  0  0  0  0  0  0  0  0  0
   -6.7836    4.3919    3.6420 C   0  0  0  0  0  0  0  0  0  0  0  0
   -5.6264    4.7928    4.2510 C   0  0  0  0  0  0  0  0  0  0  0  0
   -4.6241    4.7848    3.2678 C   0  0  0  0  0  0  0  0  0  0  0  0
    7.2585   -7.3672   -3.9117 H   0  0  0  0  0  0  0  0  0  0  0  0
    6.2566   -4.5706   -1.6334 H   0  0  0  0  0  0  0  0  0  0  0  0
    7.6506   -5.0830   -2.5987 H   0  0  0  0  0  0  0  0  0  0  0  0
    6.2713   -6.8157   -0.4880 H   0  0  0  0  0  0  0  0  0  0  0  0
    7.7810   -5.9329   -0.2495 H   0  0  0  0  0  0  0  0  0  0  0  0
    7.7070   -7.2598   -1.4138 H   0  0  0  0  0  0  0  0  0  0  0  0
    3.1526   -6.4633   -4.7918 H   0  0  0  0  0  0  0  0  0  0  0  0
    5.2153   -8.0112   -5.5467 H   0  0  0  0  0  0  0  0  0  0  0  0
    1.7498   -2.4767    0.7972 H   0  0  0  0  0  0  0  0  0  0  0  0
    5.3975   -5.3247    4.5849 H   0  0  0  0  0  0  0  0  0  0  0  0
    4.2946   -3.9454    4.8900 H   0  0  0  0  0  0  0  0  0  0  0  0
    2.3484   -5.4668    4.8633 H   0  0  0  0  0  0  0  0  0  0  0  0
    3.3994   -6.8491    4.5173 H   0  0  0  0  0  0  0  0  0  0  0  0
    3.5166   -6.0123    6.0743 H   0  0  0  0  0  0  0  0  0  0  0  0
    2.5301   -0.8182   -0.7324 H   0  0  0  0  0  0  0  0  0  0  0  0
    2.0676    0.7983   -1.2801 H   0  0  0  0  0  0  0  0  0  0  0  0
    1.6911    0.3682    1.2091 H   0  0  0  0  0  0  0  0  0  0  0  0
    0.2719    0.9475    0.3343 H   0  0  0  0  0  0  0  0  0  0  0  0
    0.4066   -0.7578    0.7577 H   0  0  0  0  0  0  0  0  0  0  0  0
   -1.7211   -0.8036   -3.9204 H   0  0  0  0  0  0  0  0  0  0  0  0
   -0.2258   -3.0239   -3.9572 H   0  0  0  0  0  0  0  0  0  0  0  0
   -2.5963   -0.4023   -1.3614 H   0  0  0  0  0  0  0  0  0  0  0  0
   -3.4931    0.8134   -0.4213 H   0  0  0  0  0  0  0  0  0  0  0  0
   -3.5698    0.5931   -3.4681 H   0  0  0  0  0  0  0  0  0  0  0  0
   -4.8166   -0.0167   -2.3727 H   0  0  0  0  0  0  0  0  0  0  0  0
   -4.4983    1.7205   -2.4783 H   0  0  0  0  0  0  0  0  0  0  0  0
   -0.5199    4.4723   -1.6489 H   0  0  0  0  0  0  0  0  0  0  0  0
    1.0466    2.4878   -2.5308 H   0  0  0  0  0  0  0  0  0  0  0  0
   -2.2715    1.9483    1.2286 H   0  0  0  0  0  0  0  0  0  0  0  0
   -3.1958    2.8162    2.4746 H   0  0  0  0  0  0  0  0  0  0  0  0
   -0.7927    3.3638    2.6589 H   0  0  0  0  0  0  0  0  0  0  0  0
   -1.6752    4.8049    2.1356 H   0  0  0  0  0  0  0  0  0  0  0  0
   -0.7481    3.8687    0.9639 H   0  0  0  0  0  0  0  0  0  0  0  0
   -5.9453    5.2392   -0.6346 H   0  0  0  0  0  0  0  0  0  0  0  0
   -4.2065    4.4070   -2.4863 H   0  0  0  0  0  0  0  0  0  0  0  0
   -8.1047    2.8908    1.8492 H   0  0  0  0  0  0  0  0  0  0  0  0
   -7.0159    3.3113    0.5079 H   0  0  0  0  0  0  0  0  0  0  0  0
   -9.0031    5.2096    1.8648 H   0  0  0  0  0  0  0  0  0  0  0  0
   -9.1939    4.4813    0.2655 H   0  0  0  0  0  0  0  0  0  0  0  0
   -7.9092    5.6600    0.5601 H   0  0  0  0  0  0  0  0  0  0  0  0
   -7.7674    4.2590    4.0484 H   0  0  0  0  0  0  0  0  0  0  0  0
   -5.5072    5.0621    5.2819 H   0  0  0  0  0  0  0  0  0  0  0  0
   -3.6017    5.0740    3.4097 H   0  0  0  0  0  0  0  0  0  0  0  0
  1  2  1  0  0  0  0
  2  3  1  0  0  0  0
  3  4  1  0  0  0  0
  2  5  1  0  0  0  0
  5  6  2  0  0  0  0
  6  7  1  0  0  0  0
  5  8  1  0  0  0  0
  8  9  1  0  0  0  0
  9 10  1  0  0  0  0
 10 11  2  0  0  0  0
 11 12  1  0  0  0  0
 12 13  2  0  0  0  0
 13 14  1  0  0  0  0
 14 15  2  0  0  0  0
 14 16  1  0  0  0  0
 16 17  1  0  0  0  0
 17 18  1  0  0  0  0
 13 19  1  0  0  0  0
 19 20  1  0  0  0  0
 10 21  1  0  0  0  0
 21 22  1  0  0  0  0
 22 23  1  0  0  0  0
 23 24  1  0  0  0  0
 22 25  1  0  0  0  0
 25 26  2  0  0  0  0
 26 27  1  0  0  0  0
 25 28  1  0  0  0  0
 28 29  1  0  0  0  0
 29 30  1  0  0  0  0
 30 31  1  0  0  0  0
 29 32  1  0  0  0  0
 32 33  2  0  0  0  0
 33 34  1  0  0  0  0
 32 35  1  0  0  0  0
 35 36  1  0  0  0  0
 36 37  1  0  0  0  0
 37 38  1  0  0  0  0
 36 39  1  0  0  0  0
 39 40  2  0  0  0  0
 40 41  1  0  0  0  0
 39 42  1  0  0  0  0
 42 43  1  0  0  0  0
 43 44  1  0  0  0  0
 44 45  1  0  0  0  0
 43 46  1  0  0  0  0
 46 47  2  0  0  0  0
 47 48  1  0  0  0  0
  7  1  2  0  0  0  0
 20  8  2  0  0  0  0
 27 21  2  0  0  0  0
 34 28  2  0  0  0  0
 41 35  2  0  0  0  0
 48 42  2  0  0  0  0
 20 11  1  0  0  0  0
  1 49  1  0  0  0  0
  3 50  1  0  0  0  0
  3 51  1  0  0  0  0
  4 52  1  0  0  0  0
  4 53  1  0  0  0  0
  4 54  1  0  0  0  0
  6 55  1  0  0  0  0
  7 56  1  0  0  0  0
 12 57  1  0  0  0  0
 17 58  1  0  0  0  0
 17 59  1  0  0  0  0
 18 60  1  0  0  0  0
 18 61  1  0  0  0  0
 18 62  1  0  0  0  0
 23 63  1  0  0  0  0
 23 64  1  0  0  0  0
 24 65  1  0  0  0  0
 24 66  1  0  0  0  0
 24 67  1  0  0  0  0
 26 68  1  0  0  0  0
 27 69  1  0  0  0  0
 30 70  1  0  0  0  0
 30 71  1  0  0  0  0
 31 72  1  0  0  0  0
 31 73  1  0  0  0  0
 31 74  1  0  0  0  0
 33 75  1  0  0  0  0
 34 76  1  0  0  0  0
 37 77  1  0  0  0  0
 37 78  1  0  0  0  0
 38 79  1  0  0  0  0
 38 80  1  0  0  0  0
 38 81  1  0  0  0  0
 40 82  1  0  0  0  0
 41 83  1  0  0  0  0
 44 84  1  0  0  0  0
 44 85  1  0  0  0  0
 45 86  1  0  0  0  0
 45 87  1  0  0  0  0
 45 88  1  0  0  0  0
 46 89  1  0  0  0  0
 47 90  1  0  0  0  0
 48 91  1  0  0  0  0
M  END
