
  xtb     02282220023D
 energy: -132.158172285822 gnorm: 0.000959386901 xtb: 6.4.1 (unknown)
 56 61  0     0  0            999 V2000
    8.0590   -3.6358    3.7409 C   0  0  0  0  0  0  0  0  0  0  0  0
    7.9535   -3.5593    2.0374 S   0  0  0  0  0  0  0  0  0  0  0  0
    6.4370   -2.7067    2.1222 C   0  0  0  0  0  0  0  0  0  0  0  0
    6.0551   -2.5055    3.4419 C   0  0  0  0  0  0  0  0  0  0  0  0
    6.9958   -3.0450    4.3685 C   0  0  0  0  0  0  0  0  0  0  0  0
    6.8368   -2.9710    5.7677 C   0  0  0  0  0  0  0  0  0  0  0  0
    6.7021   -2.9083    6.9027 N   0  0  0  0  0  0  0  0  0  0  0  0
    4.8803   -1.8576    3.8583 C   0  0  0  0  0  0  0  0  0  0  0  0
    3.9241   -1.3357    4.2170 N   0  0  0  0  0  0  0  0  0  0  0  0
    5.7378   -2.2953    0.9485 C   0  0  0  0  0  0  0  0  0  0  0  0
    4.2628   -1.3808    1.0533 S   0  0  0  0  0  0  0  0  0  0  0  0
    4.1256   -1.3013   -0.6756 C   0  0  0  0  0  0  0  0  0  0  0  0
    5.1619   -1.9702   -1.3004 C   0  0  0  0  0  0  0  0  0  0  0  0
    6.0840   -2.5319   -0.3750 C   0  0  0  0  0  0  0  0  0  0  0  0
    7.2096   -3.2597   -0.8018 C   0  0  0  0  0  0  0  0  0  0  0  0
    8.1196   -3.8519   -1.1690 N   0  0  0  0  0  0  0  0  0  0  0  0
    5.2331   -2.2067   -2.6877 C   0  0  0  0  0  0  0  0  0  0  0  0
    5.2581   -2.4688   -3.8020 N   0  0  0  0  0  0  0  0  0  0  0  0
    3.0423   -0.5986   -1.2914 C   0  0  0  0  0  0  0  0  0  0  0  0
    1.4521   -0.6220   -0.5980 S   0  0  0  0  0  0  0  0  0  0  0  0
    0.8393    0.4072   -1.8528 C   0  0  0  0  0  0  0  0  0  0  0  0
    1.8238    0.7396   -2.7661 C   0  0  0  0  0  0  0  0  0  0  0  0
    3.0869    0.1721   -2.4397 C   0  0  0  0  0  0  0  0  0  0  0  0
    4.2701    0.4802   -3.1396 C   0  0  0  0  0  0  0  0  0  0  0  0
    5.2398    0.7875   -3.6650 N   0  0  0  0  0  0  0  0  0  0  0  0
    1.5849    1.4528   -3.9575 C   0  0  0  0  0  0  0  0  0  0  0  0
    1.3752    1.9693   -4.9576 N   0  0  0  0  0  0  0  0  0  0  0  0
   -0.5283    0.8291   -1.8654 C   0  0  0  0  0  0  0  0  0  0  0  0
   -1.8088   -0.2490   -1.4089 S   0  0  0  0  0  0  0  0  0  0  0  0
   -3.0110    0.9739   -1.6989 C   0  0  0  0  0  0  0  0  0  0  0  0
   -2.4267    2.1601   -2.1217 C   0  0  0  0  0  0  0  0  0  0  0  0
   -1.0113    2.0773   -2.2152 C   0  0  0  0  0  0  0  0  0  0  0  0
   -0.1951    3.1918   -2.4945 C   0  0  0  0  0  0  0  0  0  0  0  0
    0.4635    4.1155   -2.6493 N   0  0  0  0  0  0  0  0  0  0  0  0
   -3.1279    3.3323   -2.4619 C   0  0  0  0  0  0  0  0  0  0  0  0
   -3.6814    4.2889   -2.7637 N   0  0  0  0  0  0  0  0  0  0  0  0
   -4.3975    0.7163   -1.4913 C   0  0  0  0  0  0  0  0  0  0  0  0
   -5.5616    2.0082   -1.4398 S   0  0  0  0  0  0  0  0  0  0  0  0
   -6.8661    0.8942   -1.1570 C   0  0  0  0  0  0  0  0  0  0  0  0
   -6.4106   -0.4159   -1.1161 C   0  0  0  0  0  0  0  0  0  0  0  0
   -5.0052   -0.5160   -1.2932 C   0  0  0  0  0  0  0  0  0  0  0  0
   -4.3377   -1.7538   -1.2770 C   0  0  0  0  0  0  0  0  0  0  0  0
   -3.8093   -2.7710   -1.2605 N   0  0  0  0  0  0  0  0  0  0  0  0
   -7.2137   -1.5504   -0.8978 C   0  0  0  0  0  0  0  0  0  0  0  0
   -7.8445   -2.4900   -0.7165 N   0  0  0  0  0  0  0  0  0  0  0  0
   -8.2095    1.3517   -1.0043 C   0  0  0  0  0  0  0  0  0  0  0  0
   -9.5675    0.2693   -1.1396 S   0  0  0  0  0  0  0  0  0  0  0  0
  -10.6689    1.5431   -0.8540 C   0  0  0  0  0  0  0  0  0  0  0  0
  -10.0507    2.7484   -0.6554 C   0  0  0  0  0  0  0  0  0  0  0  0
   -8.6307    2.6475   -0.7445 C   0  0  0  0  0  0  0  0  0  0  0  0
   -7.7814    3.7477   -0.5299 C   0  0  0  0  0  0  0  0  0  0  0  0
   -7.1051    4.6509   -0.3284 N   0  0  0  0  0  0  0  0  0  0  0  0
  -10.7330    3.9534   -0.3882 C   0  0  0  0  0  0  0  0  0  0  0  0
  -11.2860    4.9309   -0.1676 N   0  0  0  0  0  0  0  0  0  0  0  0
    8.8986   -4.1126    4.2083 H   0  0  0  0  0  0  0  0  0  0  0  0
  -11.7242    1.3508   -0.8405 H   0  0  0  0  0  0  0  0  0  0  0  0
  1  2  1  0  0  0  0
  2  3  1  0  0  0  0
  3  4  2  0  0  0  0
  4  5  1  0  0  0  0
  5  6  1  0  0  0  0
  6  7  3  0  0  0  0
  4  8  1  0  0  0  0
  8  9  3  0  0  0  0
  3 10  1  0  0  0  0
 10 11  1  0  0  0  0
 11 12  1  0  0  0  0
 12 13  2  0  0  0  0
 13 14  1  0  0  0  0
 14 15  1  0  0  0  0
 15 16  3  0  0  0  0
 13 17  1  0  0  0  0
 17 18  3  0  0  0  0
 12 19  1  0  0  0  0
 19 20  1  0  0  0  0
 20 21  1  0  0  0  0
 21 22  2  0  0  0  0
 22 23  1  0  0  0  0
 23 24  1  0  0  0  0
 24 25  3  0  0  0  0
 22 26  1  0  0  0  0
 26 27  3  0  0  0  0
 21 28  1  0  0  0  0
 28 29  1  0  0  0  0
 29 30  1  0  0  0  0
 30 31  2  0  0  0  0
 31 32  1  0  0  0  0
 32 33  1  0  0  0  0
 33 34  3  0  0  0  0
 31 35  1  0  0  0  0
 35 36  3  0  0  0  0
 30 37  1  0  0  0  0
 37 38  1  0  0  0  0
 38 39  1  0  0  0  0
 39 40  2  0  0  0  0
 40 41  1  0  0  0  0
 41 42  1  0  0  0  0
 42 43  3  0  0  0  0
 40 44  1  0  0  0  0
 44 45  3  0  0  0  0
 39 46  1  0  0  0  0
 46 47  1  0  0  0  0
 47 48  1  0  0  0  0
 48 49  2  0  0  0  0
 49 50  1  0  0  0  0
 50 51  1  0  0  0  0
 51 52  3  0  0  0  0
 49 53  1  0  0  0  0
 53 54  3  0  0  0  0
  5  1  2  0  0  0  0
 14 10  2  0  0  0  0
 23 19  2  0  0  0  0
 32 28  2  0  0  0  0
 41 37  2  0  0  0  0
 50 46  2  0  0  0  0
  1 55  1  0  0  0  0
 48 56  1  0  0  0  0
M  END
