252

C         -0.25410       10.65120       -1.25790
C         -0.55870        9.33410       -0.93990
C         -0.30410        8.89000        0.33880
C         -0.55620        7.52620        0.92200
C          0.04090        6.34540        0.19850
C          1.32630        6.16010       -0.25350
C          1.66720        4.96040       -0.86810
C          0.72870        3.94190       -1.01550
O          0.96830        2.71680       -1.56730
C          2.23010        2.41920       -2.12920
C          2.41660        3.01430       -3.52220
C         -0.57850        4.13150       -0.55850
C         -0.91440        5.32800        0.03910
C         -2.18200        5.80080        0.57130
C         -3.40880        5.17880        0.67260
C         -4.47980        5.87880        1.23250
O         -5.64440        5.16770        1.33100
C         -6.83270        5.80570        1.74880
C         -7.44250        6.68580        0.66180
C         -4.30480        7.19060        1.66480
C         -3.06340        7.80820        1.57190
C         -2.00810        7.11520        1.02840
C         -0.02230        7.69450        2.32690
C          0.41130        9.00850        2.54530
C          0.25080        9.74840        1.30360
C          0.54840       11.06160        0.97930
C          0.29090       11.50290       -0.30910
C          0.87620        9.37290        3.80000
C          0.89210        8.42780        4.81310
C          0.45650        7.12060        4.59630
C          0.00220        6.75520        3.32490
C          0.48310        6.07560        5.62570
C         -0.52860        5.10930        5.61970
C         -0.37720        3.98080        6.38280
C         -1.24130        2.74310        6.37330
C         -1.74500        2.40220        4.99450
C         -1.02650        2.16230        3.84130
C         -1.71030        1.97250        2.65350
C         -3.10770        2.01680        2.60500
O         -3.66420        1.83370        1.37490
C         -5.07710        1.87490        1.25680
C         -5.44140        1.75640       -0.21510
C         -3.83440        2.24890        3.76830
C         -3.14370        2.44860        4.95270
C         -3.63510        2.76160        6.28510
C         -4.93120        2.89150        6.75840
C         -5.11990        3.20760        8.10020
O         -6.32870        3.38740        8.70550
C         -7.51890        3.11230        7.99720
C         -7.79400        1.61690        7.86340
C         -4.01340        3.39000        8.93640
C         -2.72190        3.25940        8.46040
C         -2.53680        2.94240        7.13130
C         -0.34230        1.75570        7.07360
C          0.75180        2.42150        7.65970
C          0.74800        3.79720        7.20170
C          1.68950        4.81100        7.30700
C          1.55310        5.93540        6.51060
C          1.66830        1.70380        8.41380
C          1.55230        0.32930        8.48250
C          0.53830       -0.34900        7.79280
C         -0.45760        0.39280        7.13580
C          0.60360       -1.77430        7.60340
S         -0.42630       -2.52020        6.39660
C          0.47820       -4.00970        6.39500
C          1.46790       -3.96370        7.37190
C          2.44730       -4.86680        7.84040
C          3.21450       -4.32590        8.82860
C          4.31240       -4.93940        9.57040
O          4.95470       -4.37470       10.42340
O          4.50900       -6.21410        9.19430
C          5.57090       -6.91100        9.84450
C          6.91780       -6.59460        9.21000
S          2.79430       -2.67290        9.22660
C          1.52290       -2.70280        8.03990
C          0.30390       -4.92880        5.33870
S          1.60760       -5.97750        4.81990
C          0.84960       -6.34320        3.28670
C         -0.43650       -5.80160        3.26420
C         -1.52980       -5.78530        2.36010
C         -2.53360       -4.95970        2.76760
C         -3.78290       -4.64170        2.07260
O         -4.55530       -3.78770        2.43770
O         -3.95060       -5.41480        0.99290
C         -5.11730       -5.20010        0.19530
C         -4.71980       -4.79430       -1.21490
S         -2.23130       -4.16590        4.29770
C         -0.70830       -4.98610        4.40310
C          1.68520       -6.72000        2.17800
C          1.24400       -6.43460        0.87660
C          2.16830       -6.28960       -0.12110
C          1.91450       -5.66150       -1.46680
C          0.90450       -4.54650       -1.37920
C          0.91870       -3.43790       -0.56550
C         -0.18180       -2.59060       -0.55170
C         -1.29030       -2.85750       -1.35090
O         -2.44200       -2.12780       -1.36510
C         -2.60270       -1.02710       -0.48770
C         -1.98190        0.25810       -1.02140
C         -1.28870       -3.96310       -2.20630
C         -0.19830       -4.80660       -2.20580
C          0.04010       -6.05630       -2.91040
C         -0.71820       -6.72610       -3.84700
C         -0.24970       -7.93820       -4.36230
O         -1.07890       -8.53270       -5.26520
C         -0.66320       -9.69220       -5.95630
C          0.34520       -9.38980       -7.06140
C          0.96770       -8.45420       -3.92360
C          1.72840       -7.77540       -2.97920
C          1.26690       -6.58230       -2.47690
C          3.31330       -5.27220       -1.86200
C          4.26050       -5.85060       -0.99780
C          3.54370       -6.46980        0.10300
C          3.95920       -6.95370        1.33990
C          3.03560       -7.06500        2.36050
C          5.60860       -5.59700       -1.21140
C          5.97600       -4.69500       -2.19630
C          5.02580       -4.03610       -2.98030
C          3.67720       -4.38270       -2.83730
C          5.33520       -2.86820       -3.81240
C          4.53040       -2.56270       -4.91500
C          4.61800       -1.31570       -5.48190
C          3.72050       -0.72470       -6.54130
C          3.79820       -1.42130       -7.87840
C          4.88220       -1.56750       -8.71070
C          4.72940       -2.24770       -9.91270
C          3.49500       -2.78060      -10.27620
O          3.24400       -3.48170      -11.41880
C          4.24360       -3.60830      -12.40780
C          4.42620       -2.33480      -13.22920
C          2.39450       -2.63220       -9.42730
C          2.55010       -1.95450       -8.23640
C          1.59980       -1.65070       -7.17740
C          0.26800       -1.97820       -7.03200
C         -0.41410       -1.57400       -5.88010
O         -1.71680       -1.96370       -5.82560
C         -2.55790       -1.50310       -4.78620
C         -2.98780       -0.05140       -4.97970
C          0.25640       -0.85230       -4.89440
C          1.59810       -0.52460       -5.04670
C          2.26400       -0.91340       -6.18540
C          4.20080        0.70400       -6.58440
C          5.27830        0.89170       -5.70360
C          5.52790       -0.35960       -5.00860
C          6.40370       -0.69450       -3.98780
C          6.29120       -1.93890       -3.39330
C          5.87880        2.13530       -5.59060
C          5.39220        3.17990       -6.36070
C          4.32650        2.98920       -7.22740
C          3.72160        1.74500       -7.34840
H         -0.44440       11.01710       -2.25630
H         -0.98440        8.66970       -1.67790
H          2.06940        6.93630       -0.14120
H          2.67820        4.83580       -1.22280
H          2.24810        1.32630       -2.18810
H          3.03880        2.73470       -1.45860
H          1.62480        2.66840       -4.18230
H          2.38390        4.10050       -3.48740
H          3.37370        2.70240       -3.93290
H         -1.29650        3.33740       -0.68430
H         -3.55060        4.16210        0.34740
H         -6.66440        6.37940        2.66880
H         -7.51450        4.98140        1.98070
H         -8.37870        7.10950        1.01470
H         -7.63550        6.09090       -0.22750
H         -6.76670        7.49400        0.39350
H         -5.12210        7.74690        2.09570
H         -2.93750        8.82030        1.92820
H          0.97400       11.72870        1.71440
H          0.51870       12.52390       -0.57900
H          1.21270       10.38120        3.99190
H          1.22920        8.71340        5.79910
H         -0.31010        5.74130        3.12260
H         -1.39540        5.22680        4.98630
H          0.05320        2.13420        3.85860
H         -1.17130        1.79970        1.73540
H         -5.51930        1.04540        1.82560
H         -5.45560        2.82710        1.64750
H         -5.01650        2.58580       -0.77420
H         -5.06330        0.82640       -0.62930
H         -6.52210        1.77960       -0.32210
H         -4.91150        2.29050        3.76250
H         -5.75980        2.74800        6.08330
H         -7.50610        3.59720        7.01260
H         -8.30420        3.58060        8.59760
H         -7.00670        1.12530        7.29720
H         -7.83960        1.16270        8.84990
H         -8.74380        1.46180        7.35850
H         -4.20050        3.63760        9.96930
H         -1.87880        3.40180        9.12010
H          2.54790        4.70180        7.95330
H          2.32470        6.69140        6.52570
H          2.48720        2.20340        8.90920
H          2.28820       -0.23770        9.03050
H         -1.27170       -0.11410        6.63760
H          2.57710       -5.87040        7.47960
H          5.57950       -6.63580       10.90450
H          5.32120       -7.96860        9.73550
H          7.69230       -7.19120        9.68320
H          6.89410       -6.81820        8.14600
H          7.15190       -5.54150        9.34540
H         -1.61390       -6.36860        1.46220
H         -5.66730       -6.14650        0.18710
H         -5.72900       -4.42700        0.67160
H         -4.08890       -5.56130       -1.65730
H         -5.61350       -4.67490       -1.82120
H         -4.17170       -3.85570       -1.20050
H          0.21780       -6.18310        0.67930
H          1.76620       -3.23070        0.07190
H         -0.16480       -1.73340        0.10190
H         -2.21970       -1.26530        0.51080
H         -3.68690       -0.90770       -0.40830
H         -2.25900        1.07340       -0.36050
H         -0.89750        0.19100       -1.07110
H         -2.36120        0.46670       -2.01910
H         -2.14850       -4.14800       -2.82950
H         -1.66160       -6.34080       -4.19910
H         -0.26660      -10.44070       -5.25870
H         -1.58400      -10.08830       -6.39430
H          0.58950      -10.30430       -7.59510
H          1.25750       -8.96500       -6.64970
H         -0.07950       -8.67400       -7.76080
H          1.34190       -9.39080       -4.30550
H          2.67150       -8.18790       -2.65100
H          5.00190       -7.15960        1.53110
H          3.36830       -7.34400        3.35030
H          6.36200       -6.05840       -0.58980
H          7.02350       -4.47430       -2.34180
H          2.91520       -3.89160       -3.42340
H          3.82090       -3.28150       -5.29740
H          5.84570       -1.15910       -8.44190
H          5.59040       -2.35650      -10.55300
H          5.19480       -3.92550      -11.96210
H          3.88330       -4.41500      -13.05290
H          5.16650       -2.50260      -14.00670
H          3.48250       -2.05820      -13.69260
H          4.75340       -1.51040      -12.60040
H          1.44760       -3.05330       -9.72480
H         -0.26370       -2.54680       -7.77800
H         -2.08780       -1.64580       -3.80830
H         -3.43380       -2.15590       -4.84230
H         -3.45300        0.06880       -5.95520
H         -2.13360        0.61950       -4.92240
H         -3.70650        0.22180       -4.21160
H         -0.24810       -0.54660       -3.99170
H          2.10940        0.02690       -4.27140
H          7.12940        0.01860       -3.62510
H          6.91680       -2.17460       -2.54500
H          6.70810        2.28880       -4.91570
H          5.84770        4.15660       -6.28400
H          3.96300        3.81900       -7.81550
H          2.89220        1.59510       -8.02400
