
  xtb     03022212303D
 energy: -460.439751359824 gnorm: 0.000495148227 xtb: 6.4.1 (unknown)
231257  0     0  0            999 V2000
    2.8934   -7.5345    8.1826 C   0  0  0  0  0  0  0  0  0  0  0  0
    3.1045   -6.5763    7.2577 C   0  0  0  0  0  0  0  0  0  0  0  0
    1.9480   -6.3075    6.4697 C   0  0  0  0  0  0  0  0  0  0  0  0
    1.8133   -5.4106    5.4011 C   0  0  0  0  0  0  0  0  0  0  0  0
    2.8678   -4.5008    4.9836 C   0  0  0  0  0  0  0  0  0  0  0  0
    3.5902   -3.3951    6.1180 S   0  0  0  0  0  0  0  0  0  0  0  0
    4.4585   -2.5570    4.8747 C   0  0  0  0  0  0  0  0  0  0  0  0
    5.3189   -1.3819    5.1843 C   0  0  0  0  0  0  0  0  0  0  0  0
    6.3082   -1.6787    6.3079 C   0  0  0  0  0  0  0  0  0  0  0  0
    4.2059   -3.1277    3.6648 C   0  0  0  0  0  0  0  0  0  0  0  0
    4.8397   -2.5567    2.1811 Cl  0  0  0  0  0  0  0  0  0  0  0  0
    3.3166   -4.2335    3.7204 C   0  0  0  0  0  0  0  0  0  0  0  0
    2.9437   -5.1653    2.3322 Cl  0  0  0  0  0  0  0  0  0  0  0  0
    0.5703   -5.3538    4.7817 C   0  0  0  0  0  0  0  0  0  0  0  0
   -0.5390   -6.1389    5.1797 C   0  0  0  0  0  0  0  0  0  0  0  0
   -0.3893   -7.0658    6.2253 C   0  0  0  0  0  0  0  0  0  0  0  0
   -1.4850   -7.9334    6.6209 C   0  0  0  0  0  0  0  0  0  0  0  0
   -1.9960   -8.0617    8.2776 S   0  0  0  0  0  0  0  0  0  0  0  0
   -3.2333   -9.2067    7.8890 C   0  0  0  0  0  0  0  0  0  0  0  0
   -4.1547   -9.7326    8.9334 C   0  0  0  0  0  0  0  0  0  0  0  0
   -5.3323   -8.7801    9.1546 C   0  0  0  0  0  0  0  0  0  0  0  0
   -3.2405   -9.4611    6.5498 C   0  0  0  0  0  0  0  0  0  0  0  0
   -2.2493   -8.7448    5.8276 C   0  0  0  0  0  0  0  0  0  0  0  0
   -2.0010   -8.9597    4.1425 Cl  0  0  0  0  0  0  0  0  0  0  0  0
   -4.3273  -10.5493    5.7883 Cl  0  0  0  0  0  0  0  0  0  0  0  0
    0.8516   -7.1160    6.8524 C   0  0  0  0  0  0  0  0  0  0  0  0
    1.2870   -8.1764    8.1637 S   0  0  0  0  0  0  0  0  0  0  0  0
   -1.7093   -5.8101    4.4448 C   0  0  0  0  0  0  0  0  0  0  0  0
   -1.5035   -4.8450    3.5063 C   0  0  0  0  0  0  0  0  0  0  0  0
    0.1495   -4.2648    3.4983 S   0  0  0  0  0  0  0  0  0  0  0  0
   -2.3937   -4.2912    2.5390 C   0  0  0  0  0  0  0  0  0  0  0  0
   -2.0132   -3.4932    1.5014 C   0  0  0  0  0  0  0  0  0  0  0  0
   -3.0772   -3.1115    0.6546 C   0  0  0  0  0  0  0  0  0  0  0  0
   -3.0161   -2.3007   -0.4931 C   0  0  0  0  0  0  0  0  0  0  0  0
   -1.7591   -1.7252   -0.9467 C   0  0  0  0  0  0  0  0  0  0  0  0
   -0.3314   -2.7059   -1.1345 S   0  0  0  0  0  0  0  0  0  0  0  0
    0.6415   -1.3566   -1.6077 C   0  0  0  0  0  0  0  0  0  0  0  0
    2.0986   -1.5027   -1.8672 C   0  0  0  0  0  0  0  0  0  0  0  0
    2.8820   -1.6736   -0.5651 C   0  0  0  0  0  0  0  0  0  0  0  0
   -0.1103   -0.2210   -1.6261 C   0  0  0  0  0  0  0  0  0  0  0  0
    0.5138    1.3207   -2.0596 Cl  0  0  0  0  0  0  0  0  0  0  0  0
   -1.4676   -0.4222   -1.2533 C   0  0  0  0  0  0  0  0  0  0  0  0
   -2.5635    0.8882   -1.1117 Cl  0  0  0  0  0  0  0  0  0  0  0  0
   -4.2191   -2.0630   -1.1439 C   0  0  0  0  0  0  0  0  0  0  0  0
   -5.4745   -2.5124   -0.6588 C   0  0  0  0  0  0  0  0  0  0  0  0
   -5.5301   -3.2934    0.5102 C   0  0  0  0  0  0  0  0  0  0  0  0
   -6.8026   -3.7152    1.0700 C   0  0  0  0  0  0  0  0  0  0  0  0
   -7.1271   -5.3796    1.4508 S   0  0  0  0  0  0  0  0  0  0  0  0
   -8.7163   -5.0170    2.0308 C   0  0  0  0  0  0  0  0  0  0  0  0
   -9.6346   -6.0926    2.4955 C   0  0  0  0  0  0  0  0  0  0  0  0
  -10.4452   -6.6616    1.3284 C   0  0  0  0  0  0  0  0  0  0  0  0
   -8.9666   -3.6809    1.9273 C   0  0  0  0  0  0  0  0  0  0  0  0
   -7.8827   -2.9377    1.3881 C   0  0  0  0  0  0  0  0  0  0  0  0
   -7.9219   -1.2272    1.2423 Cl  0  0  0  0  0  0  0  0  0  0  0  0
  -10.4394   -2.9421    2.4051 Cl  0  0  0  0  0  0  0  0  0  0  0  0
   -4.3194   -3.6156    1.1118 C   0  0  0  0  0  0  0  0  0  0  0  0
   -4.1178   -4.5913    2.5447 S   0  0  0  0  0  0  0  0  0  0  0  0
   -6.5488   -2.0825   -1.4818 C   0  0  0  0  0  0  0  0  0  0  0  0
   -6.1410   -1.3490   -2.5561 C   0  0  0  0  0  0  0  0  0  0  0  0
   -4.3932   -1.1964   -2.6341 S   0  0  0  0  0  0  0  0  0  0  0  0
   -6.8773   -0.5218   -3.4547 C   0  0  0  0  0  0  0  0  0  0  0  0
   -6.0644    0.0786   -4.8761 S   0  0  0  0  0  0  0  0  0  0  0  0
   -7.1648    1.4245   -5.0606 C   0  0  0  0  0  0  0  0  0  0  0  0
   -8.1869    1.3237   -4.1337 C   0  0  0  0  0  0  0  0  0  0  0  0
   -9.3227    2.0997   -3.7966 C   0  0  0  0  0  0  0  0  0  0  0  0
   -9.9926    1.5901   -2.7272 C   0  0  0  0  0  0  0  0  0  0  0  0
  -11.2131    2.0931   -2.0908 C   0  0  0  0  0  0  0  0  0  0  0  0
  -11.7349    1.5770   -1.1332 O   0  0  0  0  0  0  0  0  0  0  0  0
  -11.6790    3.1821   -2.7170 O   0  0  0  0  0  0  0  0  0  0  0  0
  -12.8608    3.7732   -2.1745 C   0  0  0  0  0  0  0  0  0  0  0  0
  -12.5390    4.6835   -0.9981 C   0  0  0  0  0  0  0  0  0  0  0  0
   -9.2737    0.1410   -2.0485 S   0  0  0  0  0  0  0  0  0  0  0  0
   -8.0306    0.2025   -3.2538 C   0  0  0  0  0  0  0  0  0  0  0  0
   -6.5820    2.5341   -5.7551 C   0  0  0  0  0  0  0  0  0  0  0  0
   -5.7193    2.4478   -6.8064 C   0  0  0  0  0  0  0  0  0  0  0  0
   -4.7089    3.4426   -6.7952 C   0  0  0  0  0  0  0  0  0  0  0  0
   -3.5185    3.4111   -7.5518 C   0  0  0  0  0  0  0  0  0  0  0  0
   -3.4573    2.6616   -8.7850 C   0  0  0  0  0  0  0  0  0  0  0  0
   -2.0785    1.7043   -9.2417 S   0  0  0  0  0  0  0  0  0  0  0  0
   -2.8083    1.2188  -10.7327 C   0  0  0  0  0  0  0  0  0  0  0  0
   -2.0742    0.3609  -11.7024 C   0  0  0  0  0  0  0  0  0  0  0  0
   -1.1114    1.1987  -12.5476 C   0  0  0  0  0  0  0  0  0  0  0  0
   -4.0421    1.7846  -10.8654 C   0  0  0  0  0  0  0  0  0  0  0  0
   -5.0624    1.5491  -12.2256 Cl  0  0  0  0  0  0  0  0  0  0  0  0
   -4.4177    2.5955   -9.7641 C   0  0  0  0  0  0  0  0  0  0  0  0
   -5.8960    3.4652   -9.7363 Cl  0  0  0  0  0  0  0  0  0  0  0  0
   -2.4155    4.0251   -6.9648 C   0  0  0  0  0  0  0  0  0  0  0  0
   -2.5230    4.8142   -5.7954 C   0  0  0  0  0  0  0  0  0  0  0  0
   -3.7765    5.0569   -5.1931 C   0  0  0  0  0  0  0  0  0  0  0  0
   -3.8338    5.8569   -3.9859 C   0  0  0  0  0  0  0  0  0  0  0  0
   -4.5747    5.2596   -2.5284 S   0  0  0  0  0  0  0  0  0  0  0  0
   -4.0254    6.6143   -1.6006 C   0  0  0  0  0  0  0  0  0  0  0  0
   -4.3076    6.7052   -0.1417 C   0  0  0  0  0  0  0  0  0  0  0  0
   -3.7605    5.4909    0.6085 C   0  0  0  0  0  0  0  0  0  0  0  0
   -3.3273    7.4792   -2.3901 C   0  0  0  0  0  0  0  0  0  0  0  0
   -3.2144    7.0534   -3.7398 C   0  0  0  0  0  0  0  0  0  0  0  0
   -2.4253    7.9924   -4.9406 Cl  0  0  0  0  0  0  0  0  0  0  0  0
   -2.6253    8.9419   -1.8309 Cl  0  0  0  0  0  0  0  0  0  0  0  0
   -4.8332    4.2992   -5.6742 C   0  0  0  0  0  0  0  0  0  0  0  0
   -6.3358    4.0188   -4.8268 S   0  0  0  0  0  0  0  0  0  0  0  0
   -1.2646    5.0470   -5.1971 C   0  0  0  0  0  0  0  0  0  0  0  0
   -0.2294    4.4413   -5.8502 C   0  0  0  0  0  0  0  0  0  0  0  0
   -0.7448    3.7068   -7.3542 S   0  0  0  0  0  0  0  0  0  0  0  0
    1.0232    4.1318   -5.2379 C   0  0  0  0  0  0  0  0  0  0  0  0
    1.4616    4.6252   -4.0423 C   0  0  0  0  0  0  0  0  0  0  0  0
    2.4639    3.8320   -3.4401 C   0  0  0  0  0  0  0  0  0  0  0  0
    2.9655    3.9360   -2.1318 C   0  0  0  0  0  0  0  0  0  0  0  0
    2.5067    4.9792   -1.2277 C   0  0  0  0  0  0  0  0  0  0  0  0
    3.6516    5.9893   -0.3923 S   0  0  0  0  0  0  0  0  0  0  0  0
    2.4043    6.8999    0.3866 C   0  0  0  0  0  0  0  0  0  0  0  0
    2.7249    8.0513    1.2743 C   0  0  0  0  0  0  0  0  0  0  0  0
    2.8642    9.3433    0.4655 C   0  0  0  0  0  0  0  0  0  0  0  0
    1.1786    6.4393    0.0097 C   0  0  0  0  0  0  0  0  0  0  0  0
   -0.3016    7.1060    0.5619 Cl  0  0  0  0  0  0  0  0  0  0  0  0
    1.2299    5.3455   -0.8964 C   0  0  0  0  0  0  0  0  0  0  0  0
   -0.1985    4.5425   -1.4172 Cl  0  0  0  0  0  0  0  0  0  0  0  0
    3.8778    2.9676   -1.7358 C   0  0  0  0  0  0  0  0  0  0  0  0
    4.3054    1.9122   -2.5793 C   0  0  0  0  0  0  0  0  0  0  0  0
    3.8236    1.8267   -3.8993 C   0  0  0  0  0  0  0  0  0  0  0  0
    4.2836    0.8042   -4.8241 C   0  0  0  0  0  0  0  0  0  0  0  0
    4.3052   -0.8873   -4.4184 S   0  0  0  0  0  0  0  0  0  0  0  0
    4.9391   -1.3389   -5.9623 C   0  0  0  0  0  0  0  0  0  0  0  0
    5.1656   -2.7678   -6.3125 C   0  0  0  0  0  0  0  0  0  0  0  0
    3.8756   -3.4187   -6.8174 C   0  0  0  0  0  0  0  0  0  0  0  0
    5.1130   -0.2344   -6.7406 C   0  0  0  0  0  0  0  0  0  0  0  0
    4.7488    0.9803   -6.0995 C   0  0  0  0  0  0  0  0  0  0  0  0
    4.9744    2.5060   -6.8459 Cl  0  0  0  0  0  0  0  0  0  0  0  0
    5.7280   -0.2798   -8.3415 Cl  0  0  0  0  0  0  0  0  0  0  0  0
    2.8788    2.7706   -4.2835 C   0  0  0  0  0  0  0  0  0  0  0  0
    1.9611    2.7499   -5.7623 S   0  0  0  0  0  0  0  0  0  0  0  0
    5.1965    1.0364   -1.9107 C   0  0  0  0  0  0  0  0  0  0  0  0
    5.4415    1.3904   -0.6182 C   0  0  0  0  0  0  0  0  0  0  0  0
    4.5878    2.8466   -0.1518 S   0  0  0  0  0  0  0  0  0  0  0  0
    6.2544    0.7102    0.3372 C   0  0  0  0  0  0  0  0  0  0  0  0
    6.7205    1.1904    1.5230 C   0  0  0  0  0  0  0  0  0  0  0  0
    7.4798    0.2439    2.2563 C   0  0  0  0  0  0  0  0  0  0  0  0
    8.1022    0.4152    3.5043 C   0  0  0  0  0  0  0  0  0  0  0  0
    7.9586    1.6602    4.2411 C   0  0  0  0  0  0  0  0  0  0  0  0
    6.3771    2.2835    4.6151 S   0  0  0  0  0  0  0  0  0  0  0  0
    7.0276    3.6621    5.4350 C   0  0  0  0  0  0  0  0  0  0  0  0
    6.1338    4.7176    5.9856 C   0  0  0  0  0  0  0  0  0  0  0  0
    5.5896    5.6101    4.8672 C   0  0  0  0  0  0  0  0  0  0  0  0
    8.3894    3.6265    5.4105 C   0  0  0  0  0  0  0  0  0  0  0  0
    9.3931    4.8281    6.1127 Cl  0  0  0  0  0  0  0  0  0  0  0  0
    8.9213    2.4896    4.7417 C   0  0  0  0  0  0  0  0  0  0  0  0
   10.6044    2.2556    4.5233 Cl  0  0  0  0  0  0  0  0  0  0  0  0
    8.8167   -0.6657    4.0069 C   0  0  0  0  0  0  0  0  0  0  0  0
    8.8538   -1.9249    3.3607 C   0  0  0  0  0  0  0  0  0  0  0  0
    8.1707   -2.1161    2.1501 C   0  0  0  0  0  0  0  0  0  0  0  0
    7.9961   -3.4358    1.5698 C   0  0  0  0  0  0  0  0  0  0  0  0
    8.2180   -3.7372   -0.1256 S   0  0  0  0  0  0  0  0  0  0  0  0
    7.6517   -5.3675    0.0083 C   0  0  0  0  0  0  0  0  0  0  0  0
    7.5174   -6.2286   -1.1981 C   0  0  0  0  0  0  0  0  0  0  0  0
    6.2885   -5.8230   -2.0157 C   0  0  0  0  0  0  0  0  0  0  0  0
    7.3126   -5.6469    1.2983 C   0  0  0  0  0  0  0  0  0  0  0  0
    7.5134   -4.5580    2.1875 C   0  0  0  0  0  0  0  0  0  0  0  0
    7.0864   -4.6522    3.8443 Cl  0  0  0  0  0  0  0  0  0  0  0  0
    6.6829   -7.1550    1.8251 Cl  0  0  0  0  0  0  0  0  0  0  0  0
    7.5626   -0.9994    1.5859 C   0  0  0  0  0  0  0  0  0  0  0  0
    6.7330   -0.9505    0.0565 S   0  0  0  0  0  0  0  0  0  0  0  0
    9.6348   -2.8664    4.0925 C   0  0  0  0  0  0  0  0  0  0  0  0
   10.1312   -2.3564    5.2376 C   0  0  0  0  0  0  0  0  0  0  0  0
    9.6975   -0.7045    5.5070 S   0  0  0  0  0  0  0  0  0  0  0  0
    3.5905   -7.9250    8.8978 H   0  0  0  0  0  0  0  0  0  0  0  0
    4.0425   -6.0706    7.1197 H   0  0  0  0  0  0  0  0  0  0  0  0
    4.6865   -0.5383    5.4765 H   0  0  0  0  0  0  0  0  0  0  0  0
    5.8537   -1.0992    4.2755 H   0  0  0  0  0  0  0  0  0  0  0  0
    5.7764   -1.9618    7.2134 H   0  0  0  0  0  0  0  0  0  0  0  0
    6.9097   -0.7985    6.5180 H   0  0  0  0  0  0  0  0  0  0  0  0
    6.9697   -2.4944    6.0252 H   0  0  0  0  0  0  0  0  0  0  0  0
   -3.6076   -9.8573    9.8692 H   0  0  0  0  0  0  0  0  0  0  0  0
   -4.5278  -10.7068    8.6122 H   0  0  0  0  0  0  0  0  0  0  0  0
   -5.8943   -8.6559    8.2325 H   0  0  0  0  0  0  0  0  0  0  0  0
   -4.9735   -7.8058    9.4774 H   0  0  0  0  0  0  0  0  0  0  0  0
   -5.9963   -9.1785    9.9167 H   0  0  0  0  0  0  0  0  0  0  0  0
   -2.6690   -6.2664    4.6053 H   0  0  0  0  0  0  0  0  0  0  0  0
   -0.9911   -3.1989    1.3501 H   0  0  0  0  0  0  0  0  0  0  0  0
    2.2747   -2.3683   -2.5081 H   0  0  0  0  0  0  0  0  0  0  0  0
    2.4480   -0.6097   -2.3879 H   0  0  0  0  0  0  0  0  0  0  0  0
    2.5496   -2.5634   -0.0362 H   0  0  0  0  0  0  0  0  0  0  0  0
    2.7378   -0.8113    0.0816 H   0  0  0  0  0  0  0  0  0  0  0  0
    3.9425   -1.7704   -0.7818 H   0  0  0  0  0  0  0  0  0  0  0  0
   -9.0519   -6.8908    2.9579 H   0  0  0  0  0  0  0  0  0  0  0  0
  -10.3138   -5.6748    3.2410 H   0  0  0  0  0  0  0  0  0  0  0  0
  -11.0389   -5.8776    0.8656 H   0  0  0  0  0  0  0  0  0  0  0  0
   -9.7808   -7.0842    0.5784 H   0  0  0  0  0  0  0  0  0  0  0  0
  -11.1133   -7.4416    1.6831 H   0  0  0  0  0  0  0  0  0  0  0  0
   -7.5813   -2.3050   -1.2884 H   0  0  0  0  0  0  0  0  0  0  0  0
   -9.6303    2.9859   -4.3201 H   0  0  0  0  0  0  0  0  0  0  0  0
  -13.5437    2.9767   -1.8608 H   0  0  0  0  0  0  0  0  0  0  0  0
  -13.2980    4.3358   -3.0020 H   0  0  0  0  0  0  0  0  0  0  0  0
  -13.4482    5.1676   -0.6538 H   0  0  0  0  0  0  0  0  0  0  0  0
  -12.1197    4.1002   -0.1820 H   0  0  0  0  0  0  0  0  0  0  0  0
  -11.8206    5.4435   -1.2961 H   0  0  0  0  0  0  0  0  0  0  0  0
   -5.7125    1.6103   -7.4809 H   0  0  0  0  0  0  0  0  0  0  0  0
   -1.5107   -0.3996  -11.1591 H   0  0  0  0  0  0  0  0  0  0  0  0
   -2.7980   -0.1344  -12.3519 H   0  0  0  0  0  0  0  0  0  0  0  0
   -1.6587    1.9554  -13.1039 H   0  0  0  0  0  0  0  0  0  0  0  0
   -0.3841    1.6939  -11.9087 H   0  0  0  0  0  0  0  0  0  0  0  0
   -0.5828    0.5625  -13.2522 H   0  0  0  0  0  0  0  0  0  0  0  0
   -5.3877    6.7693    0.0163 H   0  0  0  0  0  0  0  0  0  0  0  0
   -3.8504    7.6192    0.2415 H   0  0  0  0  0  0  0  0  0  0  0  0
   -2.6872    5.4065    0.4601 H   0  0  0  0  0  0  0  0  0  0  0  0
   -4.2315    4.5793    0.2474 H   0  0  0  0  0  0  0  0  0  0  0  0
   -3.9572    5.5886    1.6729 H   0  0  0  0  0  0  0  0  0  0  0  0
   -1.1508    5.5238   -4.2422 H   0  0  0  0  0  0  0  0  0  0  0  0
    1.0555    5.5093   -3.5901 H   0  0  0  0  0  0  0  0  0  0  0  0
    1.9227    8.1641    2.0064 H   0  0  0  0  0  0  0  0  0  0  0  0
    3.6576    7.8500    1.8038 H   0  0  0  0  0  0  0  0  0  0  0  0
    3.0952   10.1744    1.1261 H   0  0  0  0  0  0  0  0  0  0  0  0
    3.6625    9.2458   -0.2664 H   0  0  0  0  0  0  0  0  0  0  0  0
    1.9371    9.5621   -0.0582 H   0  0  0  0  0  0  0  0  0  0  0  0
    5.5227   -3.3045   -5.4317 H   0  0  0  0  0  0  0  0  0  0  0  0
    5.9301   -2.8200   -7.0896 H   0  0  0  0  0  0  0  0  0  0  0  0
    4.0569   -4.4601   -7.0692 H   0  0  0  0  0  0  0  0  0  0  0  0
    3.1044   -3.3728   -6.0521 H   0  0  0  0  0  0  0  0  0  0  0  0
    3.5160   -2.9030   -7.7039 H   0  0  0  0  0  0  0  0  0  0  0  0
    5.6456    0.1723   -2.3654 H   0  0  0  0  0  0  0  0  0  0  0  0
    6.5350    2.1967    1.8518 H   0  0  0  0  0  0  0  0  0  0  0  0
    6.7028    5.3205    6.6950 H   0  0  0  0  0  0  0  0  0  0  0  0
    5.2996    4.2509    6.5131 H   0  0  0  0  0  0  0  0  0  0  0  0
    6.4078    6.0910    4.3370 H   0  0  0  0  0  0  0  0  0  0  0  0
    4.9452    6.3790    5.2847 H   0  0  0  0  0  0  0  0  0  0  0  0
    5.0149    5.0190    4.1578 H   0  0  0  0  0  0  0  0  0  0  0  0
    8.4118   -6.1319   -1.8167 H   0  0  0  0  0  0  0  0  0  0  0  0
    7.4237   -7.2678   -0.8790 H   0  0  0  0  0  0  0  0  0  0  0  0
    6.1988   -6.4557   -2.8948 H   0  0  0  0  0  0  0  0  0  0  0  0
    5.3867   -5.9264   -1.4176 H   0  0  0  0  0  0  0  0  0  0  0  0
    6.3750   -4.7867   -2.3344 H   0  0  0  0  0  0  0  0  0  0  0  0
    9.8254   -3.8678    3.7532 H   0  0  0  0  0  0  0  0  0  0  0  0
   10.7512   -2.8464    5.9626 H   0  0  0  0  0  0  0  0  0  0  0  0
  1  2  2  0  0  0  0
  2  3  1  0  0  0  0
  3  4  2  0  0  0  0
  4  5  1  0  0  0  0
  5  6  1  0  0  0  0
  6  7  1  0  0  0  0
  7  8  1  0  0  0  0
  8  9  1  0  0  0  0
  7 10  2  0  0  0  0
 10 11  1  0  0  0  0
 10 12  1  0  0  0  0
 12 13  1  0  0  0  0
  4 14  1  0  0  0  0
 14 15  2  0  0  0  0
 15 16  1  0  0  0  0
 16 17  1  0  0  0  0
 17 18  1  0  0  0  0
 18 19  1  0  0  0  0
 19 20  1  0  0  0  0
 20 21  1  0  0  0  0
 19 22  2  0  0  0  0
 22 23  1  0  0  0  0
 23 24  1  0  0  0  0
 22 25  1  0  0  0  0
 16 26  2  0  0  0  0
 26 27  1  0  0  0  0
 15 28  1  0  0  0  0
 28 29  2  0  0  0  0
 29 30  1  0  0  0  0
 29 31  1  0  0  0  0
 31 32  2  0  0  0  0
 32 33  1  0  0  0  0
 33 34  2  0  0  0  0
 34 35  1  0  0  0  0
 35 36  1  0  0  0  0
 36 37  1  0  0  0  0
 37 38  1  0  0  0  0
 38 39  1  0  0  0  0
 37 40  2  0  0  0  0
 40 41  1  0  0  0  0
 40 42  1  0  0  0  0
 42 43  1  0  0  0  0
 34 44  1  0  0  0  0
 44 45  2  0  0  0  0
 45 46  1  0  0  0  0
 46 47  1  0  0  0  0
 47 48  1  0  0  0  0
 48 49  1  0  0  0  0
 49 50  1  0  0  0  0
 50 51  1  0  0  0  0
 49 52  2  0  0  0  0
 52 53  1  0  0  0  0
 53 54  1  0  0  0  0
 52 55  1  0  0  0  0
 46 56  2  0  0  0  0
 56 57  1  0  0  0  0
 45 58  1  0  0  0  0
 58 59  2  0  0  0  0
 59 60  1  0  0  0  0
 59 61  1  0  0  0  0
 61 62  1  0  0  0  0
 62 63  1  0  0  0  0
 63 64  2  0  0  0  0
 64 65  1  0  0  0  0
 65 66  2  0  0  0  0
 66 67  1  0  0  0  0
 67 68  2  0  0  0  0
 67 69  1  0  0  0  0
 69 70  1  0  0  0  0
 70 71  1  0  0  0  0
 66 72  1  0  0  0  0
 72 73  1  0  0  0  0
 63 74  1  0  0  0  0
 74 75  2  0  0  0  0
 75 76  1  0  0  0  0
 76 77  2  0  0  0  0
 77 78  1  0  0  0  0
 78 79  1  0  0  0  0
 79 80  1  0  0  0  0
 80 81  1  0  0  0  0
 81 82  1  0  0  0  0
 80 83  2  0  0  0  0
 83 84  1  0  0  0  0
 83 85  1  0  0  0  0
 85 86  1  0  0  0  0
 77 87  1  0  0  0  0
 87 88  2  0  0  0  0
 88 89  1  0  0  0  0
 89 90  1  0  0  0  0
 90 91  1  0  0  0  0
 91 92  1  0  0  0  0
 92 93  1  0  0  0  0
 93 94  1  0  0  0  0
 92 95  2  0  0  0  0
 95 96  1  0  0  0  0
 96 97  1  0  0  0  0
 95 98  1  0  0  0  0
 89 99  2  0  0  0  0
 99100  1  0  0  0  0
 88101  1  0  0  0  0
101102  2  0  0  0  0
102103  1  0  0  0  0
102104  1  0  0  0  0
104105  2  0  0  0  0
105106  1  0  0  0  0
106107  2  0  0  0  0
107108  1  0  0  0  0
108109  1  0  0  0  0
109110  1  0  0  0  0
110111  1  0  0  0  0
111112  1  0  0  0  0
110113  2  0  0  0  0
113114  1  0  0  0  0
113115  1  0  0  0  0
115116  1  0  0  0  0
107117  1  0  0  0  0
117118  2  0  0  0  0
118119  1  0  0  0  0
119120  1  0  0  0  0
120121  1  0  0  0  0
121122  1  0  0  0  0
122123  1  0  0  0  0
123124  1  0  0  0  0
122125  2  0  0  0  0
125126  1  0  0  0  0
126127  1  0  0  0  0
125128  1  0  0  0  0
119129  2  0  0  0  0
129130  1  0  0  0  0
118131  1  0  0  0  0
131132  2  0  0  0  0
132133  1  0  0  0  0
132134  1  0  0  0  0
134135  2  0  0  0  0
135136  1  0  0  0  0
136137  2  0  0  0  0
137138  1  0  0  0  0
138139  1  0  0  0  0
139140  1  0  0  0  0
140141  1  0  0  0  0
141142  1  0  0  0  0
140143  2  0  0  0  0
143144  1  0  0  0  0
143145  1  0  0  0  0
145146  1  0  0  0  0
137147  1  0  0  0  0
147148  2  0  0  0  0
148149  1  0  0  0  0
149150  1  0  0  0  0
150151  1  0  0  0  0
151152  1  0  0  0  0
152153  1  0  0  0  0
153154  1  0  0  0  0
152155  2  0  0  0  0
155156  1  0  0  0  0
156157  1  0  0  0  0
155158  1  0  0  0  0
149159  2  0  0  0  0
159160  1  0  0  0  0
148161  1  0  0  0  0
161162  2  0  0  0  0
162163  1  0  0  0  0
 27  1  1  0  0  0  0
 57 31  1  0  0  0  0
 73 61  2  0  0  0  0
100 74  1  0  0  0  0
130104  1  0  0  0  0
160134  1  0  0  0  0
 26  3  1  0  0  0  0
 56 33  1  0  0  0  0
 73 64  1  0  0  0  0
 99 76  1  0  0  0  0
129106  1  0  0  0  0
159136  1  0  0  0  0
 12  5  2  0  0  0  0
 30 14  1  0  0  0  0
 42 35  2  0  0  0  0
 60 44  1  0  0  0  0
 85 78  2  0  0  0  0
103 87  1  0  0  0  0
115108  2  0  0  0  0
133117  1  0  0  0  0
145138  2  0  0  0  0
163147  1  0  0  0  0
 23 17  2  0  0  0  0
 53 47  2  0  0  0  0
 96 90  2  0  0  0  0
126120  2  0  0  0  0
156150  2  0  0  0  0
  1164  1  0  0  0  0
  2165  1  0  0  0  0
  8166  1  0  0  0  0
  8167  1  0  0  0  0
  9168  1  0  0  0  0
  9169  1  0  0  0  0
  9170  1  0  0  0  0
 20171  1  0  0  0  0
 20172  1  0  0  0  0
 21173  1  0  0  0  0
 21174  1  0  0  0  0
 21175  1  0  0  0  0
 28176  1  0  0  0  0
 32177  1  0  0  0  0
 38178  1  0  0  0  0
 38179  1  0  0  0  0
 39180  1  0  0  0  0
 39181  1  0  0  0  0
 39182  1  0  0  0  0
 50183  1  0  0  0  0
 50184  1  0  0  0  0
 51185  1  0  0  0  0
 51186  1  0  0  0  0
 51187  1  0  0  0  0
 58188  1  0  0  0  0
 65189  1  0  0  0  0
 70190  1  0  0  0  0
 70191  1  0  0  0  0
 71192  1  0  0  0  0
 71193  1  0  0  0  0
 71194  1  0  0  0  0
 75195  1  0  0  0  0
 81196  1  0  0  0  0
 81197  1  0  0  0  0
 82198  1  0  0  0  0
 82199  1  0  0  0  0
 82200  1  0  0  0  0
 93201  1  0  0  0  0
 93202  1  0  0  0  0
 94203  1  0  0  0  0
 94204  1  0  0  0  0
 94205  1  0  0  0  0
101206  1  0  0  0  0
105207  1  0  0  0  0
111208  1  0  0  0  0
111209  1  0  0  0  0
112210  1  0  0  0  0
112211  1  0  0  0  0
112212  1  0  0  0  0
123213  1  0  0  0  0
123214  1  0  0  0  0
124215  1  0  0  0  0
124216  1  0  0  0  0
124217  1  0  0  0  0
131218  1  0  0  0  0
135219  1  0  0  0  0
141220  1  0  0  0  0
141221  1  0  0  0  0
142222  1  0  0  0  0
142223  1  0  0  0  0
142224  1  0  0  0  0
153225  1  0  0  0  0
153226  1  0  0  0  0
154227  1  0  0  0  0
154228  1  0  0  0  0
154229  1  0  0  0  0
161230  1  0  0  0  0
162231  1  0  0  0  0
M  END
