121

C         -7.47990        2.54580      -15.48620
S         -7.84420        0.90220      -15.06230
C         -7.58010        1.27060      -13.39630
C         -7.58790        0.68820      -12.12500
C         -7.24020        1.70440      -11.21530
N         -7.00530        2.87260      -11.89140
C         -6.69500        4.14610      -11.29770
C         -7.95840        4.90020      -10.88650
C         -7.22640        2.62010      -13.21980
C         -7.17200        3.34240      -14.42850
C         -7.19320        1.27420       -9.88360
C         -7.49440       -0.06290       -9.77000
S         -7.85560       -0.81640      -11.32190
C         -7.48910       -0.84150       -8.58170
S         -7.15840       -0.04540       -7.04420
C         -7.22110       -1.56680       -6.23670
C         -7.01820       -2.14120       -4.98320
C         -7.17670       -3.53300       -5.14200
N         -7.46870       -3.81470       -6.45310
C         -7.78610       -5.10680       -7.00000
C         -9.28330       -5.40010       -6.91700
C         -7.50240       -2.62080       -7.12800
C         -7.66060       -2.20110       -8.45490
C         -6.90900       -4.26050       -3.97530
C         -6.54660       -3.43380       -2.93290
S         -6.57210       -1.72890       -3.37260
C         -6.03180       -3.78600       -1.65370
S         -5.66970       -2.49450       -0.51470
C         -4.87140       -3.61800        0.51680
C         -4.04170       -3.65520        1.63550
C         -3.61640       -4.99050        1.78530
N         -4.18090       -5.76420        0.80090
C         -4.06330       -7.19130        0.66800
C         -5.14040       -7.92140        1.46940
C         -4.94010       -4.93280        0.01430
C         -5.61180       -5.02350       -1.21170
C         -2.63060       -5.15130        2.76790
C         -2.30360       -3.94980        3.36070
S         -3.26770       -2.60500        2.75740
C         -1.19070       -3.64270        4.19400
S         -1.06280       -2.02360        4.87140
C          0.57320       -2.32980        5.31690
C          1.71530       -1.66730        5.76230
C          2.77620       -2.59550        5.69380
N          2.30340       -3.80240        5.24480
C          3.06390       -5.01600        5.11160
C          3.06390       -5.82400        6.40850
C          0.96170       -3.64840        5.00200
C         -0.04850       -4.39330        4.38160
C          4.02660       -2.02730        5.95370
C          3.92360       -0.67850        6.22520
S          2.26020       -0.09640        6.21850
C          4.97950        0.25760        6.34470
S          6.61330       -0.15890        5.87100
C          7.19100        1.47880        6.03550
C          6.16580        2.29870        6.50310
C          6.03520        3.65810        6.87020
C          4.76840        3.97170        7.26490
C          4.30930        5.28550        7.70650
O          5.01280        6.26720        7.76740
O          3.00760        5.26010        8.02030
C          2.42810        6.47330        8.49250
C          2.65460        6.64860        9.98750
S          3.65020        2.62560        7.21560
C          4.93330        1.59770        6.65850
C          8.49830        1.82240        5.61570
S          9.66550        0.54700        5.26390
C         10.81190        1.72290        4.73960
C         12.09650        1.84460        4.20300
C         12.32150        3.21860        3.99930
N         11.23010        3.93570        4.41330
C         11.02510        5.35170        4.25560
C         10.36900        5.67850        2.91490
C         10.29680        3.03110        4.84880
C          8.99230        3.08370        5.34700
C         13.58470        3.49650        3.44140
C         14.28800        2.35100        3.23470
S         13.45550        0.90330        3.70540
H         -7.51990        2.82210      -16.52090
H         -6.12640        4.73240      -12.02460
H         -6.06310        3.97080      -10.42220
H         -8.58940        5.07960      -11.75390
H         -7.69490        5.85510      -10.44020
H         -8.52330        4.31840      -10.16200
H         -6.92380        4.38440      -14.51860
H         -6.94640        1.88560       -9.03450
H         -7.45770       -5.12720       -8.04290
H         -7.22350       -5.86140       -6.44340
H         -9.84300       -4.65160       -7.47290
H         -9.61350       -5.38000       -5.88090
H         -9.49700       -6.37990       -7.33530
H         -7.86980       -2.83720       -9.29600
H         -6.95780       -5.33020       -3.88730
H         -3.07050       -7.48800        1.01780
H         -4.14780       -7.44500       -0.39230
H         -6.12890       -7.62940        1.12260
H         -5.03090       -8.99630        1.35350
H         -5.05710       -7.67150        2.52450
H         -5.74610       -5.92590       -1.77940
H         -2.15440       -6.08020        3.02290
H          2.62780       -5.60630        4.30110
H          4.08810       -4.75020        4.83590
H          3.64370       -6.73430        6.28280
H          3.50000       -5.23890        7.21470
H          2.04660       -6.09050        6.68570
H          0.05510       -5.40160        4.02510
H          4.97190       -2.53850        5.92250
H          6.82460        4.38590        6.87730
H          2.86610        7.31270        7.94180
H          1.36420        6.38820        8.26170
H          3.71840        6.74210       10.19260
H          2.26380        5.79020       10.52870
H          2.14920        7.54680       10.33040
H         10.39270        5.70040        5.07670
H         11.99620        5.84810        4.33040
H         10.22230        6.75100        2.82210
H          9.40290        5.18500        2.83880
H         10.99660        5.33740        2.09480
H          8.41500        3.98010        5.46500
H         13.95620        4.47620        3.20160
H         15.27250        2.25720        2.82150
