
  xtb     03022216093D
 energy: -460.457649926126 gnorm: 0.001082592505 xtb: 6.4.1 (unknown)
231257  0     0  0            999 V2000
  -10.5761  -11.3741   12.9802 C   0  0  0  0  0  0  0  0  0  0  0  0
  -10.8103  -10.0761   13.2617 C   0  0  0  0  0  0  0  0  0  0  0  0
  -10.3889   -9.2001   12.2198 C   0  0  0  0  0  0  0  0  0  0  0  0
  -10.5178   -7.8038   12.1506 C   0  0  0  0  0  0  0  0  0  0  0  0
  -11.0088   -7.0242   13.2745 C   0  0  0  0  0  0  0  0  0  0  0  0
  -12.2854   -5.8605   13.0848 S   0  0  0  0  0  0  0  0  0  0  0  0
  -12.2024   -5.3841   14.7463 C   0  0  0  0  0  0  0  0  0  0  0  0
  -13.0573   -4.2845   15.2712 C   0  0  0  0  0  0  0  0  0  0  0  0
  -12.4303   -2.9221   14.9636 C   0  0  0  0  0  0  0  0  0  0  0  0
  -11.2328   -6.0892   15.3946 C   0  0  0  0  0  0  0  0  0  0  0  0
  -10.8446   -5.8818   17.0542 Cl  0  0  0  0  0  0  0  0  0  0  0  0
  -10.5574   -7.0246   14.5656 C   0  0  0  0  0  0  0  0  0  0  0  0
   -9.2507   -7.9838   15.1299 Cl  0  0  0  0  0  0  0  0  0  0  0  0
  -10.1354   -7.1929   10.9638 C   0  0  0  0  0  0  0  0  0  0  0  0
   -9.5809   -7.9062    9.8734 C   0  0  0  0  0  0  0  0  0  0  0  0
   -9.4061   -9.2984    9.9605 C   0  0  0  0  0  0  0  0  0  0  0  0
   -8.8267  -10.0532    8.8624 C   0  0  0  0  0  0  0  0  0  0  0  0
   -9.4715   -9.9346    7.2507 S   0  0  0  0  0  0  0  0  0  0  0  0
   -8.3180  -11.0601    6.6195 C   0  0  0  0  0  0  0  0  0  0  0  0
   -8.2851  -11.3913    5.1685 C   0  0  0  0  0  0  0  0  0  0  0  0
   -7.6485  -10.2577    4.3610 C   0  0  0  0  0  0  0  0  0  0  0  0
   -7.4859  -11.4880    7.6098 C   0  0  0  0  0  0  0  0  0  0  0  0
   -7.7745  -10.9258    8.8832 C   0  0  0  0  0  0  0  0  0  0  0  0
   -6.8227  -11.2564   10.2690 Cl  0  0  0  0  0  0  0  0  0  0  0  0
   -6.2035  -12.6023    7.3698 Cl  0  0  0  0  0  0  0  0  0  0  0  0
   -9.8297   -9.9143   11.1324 C   0  0  0  0  0  0  0  0  0  0  0  0
   -9.8293  -11.6266   11.4418 S   0  0  0  0  0  0  0  0  0  0  0  0
   -9.2242   -7.0459    8.8089 C   0  0  0  0  0  0  0  0  0  0  0  0
   -9.5033   -5.7311    9.0540 C   0  0  0  0  0  0  0  0  0  0  0  0
  -10.2164   -5.4832   10.6345 S   0  0  0  0  0  0  0  0  0  0  0  0
   -9.2601   -4.6344    8.1874 C   0  0  0  0  0  0  0  0  0  0  0  0
   -8.4817   -4.8738    6.6442 S   0  0  0  0  0  0  0  0  0  0  0  0
   -8.5107   -3.1788    6.2520 C   0  0  0  0  0  0  0  0  0  0  0  0
   -9.1209   -2.4573    7.2762 C   0  0  0  0  0  0  0  0  0  0  0  0
   -9.4344   -1.1004    7.5311 C   0  0  0  0  0  0  0  0  0  0  0  0
  -10.0483   -0.9270    8.7348 C   0  0  0  0  0  0  0  0  0  0  0  0
  -10.5027    0.3494    9.2897 C   0  0  0  0  0  0  0  0  0  0  0  0
  -10.3910    1.4113    8.7267 O   0  0  0  0  0  0  0  0  0  0  0  0
  -11.0683    0.1746   10.4896 O   0  0  0  0  0  0  0  0  0  0  0  0
  -11.5357    1.3414   11.1644 C   0  0  0  0  0  0  0  0  0  0  0  0
  -10.4143    2.0163   11.9408 C   0  0  0  0  0  0  0  0  0  0  0  0
  -10.2829   -2.4055    9.6416 S   0  0  0  0  0  0  0  0  0  0  0  0
   -9.5333   -3.2950    8.3560 C   0  0  0  0  0  0  0  0  0  0  0  0
   -7.8957   -2.7228    5.0583 C   0  0  0  0  0  0  0  0  0  0  0  0
   -7.7494   -1.4385    4.6101 C   0  0  0  0  0  0  0  0  0  0  0  0
   -6.9740   -1.3321    3.4335 C   0  0  0  0  0  0  0  0  0  0  0  0
   -6.5531   -0.1561    2.7840 C   0  0  0  0  0  0  0  0  0  0  0  0
   -6.8718    1.1548    3.3235 C   0  0  0  0  0  0  0  0  0  0  0  0
   -7.6227    2.3762    2.3406 S   0  0  0  0  0  0  0  0  0  0  0  0
   -7.6555    3.5142    3.6432 C   0  0  0  0  0  0  0  0  0  0  0  0
   -8.2775    4.8564    3.4784 C   0  0  0  0  0  0  0  0  0  0  0  0
   -9.7888    4.7904    3.7127 C   0  0  0  0  0  0  0  0  0  0  0  0
   -7.1117    2.9666    4.7673 C   0  0  0  0  0  0  0  0  0  0  0  0
   -6.9673    3.7926    6.2641 Cl  0  0  0  0  0  0  0  0  0  0  0  0
   -6.6625    1.6309    4.5889 C   0  0  0  0  0  0  0  0  0  0  0  0
   -5.8643    0.7553    5.8326 Cl  0  0  0  0  0  0  0  0  0  0  0  0
   -5.7936   -0.3110    1.6332 C   0  0  0  0  0  0  0  0  0  0  0  0
   -5.4428   -1.5824    1.1173 C   0  0  0  0  0  0  0  0  0  0  0  0
   -5.8107   -2.7574    1.7976 C   0  0  0  0  0  0  0  0  0  0  0  0
   -5.3537   -4.0535    1.3240 C   0  0  0  0  0  0  0  0  0  0  0  0
   -6.4617   -5.3663    1.0576 S   0  0  0  0  0  0  0  0  0  0  0  0
   -5.2083   -6.4120    0.4792 C   0  0  0  0  0  0  0  0  0  0  0  0
   -5.5035   -7.8129    0.0719 C   0  0  0  0  0  0  0  0  0  0  0  0
   -5.8206   -8.6852    1.2878 C   0  0  0  0  0  0  0  0  0  0  0  0
   -4.0052   -5.7725    0.5128 C   0  0  0  0  0  0  0  0  0  0  0  0
   -4.0829   -4.4370    0.9913 C   0  0  0  0  0  0  0  0  0  0  0  0
   -2.6810   -3.4647    1.2021 Cl  0  0  0  0  0  0  0  0  0  0  0  0
   -2.5231   -6.4760    0.0096 Cl  0  0  0  0  0  0  0  0  0  0  0  0
   -6.5787   -2.6017    2.9408 C   0  0  0  0  0  0  0  0  0  0  0  0
   -7.1228   -3.8810    3.9855 S   0  0  0  0  0  0  0  0  0  0  0  0
   -4.6573   -1.4774   -0.0512 C   0  0  0  0  0  0  0  0  0  0  0  0
   -4.3248   -0.1928   -0.3726 C   0  0  0  0  0  0  0  0  0  0  0  0
   -5.0767    0.9716    0.6959 S   0  0  0  0  0  0  0  0  0  0  0  0
   -3.3550    0.1686   -1.3557 C   0  0  0  0  0  0  0  0  0  0  0  0
   -2.4390   -0.6996   -1.8758 C   0  0  0  0  0  0  0  0  0  0  0  0
   -1.5023   -0.0884   -2.7370 C   0  0  0  0  0  0  0  0  0  0  0  0
   -0.4248   -0.7083   -3.3967 C   0  0  0  0  0  0  0  0  0  0  0  0
   -0.2894   -2.1524   -3.3655 C   0  0  0  0  0  0  0  0  0  0  0  0
    1.2072   -2.9270   -2.9367 S   0  0  0  0  0  0  0  0  0  0  0  0
    0.5128   -4.5088   -3.0499 C   0  0  0  0  0  0  0  0  0  0  0  0
    1.3347   -5.7286   -2.8220 C   0  0  0  0  0  0  0  0  0  0  0  0
    2.2491   -6.0027   -4.0179 C   0  0  0  0  0  0  0  0  0  0  0  0
   -0.7973   -4.4266   -3.4170 C   0  0  0  0  0  0  0  0  0  0  0  0
   -1.8232   -5.7853   -3.6311 Cl  0  0  0  0  0  0  0  0  0  0  0  0
   -1.2564   -3.0950   -3.5951 C   0  0  0  0  0  0  0  0  0  0  0  0
   -2.8478   -2.7448   -4.1383 Cl  0  0  0  0  0  0  0  0  0  0  0  0
    0.4850    0.1329   -4.0209 C   0  0  0  0  0  0  0  0  0  0  0  0
    0.3089    1.5381   -4.0801 C   0  0  0  0  0  0  0  0  0  0  0  0
   -0.8427    2.1394   -3.5352 C   0  0  0  0  0  0  0  0  0  0  0  0
   -1.0828    3.5613   -3.6955 C   0  0  0  0  0  0  0  0  0  0  0  0
   -1.5153    4.5752   -2.3503 S   0  0  0  0  0  0  0  0  0  0  0  0
   -1.5811    5.9931   -3.3391 C   0  0  0  0  0  0  0  0  0  0  0  0
   -1.9697    7.3130   -2.7711 C   0  0  0  0  0  0  0  0  0  0  0  0
   -3.4923    7.4645   -2.7369 C   0  0  0  0  0  0  0  0  0  0  0  0
   -1.3002    5.6815   -4.6364 C   0  0  0  0  0  0  0  0  0  0  0  0
   -1.0135    4.3060   -4.8428 C   0  0  0  0  0  0  0  0  0  0  0  0
   -0.7020    3.6607   -6.4033 Cl  0  0  0  0  0  0  0  0  0  0  0  0
   -1.2737    6.8279   -5.9130 Cl  0  0  0  0  0  0  0  0  0  0  0  0
   -1.7049    1.3096   -2.8306 C   0  0  0  0  0  0  0  0  0  0  0  0
   -3.1101    1.8046   -1.9238 S   0  0  0  0  0  0  0  0  0  0  0  0
    1.4222    2.1815   -4.6700 C   0  0  0  0  0  0  0  0  0  0  0  0
    2.3967    1.3191   -5.0821 C   0  0  0  0  0  0  0  0  0  0  0  0
    1.9730   -0.3522   -4.7805 S   0  0  0  0  0  0  0  0  0  0  0  0
    3.6604    1.6637   -5.6484 C   0  0  0  0  0  0  0  0  0  0  0  0
    4.1824    2.9181   -5.7780 C   0  0  0  0  0  0  0  0  0  0  0  0
    5.4796    2.9358   -6.3419 C   0  0  0  0  0  0  0  0  0  0  0  0
    6.3120    4.0487   -6.5611 C   0  0  0  0  0  0  0  0  0  0  0  0
    5.8302    5.3997   -6.3387 C   0  0  0  0  0  0  0  0  0  0  0  0
    6.7489    6.5469   -5.4089 S   0  0  0  0  0  0  0  0  0  0  0  0
    5.5554    7.7839   -5.6072 C   0  0  0  0  0  0  0  0  0  0  0  0
    5.7637    9.1459   -5.0437 C   0  0  0  0  0  0  0  0  0  0  0  0
    6.7860    9.9288   -5.8704 C   0  0  0  0  0  0  0  0  0  0  0  0
    4.5175    7.3244   -6.3619 C   0  0  0  0  0  0  0  0  0  0  0  0
    3.1394    8.2606   -6.7753 Cl  0  0  0  0  0  0  0  0  0  0  0  0
    4.6672    5.9738   -6.7770 C   0  0  0  0  0  0  0  0  0  0  0  0
    3.5255    5.2035   -7.8034 Cl  0  0  0  0  0  0  0  0  0  0  0  0
    7.6073    3.7868   -6.9870 C   0  0  0  0  0  0  0  0  0  0  0  0
    8.0835    2.4800   -7.2626 C   0  0  0  0  0  0  0  0  0  0  0  0
    7.2395    1.3709   -7.0735 C   0  0  0  0  0  0  0  0  0  0  0  0
    7.6892    0.0067   -7.2958 C   0  0  0  0  0  0  0  0  0  0  0  0
    6.7484   -1.0904   -8.2638 S   0  0  0  0  0  0  0  0  0  0  0  0
    7.8372   -2.4029   -7.9778 C   0  0  0  0  0  0  0  0  0  0  0  0
    7.5577   -3.7654   -8.5082 C   0  0  0  0  0  0  0  0  0  0  0  0
    6.6057   -4.5212   -7.5775 C   0  0  0  0  0  0  0  0  0  0  0  0
    8.8619   -2.0008   -7.1741 C   0  0  0  0  0  0  0  0  0  0  0  0
    8.7873   -0.6347   -6.7911 C   0  0  0  0  0  0  0  0  0  0  0  0
    9.9296    0.0802   -5.7251 Cl  0  0  0  0  0  0  0  0  0  0  0  0
   10.1249   -3.0364   -6.6500 Cl  0  0  0  0  0  0  0  0  0  0  0  0
    5.9524    1.6305   -6.6204 C   0  0  0  0  0  0  0  0  0  0  0  0
    4.7584    0.4281   -6.2212 S   0  0  0  0  0  0  0  0  0  0  0  0
    9.4235    2.4932   -7.7194 C   0  0  0  0  0  0  0  0  0  0  0  0
    9.9750    3.7415   -7.7534 C   0  0  0  0  0  0  0  0  0  0  0  0
    8.8375    4.9816   -7.2748 S   0  0  0  0  0  0  0  0  0  0  0  0
   11.3241    4.0875   -8.0692 C   0  0  0  0  0  0  0  0  0  0  0  0
   12.3318    3.2436   -8.4344 C   0  0  0  0  0  0  0  0  0  0  0  0
   13.5772    3.8951   -8.6126 C   0  0  0  0  0  0  0  0  0  0  0  0
   14.8132    3.3210   -8.9551 C   0  0  0  0  0  0  0  0  0  0  0  0
   14.9484    1.8846   -9.1339 C   0  0  0  0  0  0  0  0  0  0  0  0
   14.4457    0.7826   -7.8841 S   0  0  0  0  0  0  0  0  0  0  0  0
   14.9318   -0.6044   -8.7998 C   0  0  0  0  0  0  0  0  0  0  0  0
   14.7347   -1.9798   -8.2657 C   0  0  0  0  0  0  0  0  0  0  0  0
   13.2520   -2.2886   -8.0579 C   0  0  0  0  0  0  0  0  0  0  0  0
   15.4449   -0.2187  -10.0016 C   0  0  0  0  0  0  0  0  0  0  0  0
   16.0287   -1.3077  -11.1931 Cl  0  0  0  0  0  0  0  0  0  0  0  0
   15.4608    1.1902  -10.1932 C   0  0  0  0  0  0  0  0  0  0  0  0
   15.9894    1.9105  -11.6551 Cl  0  0  0  0  0  0  0  0  0  0  0  0
   15.8957    4.1837   -9.0793 C   0  0  0  0  0  0  0  0  0  0  0  0
   15.7963    5.5802   -8.8632 C   0  0  0  0  0  0  0  0  0  0  0  0
   14.5695    6.1469   -8.4859 C   0  0  0  0  0  0  0  0  0  0  0  0
   14.4469    7.5579   -8.1567 C   0  0  0  0  0  0  0  0  0  0  0  0
   13.2258    8.5588   -8.8830 S   0  0  0  0  0  0  0  0  0  0  0  0
   13.7050    9.9447   -7.9643 C   0  0  0  0  0  0  0  0  0  0  0  0
   12.9631   11.2308   -8.0708 C   0  0  0  0  0  0  0  0  0  0  0  0
   11.6902   11.1921   -7.2213 C   0  0  0  0  0  0  0  0  0  0  0  0
   14.7461    9.6319   -7.1422 C   0  0  0  0  0  0  0  0  0  0  0  0
   15.1731    8.2812   -7.2516 C   0  0  0  0  0  0  0  0  0  0  0  0
   16.4189    7.6256   -6.2694 Cl  0  0  0  0  0  0  0  0  0  0  0  0
   15.4870   10.7460   -6.0668 Cl  0  0  0  0  0  0  0  0  0  0  0  0
   13.4800    5.2900   -8.3934 C   0  0  0  0  0  0  0  0  0  0  0  0
   11.8632    5.7484   -7.9436 S   0  0  0  0  0  0  0  0  0  0  0  0
   17.0466    6.2328   -9.0695 C   0  0  0  0  0  0  0  0  0  0  0  0
   18.0397    5.3743   -9.3777 C   0  0  0  0  0  0  0  0  0  0  0  0
   17.5310    3.7241   -9.4579 S   0  0  0  0  0  0  0  0  0  0  0  0
  -10.7973  -12.2300   13.5876 H   0  0  0  0  0  0  0  0  0  0  0  0
  -11.2824   -9.7380   14.1654 H   0  0  0  0  0  0  0  0  0  0  0  0
  -13.1644   -4.4049   16.3505 H   0  0  0  0  0  0  0  0  0  0  0  0
  -14.0451   -4.3416   14.8111 H   0  0  0  0  0  0  0  0  0  0  0  0
  -13.0658   -2.1251   15.3402 H   0  0  0  0  0  0  0  0  0  0  0  0
  -12.3082   -2.7975   13.8903 H   0  0  0  0  0  0  0  0  0  0  0  0
  -11.4545   -2.8425   15.4355 H   0  0  0  0  0  0  0  0  0  0  0  0
   -9.3027  -11.5613    4.8112 H   0  0  0  0  0  0  0  0  0  0  0  0
   -7.7095  -12.3084    5.0342 H   0  0  0  0  0  0  0  0  0  0  0  0
   -8.2176   -9.3394    4.4858 H   0  0  0  0  0  0  0  0  0  0  0  0
   -6.6289  -10.0824    4.6943 H   0  0  0  0  0  0  0  0  0  0  0  0
   -7.6295  -10.5171    3.3062 H   0  0  0  0  0  0  0  0  0  0  0  0
   -8.7718   -7.3772    7.8920 H   0  0  0  0  0  0  0  0  0  0  0  0
   -9.2323   -0.2712    6.8800 H   0  0  0  0  0  0  0  0  0  0  0  0
  -11.9552    2.0324   10.4257 H   0  0  0  0  0  0  0  0  0  0  0  0
  -12.3216    0.9859   11.8338 H   0  0  0  0  0  0  0  0  0  0  0  0
  -10.8125    2.8601   12.4968 H   0  0  0  0  0  0  0  0  0  0  0  0
   -9.9623    1.3124   12.6356 H   0  0  0  0  0  0  0  0  0  0  0  0
   -9.6513    2.3755   11.2543 H   0  0  0  0  0  0  0  0  0  0  0  0
   -8.1762   -0.5887    5.1040 H   0  0  0  0  0  0  0  0  0  0  0  0
   -7.8258    5.5418    4.1978 H   0  0  0  0  0  0  0  0  0  0  0  0
   -8.0811    5.2249    2.4702 H   0  0  0  0  0  0  0  0  0  0  0  0
  -10.2517    4.1126    2.9993 H   0  0  0  0  0  0  0  0  0  0  0  0
  -10.2280    5.7770    3.5931 H   0  0  0  0  0  0  0  0  0  0  0  0
   -9.9993    4.4345    4.7179 H   0  0  0  0  0  0  0  0  0  0  0  0
   -4.6342   -8.2109   -0.4544 H   0  0  0  0  0  0  0  0  0  0  0  0
   -6.3567   -7.8210   -0.6097 H   0  0  0  0  0  0  0  0  0  0  0  0
   -4.9778   -8.6992    1.9738 H   0  0  0  0  0  0  0  0  0  0  0  0
   -6.0277   -9.7038    0.9710 H   0  0  0  0  0  0  0  0  0  0  0  0
   -6.6893   -8.2956    1.8132 H   0  0  0  0  0  0  0  0  0  0  0  0
   -4.3520   -2.3239   -0.6353 H   0  0  0  0  0  0  0  0  0  0  0  0
   -2.3905   -1.7341   -1.5949 H   0  0  0  0  0  0  0  0  0  0  0  0
    1.9426   -5.5964   -1.9249 H   0  0  0  0  0  0  0  0  0  0  0  0
    0.6638   -6.5752   -2.6666 H   0  0  0  0  0  0  0  0  0  0  0  0
    2.8311   -6.9036   -3.8444 H   0  0  0  0  0  0  0  0  0  0  0  0
    1.6595   -6.1372   -4.9209 H   0  0  0  0  0  0  0  0  0  0  0  0
    2.9302   -5.1690   -4.1687 H   0  0  0  0  0  0  0  0  0  0  0  0
   -1.5369    8.1016   -3.3895 H   0  0  0  0  0  0  0  0  0  0  0  0
   -1.5733    7.4028   -1.7584 H   0  0  0  0  0  0  0  0  0  0  0  0
   -3.7614    8.4311   -2.3198 H   0  0  0  0  0  0  0  0  0  0  0  0
   -3.9005    7.3925   -3.7417 H   0  0  0  0  0  0  0  0  0  0  0  0
   -3.9351    6.6827   -2.1244 H   0  0  0  0  0  0  0  0  0  0  0  0
    1.5087    3.2479   -4.7561 H   0  0  0  0  0  0  0  0  0  0  0  0
    3.6719    3.8015   -5.4453 H   0  0  0  0  0  0  0  0  0  0  0  0
    6.1197    9.0634   -4.0147 H   0  0  0  0  0  0  0  0  0  0  0  0
    4.8077    9.6720   -5.0417 H   0  0  0  0  0  0  0  0  0  0  0  0
    7.7416    9.4100   -5.8767 H   0  0  0  0  0  0  0  0  0  0  0  0
    6.4408   10.0335   -6.8960 H   0  0  0  0  0  0  0  0  0  0  0  0
    6.9278   10.9196   -5.4475 H   0  0  0  0  0  0  0  0  0  0  0  0
    8.4991   -4.3112   -8.5927 H   0  0  0  0  0  0  0  0  0  0  0  0
    7.1080   -3.6847   -9.4991 H   0  0  0  0  0  0  0  0  0  0  0  0
    5.6633   -3.9863   -7.4873 H   0  0  0  0  0  0  0  0  0  0  0  0
    6.4088   -5.5144   -7.9716 H   0  0  0  0  0  0  0  0  0  0  0  0
    7.0452   -4.6191   -6.5881 H   0  0  0  0  0  0  0  0  0  0  0  0
    9.9576    1.6079   -8.0069 H   0  0  0  0  0  0  0  0  0  0  0  0
   12.1931    2.1879   -8.5708 H   0  0  0  0  0  0  0  0  0  0  0  0
   15.1701   -2.6892   -8.9711 H   0  0  0  0  0  0  0  0  0  0  0  0
   15.2579   -2.0772   -7.3110 H   0  0  0  0  0  0  0  0  0  0  0  0
   12.8192   -1.5944   -7.3415 H   0  0  0  0  0  0  0  0  0  0  0  0
   13.1303   -3.2999   -7.6794 H   0  0  0  0  0  0  0  0  0  0  0  0
   12.7099   -2.2024   -8.9968 H   0  0  0  0  0  0  0  0  0  0  0  0
   13.6106   12.0394   -7.7273 H   0  0  0  0  0  0  0  0  0  0  0  0
   12.6973   11.4127   -9.1136 H   0  0  0  0  0  0  0  0  0  0  0  0
   11.9401   11.0270   -6.1762 H   0  0  0  0  0  0  0  0  0  0  0  0
   11.1547   12.1336   -7.3074 H   0  0  0  0  0  0  0  0  0  0  0  0
   11.0399   10.3866   -7.5543 H   0  0  0  0  0  0  0  0  0  0  0  0
   17.1789    7.2964   -8.9971 H   0  0  0  0  0  0  0  0  0  0  0  0
   19.0687    5.6017   -9.5773 H   0  0  0  0  0  0  0  0  0  0  0  0
  1  2  2  0  0  0  0
  2  3  1  0  0  0  0
  3  4  2  0  0  0  0
  4  5  1  0  0  0  0
  5  6  1  0  0  0  0
  6  7  1  0  0  0  0
  7  8  1  0  0  0  0
  8  9  1  0  0  0  0
  7 10  2  0  0  0  0
 10 11  1  0  0  0  0
 10 12  1  0  0  0  0
 12 13  1  0  0  0  0
  4 14  1  0  0  0  0
 14 15  2  0  0  0  0
 15 16  1  0  0  0  0
 16 17  1  0  0  0  0
 17 18  1  0  0  0  0
 18 19  1  0  0  0  0
 19 20  1  0  0  0  0
 20 21  1  0  0  0  0
 19 22  2  0  0  0  0
 22 23  1  0  0  0  0
 23 24  1  0  0  0  0
 22 25  1  0  0  0  0
 16 26  2  0  0  0  0
 26 27  1  0  0  0  0
 15 28  1  0  0  0  0
 28 29  2  0  0  0  0
 29 30  1  0  0  0  0
 29 31  1  0  0  0  0
 31 32  1  0  0  0  0
 32 33  1  0  0  0  0
 33 34  2  0  0  0  0
 34 35  1  0  0  0  0
 35 36  2  0  0  0  0
 36 37  1  0  0  0  0
 37 38  2  0  0  0  0
 37 39  1  0  0  0  0
 39 40  1  0  0  0  0
 40 41  1  0  0  0  0
 36 42  1  0  0  0  0
 42 43  1  0  0  0  0
 33 44  1  0  0  0  0
 44 45  2  0  0  0  0
 45 46  1  0  0  0  0
 46 47  2  0  0  0  0
 47 48  1  0  0  0  0
 48 49  1  0  0  0  0
 49 50  1  0  0  0  0
 50 51  1  0  0  0  0
 51 52  1  0  0  0  0
 50 53  2  0  0  0  0
 53 54  1  0  0  0  0
 53 55  1  0  0  0  0
 55 56  1  0  0  0  0
 47 57  1  0  0  0  0
 57 58  2  0  0  0  0
 58 59  1  0  0  0  0
 59 60  1  0  0  0  0
 60 61  1  0  0  0  0
 61 62  1  0  0  0  0
 62 63  1  0  0  0  0
 63 64  1  0  0  0  0
 62 65  2  0  0  0  0
 65 66  1  0  0  0  0
 66 67  1  0  0  0  0
 65 68  1  0  0  0  0
 59 69  2  0  0  0  0
 69 70  1  0  0  0  0
 58 71  1  0  0  0  0
 71 72  2  0  0  0  0
 72 73  1  0  0  0  0
 72 74  1  0  0  0  0
 74 75  2  0  0  0  0
 75 76  1  0  0  0  0
 76 77  2  0  0  0  0
 77 78  1  0  0  0  0
 78 79  1  0  0  0  0
 79 80  1  0  0  0  0
 80 81  1  0  0  0  0
 81 82  1  0  0  0  0
 80 83  2  0  0  0  0
 83 84  1  0  0  0  0
 83 85  1  0  0  0  0
 85 86  1  0  0  0  0
 77 87  1  0  0  0  0
 87 88  2  0  0  0  0
 88 89  1  0  0  0  0
 89 90  1  0  0  0  0
 90 91  1  0  0  0  0
 91 92  1  0  0  0  0
 92 93  1  0  0  0  0
 93 94  1  0  0  0  0
 92 95  2  0  0  0  0
 95 96  1  0  0  0  0
 96 97  1  0  0  0  0
 95 98  1  0  0  0  0
 89 99  2  0  0  0  0
 99100  1  0  0  0  0
 88101  1  0  0  0  0
101102  2  0  0  0  0
102103  1  0  0  0  0
102104  1  0  0  0  0
104105  2  0  0  0  0
105106  1  0  0  0  0
106107  2  0  0  0  0
107108  1  0  0  0  0
108109  1  0  0  0  0
109110  1  0  0  0  0
110111  1  0  0  0  0
111112  1  0  0  0  0
110113  2  0  0  0  0
113114  1  0  0  0  0
113115  1  0  0  0  0
115116  1  0  0  0  0
107117  1  0  0  0  0
117118  2  0  0  0  0
118119  1  0  0  0  0
119120  1  0  0  0  0
120121  1  0  0  0  0
121122  1  0  0  0  0
122123  1  0  0  0  0
123124  1  0  0  0  0
122125  2  0  0  0  0
125126  1  0  0  0  0
126127  1  0  0  0  0
125128  1  0  0  0  0
119129  2  0  0  0  0
129130  1  0  0  0  0
118131  1  0  0  0  0
131132  2  0  0  0  0
132133  1  0  0  0  0
132134  1  0  0  0  0
134135  2  0  0  0  0
135136  1  0  0  0  0
136137  2  0  0  0  0
137138  1  0  0  0  0
138139  1  0  0  0  0
139140  1  0  0  0  0
140141  1  0  0  0  0
141142  1  0  0  0  0
140143  2  0  0  0  0
143144  1  0  0  0  0
143145  1  0  0  0  0
145146  1  0  0  0  0
137147  1  0  0  0  0
147148  2  0  0  0  0
148149  1  0  0  0  0
149150  1  0  0  0  0
150151  1  0  0  0  0
151152  1  0  0  0  0
152153  1  0  0  0  0
153154  1  0  0  0  0
152155  2  0  0  0  0
155156  1  0  0  0  0
156157  1  0  0  0  0
155158  1  0  0  0  0
149159  2  0  0  0  0
159160  1  0  0  0  0
148161  1  0  0  0  0
161162  2  0  0  0  0
162163  1  0  0  0  0
 27  1  1  0  0  0  0
 43 31  2  0  0  0  0
 70 44  1  0  0  0  0
100 74  1  0  0  0  0
130104  1  0  0  0  0
160134  1  0  0  0  0
 26  3  1  0  0  0  0
 43 34  1  0  0  0  0
 69 46  1  0  0  0  0
 99 76  1  0  0  0  0
129106  1  0  0  0  0
159136  1  0  0  0  0
 12  5  2  0  0  0  0
 30 14  1  0  0  0  0
 55 48  2  0  0  0  0
 73 57  1  0  0  0  0
 85 78  2  0  0  0  0
103 87  1  0  0  0  0
115108  2  0  0  0  0
133117  1  0  0  0  0
145138  2  0  0  0  0
163147  1  0  0  0  0
 23 17  2  0  0  0  0
 66 60  2  0  0  0  0
 96 90  2  0  0  0  0
126120  2  0  0  0  0
156150  2  0  0  0  0
  1164  1  0  0  0  0
  2165  1  0  0  0  0
  8166  1  0  0  0  0
  8167  1  0  0  0  0
  9168  1  0  0  0  0
  9169  1  0  0  0  0
  9170  1  0  0  0  0
 20171  1  0  0  0  0
 20172  1  0  0  0  0
 21173  1  0  0  0  0
 21174  1  0  0  0  0
 21175  1  0  0  0  0
 28176  1  0  0  0  0
 35177  1  0  0  0  0
 40178  1  0  0  0  0
 40179  1  0  0  0  0
 41180  1  0  0  0  0
 41181  1  0  0  0  0
 41182  1  0  0  0  0
 45183  1  0  0  0  0
 51184  1  0  0  0  0
 51185  1  0  0  0  0
 52186  1  0  0  0  0
 52187  1  0  0  0  0
 52188  1  0  0  0  0
 63189  1  0  0  0  0
 63190  1  0  0  0  0
 64191  1  0  0  0  0
 64192  1  0  0  0  0
 64193  1  0  0  0  0
 71194  1  0  0  0  0
 75195  1  0  0  0  0
 81196  1  0  0  0  0
 81197  1  0  0  0  0
 82198  1  0  0  0  0
 82199  1  0  0  0  0
 82200  1  0  0  0  0
 93201  1  0  0  0  0
 93202  1  0  0  0  0
 94203  1  0  0  0  0
 94204  1  0  0  0  0
 94205  1  0  0  0  0
101206  1  0  0  0  0
105207  1  0  0  0  0
111208  1  0  0  0  0
111209  1  0  0  0  0
112210  1  0  0  0  0
112211  1  0  0  0  0
112212  1  0  0  0  0
123213  1  0  0  0  0
123214  1  0  0  0  0
124215  1  0  0  0  0
124216  1  0  0  0  0
124217  1  0  0  0  0
131218  1  0  0  0  0
135219  1  0  0  0  0
141220  1  0  0  0  0
141221  1  0  0  0  0
142222  1  0  0  0  0
142223  1  0  0  0  0
142224  1  0  0  0  0
153225  1  0  0  0  0
153226  1  0  0  0  0
154227  1  0  0  0  0
154228  1  0  0  0  0
154229  1  0  0  0  0
161230  1  0  0  0  0
162231  1  0  0  0  0
M  END
