
  xtb     03022222433D
 energy: -365.442883788258 gnorm: 0.000185294846 xtb: 6.4.1 (unknown)
185205  0     0  0            999 V2000
    6.4501   -8.7513   11.7747 C   0  0  0  0  0  0  0  0  0  0  0  0
    5.1847   -8.5994   12.2159 C   0  0  0  0  0  0  0  0  0  0  0  0
    4.3199   -8.0335   11.2345 C   0  0  0  0  0  0  0  0  0  0  0  0
    2.9626   -7.6940   11.3645 C   0  0  0  0  0  0  0  0  0  0  0  0
    2.2156   -8.0065   12.5719 C   0  0  0  0  0  0  0  0  0  0  0  0
    1.3126   -6.7887   13.4215 S   0  0  0  0  0  0  0  0  0  0  0  0
    0.7627   -7.9173   14.6118 C   0  0  0  0  0  0  0  0  0  0  0  0
   -0.0818   -7.4812   15.7578 C   0  0  0  0  0  0  0  0  0  0  0  0
    0.7835   -6.9838   16.9182 C   0  0  0  0  0  0  0  0  0  0  0  0
    1.2611   -9.1597   14.3544 C   0  0  0  0  0  0  0  0  0  0  0  0
    0.9312  -10.5415   15.3173 Cl  0  0  0  0  0  0  0  0  0  0  0  0
    2.0816   -9.2156   13.1962 C   0  0  0  0  0  0  0  0  0  0  0  0
    2.7595  -10.6809   12.6128 Cl  0  0  0  0  0  0  0  0  0  0  0  0
    2.3665   -7.0493   10.2892 C   0  0  0  0  0  0  0  0  0  0  0  0
    3.0602   -6.7740    9.0863 C   0  0  0  0  0  0  0  0  0  0  0  0
    4.4124   -7.1351    8.9436 C   0  0  0  0  0  0  0  0  0  0  0  0
    5.1110   -6.8297    7.7068 C   0  0  0  0  0  0  0  0  0  0  0  0
    5.0510   -5.2213    7.0443 S   0  0  0  0  0  0  0  0  0  0  0  0
    5.9180   -5.6856    5.6213 C   0  0  0  0  0  0  0  0  0  0  0  0
    6.0858   -4.7183    4.5022 C   0  0  0  0  0  0  0  0  0  0  0  0
    4.7394   -4.4783    3.8118 C   0  0  0  0  0  0  0  0  0  0  0  0
    6.2576   -7.0033    5.6861 C   0  0  0  0  0  0  0  0  0  0  0  0
    5.8098   -7.6537    6.8698 C   0  0  0  0  0  0  0  0  0  0  0  0
    6.0429   -9.3294    7.1398 Cl  0  0  0  0  0  0  0  0  0  0  0  0
    7.1233   -7.8318    4.4574 Cl  0  0  0  0  0  0  0  0  0  0  0  0
    5.0129   -7.7575   10.0299 C   0  0  0  0  0  0  0  0  0  0  0  0
    6.6855   -8.2212   10.1460 S   0  0  0  0  0  0  0  0  0  0  0  0
    2.2249   -6.1580    8.1296 C   0  0  0  0  0  0  0  0  0  0  0  0
    0.9523   -5.9330    8.5731 C   0  0  0  0  0  0  0  0  0  0  0  0
    0.7064   -6.5132   10.2070 S   0  0  0  0  0  0  0  0  0  0  0  0
   -0.0616   -5.2796    7.8292 C   0  0  0  0  0  0  0  0  0  0  0  0
    0.3086   -4.6673    6.2351 S   0  0  0  0  0  0  0  0  0  0  0  0
   -1.2890   -4.0043    6.0018 C   0  0  0  0  0  0  0  0  0  0  0  0
   -2.0768   -4.2534    7.1270 C   0  0  0  0  0  0  0  0  0  0  0  0
   -3.3870   -3.9339    7.5523 C   0  0  0  0  0  0  0  0  0  0  0  0
   -3.6547   -4.3977    8.8056 C   0  0  0  0  0  0  0  0  0  0  0  0
   -4.9089   -4.2287    9.5391 C   0  0  0  0  0  0  0  0  0  0  0  0
   -5.8768   -3.6490    9.1100 O   0  0  0  0  0  0  0  0  0  0  0  0
   -4.8387   -4.8104   10.7437 O   0  0  0  0  0  0  0  0  0  0  0  0
   -5.9850   -4.6990   11.5848 C   0  0  0  0  0  0  0  0  0  0  0  0
   -5.9968   -3.3730   12.3319 C   0  0  0  0  0  0  0  0  0  0  0  0
   -2.3234   -5.2526    9.5549 S   0  0  0  0  0  0  0  0  0  0  0  0
   -1.3667   -4.9717    8.1379 C   0  0  0  0  0  0  0  0  0  0  0  0
   -1.5426   -3.3311    4.7867 C   0  0  0  0  0  0  0  0  0  0  0  0
   -0.1654   -2.8804    3.7913 S   0  0  0  0  0  0  0  0  0  0  0  0
   -1.1611   -2.1793    2.5474 C   0  0  0  0  0  0  0  0  0  0  0  0
   -2.5099   -2.3024    2.8905 C   0  0  0  0  0  0  0  0  0  0  0  0
   -3.7311   -1.9520    2.2706 C   0  0  0  0  0  0  0  0  0  0  0  0
   -4.8095   -2.3192    3.0176 C   0  0  0  0  0  0  0  0  0  0  0  0
   -6.2187   -2.1110    2.6798 C   0  0  0  0  0  0  0  0  0  0  0  0
   -6.6033   -1.5914    1.6605 O   0  0  0  0  0  0  0  0  0  0  0  0
   -7.0106   -2.5628    3.6581 O   0  0  0  0  0  0  0  0  0  0  0  0
   -8.4191   -2.4428    3.4661 C   0  0  0  0  0  0  0  0  0  0  0  0
   -8.9664   -3.6068    2.6527 C   0  0  0  0  0  0  0  0  0  0  0  0
   -4.3936   -3.1098    4.5194 S   0  0  0  0  0  0  0  0  0  0  0  0
   -2.7077   -2.9418    4.1481 C   0  0  0  0  0  0  0  0  0  0  0  0
   -0.5821   -1.5825    1.4138 C   0  0  0  0  0  0  0  0  0  0  0  0
   -1.5507   -0.8785    0.1368 S   0  0  0  0  0  0  0  0  0  0  0  0
   -0.1641   -0.3562   -0.7714 C   0  0  0  0  0  0  0  0  0  0  0  0
    1.0108   -0.7142   -0.1073 C   0  0  0  0  0  0  0  0  0  0  0  0
    2.3967   -0.5335   -0.3222 C   0  0  0  0  0  0  0  0  0  0  0  0
    3.1545   -1.0794    0.6701 C   0  0  0  0  0  0  0  0  0  0  0  0
    4.6166   -1.0291    0.7091 C   0  0  0  0  0  0  0  0  0  0  0  0
    5.2843   -0.4604   -0.1222 O   0  0  0  0  0  0  0  0  0  0  0  0
    5.1122   -1.6708    1.7726 O   0  0  0  0  0  0  0  0  0  0  0  0
    6.5344   -1.6833    1.9125 C   0  0  0  0  0  0  0  0  0  0  0  0
    7.1664   -2.7967    1.0898 C   0  0  0  0  0  0  0  0  0  0  0  0
    2.2184   -1.8491    1.9349 S   0  0  0  0  0  0  0  0  0  0  0  0
    0.7595   -1.4098    1.1081 C   0  0  0  0  0  0  0  0  0  0  0  0
   -0.3255    0.3507   -1.9867 C   0  0  0  0  0  0  0  0  0  0  0  0
    0.6524    0.7659   -2.8515 C   0  0  0  0  0  0  0  0  0  0  0  0
    0.1652    1.5085   -3.9470 C   0  0  0  0  0  0  0  0  0  0  0  0
    0.9147    2.1283   -4.9671 C   0  0  0  0  0  0  0  0  0  0  0  0
    2.3661    2.0627   -4.9591 C   0  0  0  0  0  0  0  0  0  0  0  0
    3.2711    2.4666   -3.5256 S   0  0  0  0  0  0  0  0  0  0  0  0
    4.7878    2.1107   -4.2787 C   0  0  0  0  0  0  0  0  0  0  0  0
    6.0641    2.2559   -3.5271 C   0  0  0  0  0  0  0  0  0  0  0  0
    6.3666    3.7230   -3.2184 C   0  0  0  0  0  0  0  0  0  0  0  0
    4.5898    1.7221   -5.5697 C   0  0  0  0  0  0  0  0  0  0  0  0
    5.8532    1.2839   -6.6454 Cl  0  0  0  0  0  0  0  0  0  0  0  0
    3.2222    1.6901   -5.9584 C   0  0  0  0  0  0  0  0  0  0  0  0
    2.7276    1.1306   -7.5002 Cl  0  0  0  0  0  0  0  0  0  0  0  0
    0.1980    2.8072   -5.9429 C   0  0  0  0  0  0  0  0  0  0  0  0
   -1.2202    2.8686   -5.9534 C   0  0  0  0  0  0  0  0  0  0  0  0
   -1.9635    2.2828   -4.9127 C   0  0  0  0  0  0  0  0  0  0  0  0
   -3.4085    2.4143   -4.8435 C   0  0  0  0  0  0  0  0  0  0  0  0
   -4.4299    1.0285   -4.5977 S   0  0  0  0  0  0  0  0  0  0  0  0
   -5.8678    1.9893   -4.6013 C   0  0  0  0  0  0  0  0  0  0  0  0
   -7.2126    1.3647   -4.4702 C   0  0  0  0  0  0  0  0  0  0  0  0
   -7.7236    0.8722   -5.8262 C   0  0  0  0  0  0  0  0  0  0  0  0
   -5.5593    3.3040   -4.7886 C   0  0  0  0  0  0  0  0  0  0  0  0
   -4.1665    3.5510   -4.9198 C   0  0  0  0  0  0  0  0  0  0  0  0
   -3.5261    5.1373   -5.0647 Cl  0  0  0  0  0  0  0  0  0  0  0  0
   -6.7249    4.5618   -4.8512 Cl  0  0  0  0  0  0  0  0  0  0  0  0
   -1.2479    1.6071   -3.9350 C   0  0  0  0  0  0  0  0  0  0  0  0
   -1.9246    0.8283   -2.5331 S   0  0  0  0  0  0  0  0  0  0  0  0
   -1.7073    3.5792   -7.0751 C   0  0  0  0  0  0  0  0  0  0  0  0
   -0.7213    4.1125   -7.8521 C   0  0  0  0  0  0  0  0  0  0  0  0
    0.8777    3.7219   -7.2575 S   0  0  0  0  0  0  0  0  0  0  0  0
   -0.8802    4.9281   -9.0100 C   0  0  0  0  0  0  0  0  0  0  0  0
    0.0891    5.5814   -9.7109 C   0  0  0  0  0  0  0  0  0  0  0  0
   -0.4162    6.3577  -10.7831 C   0  0  0  0  0  0  0  0  0  0  0  0
    0.3030    7.1404  -11.7016 C   0  0  0  0  0  0  0  0  0  0  0  0
    1.7328    7.3465  -11.5522 C   0  0  0  0  0  0  0  0  0  0  0  0
    2.8397    7.0808  -12.8655 S   0  0  0  0  0  0  0  0  0  0  0  0
    4.2068    7.5330  -11.9075 C   0  0  0  0  0  0  0  0  0  0  0  0
    5.5775    7.5765  -12.4867 C   0  0  0  0  0  0  0  0  0  0  0  0
    5.8652    8.9499  -13.0986 C   0  0  0  0  0  0  0  0  0  0  0  0
    3.8114    7.8808  -10.6500 C   0  0  0  0  0  0  0  0  0  0  0  0
    4.8884    8.3994   -9.4190 Cl  0  0  0  0  0  0  0  0  0  0  0  0
    2.4111    7.7709  -10.4419 C   0  0  0  0  0  0  0  0  0  0  0  0
    1.6613    8.2162   -8.9629 Cl  0  0  0  0  0  0  0  0  0  0  0  0
   -0.4212    7.7200  -12.7365 C   0  0  0  0  0  0  0  0  0  0  0  0
   -1.8240    7.5883  -12.8652 C   0  0  0  0  0  0  0  0  0  0  0  0
   -2.5504    6.8516  -11.9160 C   0  0  0  0  0  0  0  0  0  0  0  0
   -3.9947    6.7030  -12.0009 C   0  0  0  0  0  0  0  0  0  0  0  0
   -4.7547    6.0882  -13.4398 S   0  0  0  0  0  0  0  0  0  0  0  0
   -6.3341    6.1686  -12.7370 C   0  0  0  0  0  0  0  0  0  0  0  0
   -7.5360    5.7005  -13.4805 C   0  0  0  0  0  0  0  0  0  0  0  0
   -7.7364    4.1936  -13.3010 C   0  0  0  0  0  0  0  0  0  0  0  0
   -6.2593    6.6406  -11.4611 C   0  0  0  0  0  0  0  0  0  0  0  0
   -4.9367    6.9475  -11.0405 C   0  0  0  0  0  0  0  0  0  0  0  0
   -4.5990    7.6326   -9.5063 Cl  0  0  0  0  0  0  0  0  0  0  0  0
   -7.6218    6.8612  -10.4420 Cl  0  0  0  0  0  0  0  0  0  0  0  0
   -1.8242    6.2476  -10.8968 C   0  0  0  0  0  0  0  0  0  0  0  0
   -2.4813    5.2221   -9.6554 S   0  0  0  0  0  0  0  0  0  0  0  0
   -2.3177    8.3159  -13.9874 C   0  0  0  0  0  0  0  0  0  0  0  0
   -1.3437    8.9553  -14.6661 C   0  0  0  0  0  0  0  0  0  0  0  0
    0.2341    8.7289  -13.9954 S   0  0  0  0  0  0  0  0  0  0  0  0
    7.2901   -9.1501   12.3092 H   0  0  0  0  0  0  0  0  0  0  0  0
    4.8652   -8.8606   13.2076 H   0  0  0  0  0  0  0  0  0  0  0  0
   -0.6860   -8.3274   16.0900 H   0  0  0  0  0  0  0  0  0  0  0  0
   -0.7475   -6.6809   15.4309 H   0  0  0  0  0  0  0  0  0  0  0  0
    1.3888   -6.1379   16.6014 H   0  0  0  0  0  0  0  0  0  0  0  0
    0.1535   -6.6723   17.7469 H   0  0  0  0  0  0  0  0  0  0  0  0
    1.4443   -7.7757   17.2616 H   0  0  0  0  0  0  0  0  0  0  0  0
    6.8089   -5.1225    3.7923 H   0  0  0  0  0  0  0  0  0  0  0  0
    6.4671   -3.7722    4.8915 H   0  0  0  0  0  0  0  0  0  0  0  0
    4.3657   -5.4053    3.3839 H   0  0  0  0  0  0  0  0  0  0  0  0
    4.0095   -4.1104    4.5294 H   0  0  0  0  0  0  0  0  0  0  0  0
    4.8376   -3.7414    3.0212 H   0  0  0  0  0  0  0  0  0  0  0  0
    2.5358   -5.8867    7.1378 H   0  0  0  0  0  0  0  0  0  0  0  0
   -4.1108   -3.3830    6.9833 H   0  0  0  0  0  0  0  0  0  0  0  0
   -5.9118   -5.5415   12.2754 H   0  0  0  0  0  0  0  0  0  0  0  0
   -6.8858   -4.7948   10.9693 H   0  0  0  0  0  0  0  0  0  0  0  0
   -6.8451   -3.3439   13.0096 H   0  0  0  0  0  0  0  0  0  0  0  0
   -6.0820   -2.5507   11.6255 H   0  0  0  0  0  0  0  0  0  0  0  0
   -5.0790   -3.2556   12.9032 H   0  0  0  0  0  0  0  0  0  0  0  0
   -3.8308   -1.4569    1.3226 H   0  0  0  0  0  0  0  0  0  0  0  0
   -8.6261   -1.4945    2.9588 H   0  0  0  0  0  0  0  0  0  0  0  0
   -8.8410   -2.4303    4.4728 H   0  0  0  0  0  0  0  0  0  0  0  0
  -10.0463   -3.5203    2.5748 H   0  0  0  0  0  0  0  0  0  0  0  0
   -8.5388   -3.5949    1.6529 H   0  0  0  0  0  0  0  0  0  0  0  0
   -8.7182   -4.5498    3.1337 H   0  0  0  0  0  0  0  0  0  0  0  0
    2.8494   -0.0172   -1.1469 H   0  0  0  0  0  0  0  0  0  0  0  0
    6.9265   -0.7114    1.5962 H   0  0  0  0  0  0  0  0  0  0  0  0
    6.7119   -1.8284    2.9798 H   0  0  0  0  0  0  0  0  0  0  0  0
    6.7399   -3.7592    1.3612 H   0  0  0  0  0  0  0  0  0  0  0  0
    6.9938   -2.6197    0.0310 H   0  0  0  0  0  0  0  0  0  0  0  0
    8.2367   -2.8186    1.2723 H   0  0  0  0  0  0  0  0  0  0  0  0
    1.6893    0.5351   -2.7176 H   0  0  0  0  0  0  0  0  0  0  0  0
    6.8685    1.8290   -4.1281 H   0  0  0  0  0  0  0  0  0  0  0  0
    5.9959    1.6963   -2.5907 H   0  0  0  0  0  0  0  0  0  0  0  0
    7.3018    3.8030   -2.6712 H   0  0  0  0  0  0  0  0  0  0  0  0
    5.5711    4.1530   -2.6143 H   0  0  0  0  0  0  0  0  0  0  0  0
    6.4516    4.2948   -4.1395 H   0  0  0  0  0  0  0  0  0  0  0  0
   -7.1547    0.5249   -3.7759 H   0  0  0  0  0  0  0  0  0  0  0  0
   -7.9041    2.1064   -4.0663 H   0  0  0  0  0  0  0  0  0  0  0  0
   -7.0452    0.1284   -6.2374 H   0  0  0  0  0  0  0  0  0  0  0  0
   -8.7070    0.4239   -5.7134 H   0  0  0  0  0  0  0  0  0  0  0  0
   -7.7965    1.7014   -6.5254 H   0  0  0  0  0  0  0  0  0  0  0  0
   -2.7504    3.6959   -7.3056 H   0  0  0  0  0  0  0  0  0  0  0  0
    1.1331    5.4980   -9.4691 H   0  0  0  0  0  0  0  0  0  0  0  0
    5.6701    6.8081  -13.2558 H   0  0  0  0  0  0  0  0  0  0  0  0
    6.3010    7.3711  -11.6953 H   0  0  0  0  0  0  0  0  0  0  0  0
    6.8669    8.9684  -13.5191 H   0  0  0  0  0  0  0  0  0  0  0  0
    5.1496    9.1684  -13.8877 H   0  0  0  0  0  0  0  0  0  0  0  0
    5.7917    9.7234  -12.3385 H   0  0  0  0  0  0  0  0  0  0  0  0
   -7.4180    5.9276  -14.5414 H   0  0  0  0  0  0  0  0  0  0  0  0
   -8.4107    6.2328  -13.1022 H   0  0  0  0  0  0  0  0  0  0  0  0
   -6.8718    3.6506  -13.6754 H   0  0  0  0  0  0  0  0  0  0  0  0
   -8.6175    3.8668  -13.8463 H   0  0  0  0  0  0  0  0  0  0  0  0
   -7.8684    3.9544  -12.2489 H   0  0  0  0  0  0  0  0  0  0  0  0
   -3.3564    8.3532  -14.2592 H   0  0  0  0  0  0  0  0  0  0  0  0
   -1.4441    9.5666  -15.5415 H   0  0  0  0  0  0  0  0  0  0  0  0
  1  2  2  0  0  0  0
  2  3  1  0  0  0  0
  3  4  2  0  0  0  0
  4  5  1  0  0  0  0
  5  6  1  0  0  0  0
  6  7  1  0  0  0  0
  7  8  1  0  0  0  0
  8  9  1  0  0  0  0
  7 10  2  0  0  0  0
 10 11  1  0  0  0  0
 10 12  1  0  0  0  0
 12 13  1  0  0  0  0
  4 14  1  0  0  0  0
 14 15  2  0  0  0  0
 15 16  1  0  0  0  0
 16 17  1  0  0  0  0
 17 18  1  0  0  0  0
 18 19  1  0  0  0  0
 19 20  1  0  0  0  0
 20 21  1  0  0  0  0
 19 22  2  0  0  0  0
 22 23  1  0  0  0  0
 23 24  1  0  0  0  0
 22 25  1  0  0  0  0
 16 26  2  0  0  0  0
 26 27  1  0  0  0  0
 15 28  1  0  0  0  0
 28 29  2  0  0  0  0
 29 30  1  0  0  0  0
 29 31  1  0  0  0  0
 31 32  1  0  0  0  0
 32 33  1  0  0  0  0
 33 34  2  0  0  0  0
 34 35  1  0  0  0  0
 35 36  2  0  0  0  0
 36 37  1  0  0  0  0
 37 38  2  0  0  0  0
 37 39  1  0  0  0  0
 39 40  1  0  0  0  0
 40 41  1  0  0  0  0
 36 42  1  0  0  0  0
 42 43  1  0  0  0  0
 33 44  1  0  0  0  0
 44 45  1  0  0  0  0
 45 46  1  0  0  0  0
 46 47  2  0  0  0  0
 47 48  1  0  0  0  0
 48 49  2  0  0  0  0
 49 50  1  0  0  0  0
 50 51  2  0  0  0  0
 50 52  1  0  0  0  0
 52 53  1  0  0  0  0
 53 54  1  0  0  0  0
 49 55  1  0  0  0  0
 55 56  1  0  0  0  0
 46 57  1  0  0  0  0
 57 58  1  0  0  0  0
 58 59  1  0  0  0  0
 59 60  2  0  0  0  0
 60 61  1  0  0  0  0
 61 62  2  0  0  0  0
 62 63  1  0  0  0  0
 63 64  2  0  0  0  0
 63 65  1  0  0  0  0
 65 66  1  0  0  0  0
 66 67  1  0  0  0  0
 62 68  1  0  0  0  0
 68 69  1  0  0  0  0
 59 70  1  0  0  0  0
 70 71  2  0  0  0  0
 71 72  1  0  0  0  0
 72 73  2  0  0  0  0
 73 74  1  0  0  0  0
 74 75  1  0  0  0  0
 75 76  1  0  0  0  0
 76 77  1  0  0  0  0
 77 78  1  0  0  0  0
 76 79  2  0  0  0  0
 79 80  1  0  0  0  0
 79 81  1  0  0  0  0
 81 82  1  0  0  0  0
 73 83  1  0  0  0  0
 83 84  2  0  0  0  0
 84 85  1  0  0  0  0
 85 86  1  0  0  0  0
 86 87  1  0  0  0  0
 87 88  1  0  0  0  0
 88 89  1  0  0  0  0
 89 90  1  0  0  0  0
 88 91  2  0  0  0  0
 91 92  1  0  0  0  0
 92 93  1  0  0  0  0
 91 94  1  0  0  0  0
 85 95  2  0  0  0  0
 95 96  1  0  0  0  0
 84 97  1  0  0  0  0
 97 98  2  0  0  0  0
 98 99  1  0  0  0  0
 98100  1  0  0  0  0
100101  2  0  0  0  0
101102  1  0  0  0  0
102103  2  0  0  0  0
103104  1  0  0  0  0
104105  1  0  0  0  0
105106  1  0  0  0  0
106107  1  0  0  0  0
107108  1  0  0  0  0
106109  2  0  0  0  0
109110  1  0  0  0  0
109111  1  0  0  0  0
111112  1  0  0  0  0
103113  1  0  0  0  0
113114  2  0  0  0  0
114115  1  0  0  0  0
115116  1  0  0  0  0
116117  1  0  0  0  0
117118  1  0  0  0  0
118119  1  0  0  0  0
119120  1  0  0  0  0
118121  2  0  0  0  0
121122  1  0  0  0  0
122123  1  0  0  0  0
121124  1  0  0  0  0
115125  2  0  0  0  0
125126  1  0  0  0  0
114127  1  0  0  0  0
127128  2  0  0  0  0
128129  1  0  0  0  0
 27  1  1  0  0  0  0
 43 31  2  0  0  0  0
 56 44  2  0  0  0  0
 69 57  2  0  0  0  0
 96 70  1  0  0  0  0
126100  1  0  0  0  0
 26  3  1  0  0  0  0
 43 34  1  0  0  0  0
 56 47  1  0  0  0  0
 69 60  1  0  0  0  0
 95 72  1  0  0  0  0
125102  1  0  0  0  0
 12  5  2  0  0  0  0
 30 14  1  0  0  0  0
 81 74  2  0  0  0  0
 99 83  1  0  0  0  0
111104  2  0  0  0  0
129113  1  0  0  0  0
 23 17  2  0  0  0  0
 92 86  2  0  0  0  0
122116  2  0  0  0  0
  1130  1  0  0  0  0
  2131  1  0  0  0  0
  8132  1  0  0  0  0
  8133  1  0  0  0  0
  9134  1  0  0  0  0
  9135  1  0  0  0  0
  9136  1  0  0  0  0
 20137  1  0  0  0  0
 20138  1  0  0  0  0
 21139  1  0  0  0  0
 21140  1  0  0  0  0
 21141  1  0  0  0  0
 28142  1  0  0  0  0
 35143  1  0  0  0  0
 40144  1  0  0  0  0
 40145  1  0  0  0  0
 41146  1  0  0  0  0
 41147  1  0  0  0  0
 41148  1  0  0  0  0
 48149  1  0  0  0  0
 53150  1  0  0  0  0
 53151  1  0  0  0  0
 54152  1  0  0  0  0
 54153  1  0  0  0  0
 54154  1  0  0  0  0
 61155  1  0  0  0  0
 66156  1  0  0  0  0
 66157  1  0  0  0  0
 67158  1  0  0  0  0
 67159  1  0  0  0  0
 67160  1  0  0  0  0
 71161  1  0  0  0  0
 77162  1  0  0  0  0
 77163  1  0  0  0  0
 78164  1  0  0  0  0
 78165  1  0  0  0  0
 78166  1  0  0  0  0
 89167  1  0  0  0  0
 89168  1  0  0  0  0
 90169  1  0  0  0  0
 90170  1  0  0  0  0
 90171  1  0  0  0  0
 97172  1  0  0  0  0
101173  1  0  0  0  0
107174  1  0  0  0  0
107175  1  0  0  0  0
108176  1  0  0  0  0
108177  1  0  0  0  0
108178  1  0  0  0  0
119179  1  0  0  0  0
119180  1  0  0  0  0
120181  1  0  0  0  0
120182  1  0  0  0  0
120183  1  0  0  0  0
127184  1  0  0  0  0
128185  1  0  0  0  0
M  END
