
  xtb     03022210323D
 energy: -460.445243970393 gnorm: 0.000219265445 xtb: 6.4.1 (unknown)
231257  0     0  0            999 V2000
    4.0127   -6.6776    6.2935 C   0  0  0  0  0  0  0  0  0  0  0  0
    3.7005   -6.6887    4.9819 C   0  0  0  0  0  0  0  0  0  0  0  0
    2.3978   -6.1711    4.7197 C   0  0  0  0  0  0  0  0  0  0  0  0
    1.7640   -5.9918    3.4798 C   0  0  0  0  0  0  0  0  0  0  0  0
    2.3932   -6.4050    2.2364 C   0  0  0  0  0  0  0  0  0  0  0  0
    2.9873   -8.0261    2.0421 S   0  0  0  0  0  0  0  0  0  0  0  0
    3.4814   -7.7406    0.4111 C   0  0  0  0  0  0  0  0  0  0  0  0
    4.0574   -8.8343   -0.4171 C   0  0  0  0  0  0  0  0  0  0  0  0
    2.9838   -9.4745   -1.3002 C   0  0  0  0  0  0  0  0  0  0  0  0
    3.1964   -6.4576    0.0509 C   0  0  0  0  0  0  0  0  0  0  0  0
    3.5384   -5.7906   -1.4922 Cl  0  0  0  0  0  0  0  0  0  0  0  0
    2.5804   -5.6979    1.0805 C   0  0  0  0  0  0  0  0  0  0  0  0
    2.2016   -4.0403    0.8725 Cl  0  0  0  0  0  0  0  0  0  0  0  0
    0.4934   -5.4281    3.4956 C   0  0  0  0  0  0  0  0  0  0  0  0
   -0.1513   -5.0153    4.6876 C   0  0  0  0  0  0  0  0  0  0  0  0
    0.4867   -5.1859    5.9275 C   0  0  0  0  0  0  0  0  0  0  0  0
   -0.1543   -4.7619    7.1614 C   0  0  0  0  0  0  0  0  0  0  0  0
   -0.7339   -3.1320    7.3502 S   0  0  0  0  0  0  0  0  0  0  0  0
   -1.3215   -3.4395    8.9501 C   0  0  0  0  0  0  0  0  0  0  0  0
   -2.0356   -2.3822    9.7168 C   0  0  0  0  0  0  0  0  0  0  0  0
   -3.3713   -2.0329    9.0583 C   0  0  0  0  0  0  0  0  0  0  0  0
   -1.0737   -4.7322    9.3013 C   0  0  0  0  0  0  0  0  0  0  0  0
   -0.4077   -5.4832    8.2936 C   0  0  0  0  0  0  0  0  0  0  0  0
   -0.0557   -7.1500    8.4746 Cl  0  0  0  0  0  0  0  0  0  0  0  0
   -1.5139   -5.4199   10.8108 Cl  0  0  0  0  0  0  0  0  0  0  0  0
    1.7488   -5.7680    5.9121 C   0  0  0  0  0  0  0  0  0  0  0  0
    2.7602   -6.0426    7.3020 S   0  0  0  0  0  0  0  0  0  0  0  0
   -1.4495   -4.5048    4.4384 C   0  0  0  0  0  0  0  0  0  0  0  0
   -1.7980   -4.5282    3.1203 C   0  0  0  0  0  0  0  0  0  0  0  0
   -0.5324   -5.1935    2.1118 S   0  0  0  0  0  0  0  0  0  0  0  0
   -2.9980   -4.0237    2.5296 C   0  0  0  0  0  0  0  0  0  0  0  0
   -3.8855   -3.1486    3.0864 C   0  0  0  0  0  0  0  0  0  0  0  0
   -4.9155   -2.7448    2.2016 C   0  0  0  0  0  0  0  0  0  0  0  0
   -5.8819   -1.7373    2.3997 C   0  0  0  0  0  0  0  0  0  0  0  0
   -6.0160   -1.0560    3.6756 C   0  0  0  0  0  0  0  0  0  0  0  0
   -6.0365    0.6818    3.7650 S   0  0  0  0  0  0  0  0  0  0  0  0
   -6.2067    0.6721    5.4866 C   0  0  0  0  0  0  0  0  0  0  0  0
   -6.2728    1.9473    6.2518 C   0  0  0  0  0  0  0  0  0  0  0  0
   -4.9634    2.7300    6.1467 C   0  0  0  0  0  0  0  0  0  0  0  0
   -6.2410   -0.6089    5.9508 C   0  0  0  0  0  0  0  0  0  0  0  0
   -6.4179   -1.0284    7.6061 Cl  0  0  0  0  0  0  0  0  0  0  0  0
   -6.1323   -1.5907    4.9293 C   0  0  0  0  0  0  0  0  0  0  0  0
   -6.2255   -3.2731    5.2618 Cl  0  0  0  0  0  0  0  0  0  0  0  0
   -6.6245   -1.3556    1.2903 C   0  0  0  0  0  0  0  0  0  0  0  0
   -6.4974   -1.9840    0.0271 C   0  0  0  0  0  0  0  0  0  0  0  0
   -5.5467   -2.9982   -0.1671 C   0  0  0  0  0  0  0  0  0  0  0  0
   -5.2837   -3.5165   -1.5028 C   0  0  0  0  0  0  0  0  0  0  0  0
   -5.3936   -5.2070   -1.8813 S   0  0  0  0  0  0  0  0  0  0  0  0
   -4.9728   -4.9422   -3.5398 C   0  0  0  0  0  0  0  0  0  0  0  0
   -4.8326   -6.0797   -4.4897 C   0  0  0  0  0  0  0  0  0  0  0  0
   -3.4567   -6.7359   -4.3521 C   0  0  0  0  0  0  0  0  0  0  0  0
   -4.7466   -3.6173   -3.7652 C   0  0  0  0  0  0  0  0  0  0  0  0
   -4.9210   -2.8050   -2.6134 C   0  0  0  0  0  0  0  0  0  0  0  0
   -4.6218   -1.1116   -2.6327 Cl  0  0  0  0  0  0  0  0  0  0  0  0
   -4.3154   -2.9581   -5.2892 Cl  0  0  0  0  0  0  0  0  0  0  0  0
   -4.7773   -3.3551    0.9295 C   0  0  0  0  0  0  0  0  0  0  0  0
   -3.4134   -4.4328    0.8801 S   0  0  0  0  0  0  0  0  0  0  0  0
   -7.2550   -1.3324   -0.9724 C   0  0  0  0  0  0  0  0  0  0  0  0
   -7.8443   -0.1778   -0.5418 C   0  0  0  0  0  0  0  0  0  0  0  0
   -7.6924    0.0209    1.1977 S   0  0  0  0  0  0  0  0  0  0  0  0
   -8.0794    0.9545   -1.3778 C   0  0  0  0  0  0  0  0  0  0  0  0
   -8.0964    2.2612   -0.9804 C   0  0  0  0  0  0  0  0  0  0  0  0
   -7.5763    3.1477   -1.9582 C   0  0  0  0  0  0  0  0  0  0  0  0
   -7.0786    4.4426   -1.7339 C   0  0  0  0  0  0  0  0  0  0  0  0
   -7.2297    5.0902   -0.4348 C   0  0  0  0  0  0  0  0  0  0  0  0
   -8.0490    6.6074   -0.2471 S   0  0  0  0  0  0  0  0  0  0  0  0
   -7.7509    6.6434    1.4581 C   0  0  0  0  0  0  0  0  0  0  0  0
   -8.1805    7.8011    2.2893 C   0  0  0  0  0  0  0  0  0  0  0  0
   -7.1734    8.9489    2.1808 C   0  0  0  0  0  0  0  0  0  0  0  0
   -7.0445    5.5419    1.8384 C   0  0  0  0  0  0  0  0  0  0  0  0
   -6.5602    5.2193    3.4508 Cl  0  0  0  0  0  0  0  0  0  0  0  0
   -6.7447    4.6582    0.7673 C   0  0  0  0  0  0  0  0  0  0  0  0
   -5.8042    3.2331    0.9761 Cl  0  0  0  0  0  0  0  0  0  0  0  0
   -6.2495    4.9801   -2.7062 C   0  0  0  0  0  0  0  0  0  0  0  0
   -5.9010    4.2864   -3.8927 C   0  0  0  0  0  0  0  0  0  0  0  0
   -6.4400    3.0118   -4.1467 C   0  0  0  0  0  0  0  0  0  0  0  0
   -5.9415    2.1567   -5.2118 C   0  0  0  0  0  0  0  0  0  0  0  0
   -4.2304    1.8802   -5.3880 S   0  0  0  0  0  0  0  0  0  0  0  0
   -4.4679    0.6736   -6.6051 C   0  0  0  0  0  0  0  0  0  0  0  0
   -3.3038   -0.0028   -7.2403 C   0  0  0  0  0  0  0  0  0  0  0  0
   -2.3707    1.0008   -7.9165 C   0  0  0  0  0  0  0  0  0  0  0  0
   -5.7975    0.5074   -6.8515 C   0  0  0  0  0  0  0  0  0  0  0  0
   -6.6354    1.3353   -6.0551 C   0  0  0  0  0  0  0  0  0  0  0  0
   -8.3421    1.3384   -6.2045 Cl  0  0  0  0  0  0  0  0  0  0  0  0
   -6.4317   -0.6007   -7.9975 Cl  0  0  0  0  0  0  0  0  0  0  0  0
   -7.2654    2.4768   -3.1677 C   0  0  0  0  0  0  0  0  0  0  0  0
   -7.7040    0.7956   -3.0890 S   0  0  0  0  0  0  0  0  0  0  0  0
   -4.8124    4.8936   -4.5549 C   0  0  0  0  0  0  0  0  0  0  0  0
   -4.2743    5.9486   -3.8689 C   0  0  0  0  0  0  0  0  0  0  0  0
   -5.2441    6.3898   -2.4719 S   0  0  0  0  0  0  0  0  0  0  0  0
   -2.9312    6.3950   -3.9903 C   0  0  0  0  0  0  0  0  0  0  0  0
   -1.8285    5.4184   -4.9446 S   0  0  0  0  0  0  0  0  0  0  0  0
   -0.4256    6.0254   -4.1129 C   0  0  0  0  0  0  0  0  0  0  0  0
   -0.7885    7.0516   -3.2488 C   0  0  0  0  0  0  0  0  0  0  0  0
   -0.1001    7.9022   -2.3524 C   0  0  0  0  0  0  0  0  0  0  0  0
   -0.9507    8.6894   -1.6375 C   0  0  0  0  0  0  0  0  0  0  0  0
   -0.6057    9.6652   -0.5986 C   0  0  0  0  0  0  0  0  0  0  0  0
   -1.4145   10.3040    0.0285 O   0  0  0  0  0  0  0  0  0  0  0  0
    0.7219    9.7485   -0.4432 O   0  0  0  0  0  0  0  0  0  0  0  0
    1.2008   10.6261    0.5768 C   0  0  0  0  0  0  0  0  0  0  0  0
    1.2386    9.9282    1.9286 C   0  0  0  0  0  0  0  0  0  0  0  0
   -2.6454    8.4440   -2.0153 S   0  0  0  0  0  0  0  0  0  0  0  0
   -2.2021    7.2474   -3.1886 C   0  0  0  0  0  0  0  0  0  0  0  0
    0.7681    5.2533   -4.0980 C   0  0  0  0  0  0  0  0  0  0  0  0
    1.5716    5.0859   -3.0037 C   0  0  0  0  0  0  0  0  0  0  0  0
    2.4540    3.9880   -3.1145 C   0  0  0  0  0  0  0  0  0  0  0  0
    3.2761    3.4558   -2.1033 C   0  0  0  0  0  0  0  0  0  0  0  0
    3.4856    4.1700   -0.8596 C   0  0  0  0  0  0  0  0  0  0  0  0
    3.3821    3.3715    0.6826 S   0  0  0  0  0  0  0  0  0  0  0  0
    3.7317    4.8267    1.5519 C   0  0  0  0  0  0  0  0  0  0  0  0
    3.8407    4.8189    3.0365 C   0  0  0  0  0  0  0  0  0  0  0  0
    5.0734    4.0357    3.4927 C   0  0  0  0  0  0  0  0  0  0  0  0
    3.9219    5.8608    0.6844 C   0  0  0  0  0  0  0  0  0  0  0  0
    4.2943    7.4653    1.1665 Cl  0  0  0  0  0  0  0  0  0  0  0  0
    3.7804    5.4961   -0.6808 C   0  0  0  0  0  0  0  0  0  0  0  0
    4.0574    6.6135   -1.9546 Cl  0  0  0  0  0  0  0  0  0  0  0  0
    3.8140    2.1970   -2.3437 C   0  0  0  0  0  0  0  0  0  0  0  0
    3.6916    1.5305   -3.5872 C   0  0  0  0  0  0  0  0  0  0  0  0
    2.9792    2.1313   -4.6437 C   0  0  0  0  0  0  0  0  0  0  0  0
    2.9167    1.4993   -5.9486 C   0  0  0  0  0  0  0  0  0  0  0  0
    1.4161    1.2466   -6.7892 S   0  0  0  0  0  0  0  0  0  0  0  0
    2.2083    0.5030   -8.1376 C   0  0  0  0  0  0  0  0  0  0  0  0
    1.4384    0.0485   -9.3277 C   0  0  0  0  0  0  0  0  0  0  0  0
    0.9688    1.2399  -10.1652 C   0  0  0  0  0  0  0  0  0  0  0  0
    3.5563    0.4709   -7.9382 C   0  0  0  0  0  0  0  0  0  0  0  0
    3.9618    1.0275   -6.6960 C   0  0  0  0  0  0  0  0  0  0  0  0
    5.6115    1.1585   -6.2408 Cl  0  0  0  0  0  0  0  0  0  0  0  0
    4.6796   -0.1784   -9.0614 Cl  0  0  0  0  0  0  0  0  0  0  0  0
    2.3156    3.3158   -4.3537 C   0  0  0  0  0  0  0  0  0  0  0  0
    1.1480    4.1138   -5.3747 S   0  0  0  0  0  0  0  0  0  0  0  0
    4.2444    0.2249   -3.5439 C   0  0  0  0  0  0  0  0  0  0  0  0
    4.7466   -0.1072   -2.3228 C   0  0  0  0  0  0  0  0  0  0  0  0
    4.6407    1.2115   -1.1747 S   0  0  0  0  0  0  0  0  0  0  0  0
    5.2516   -1.3638   -1.8669 C   0  0  0  0  0  0  0  0  0  0  0  0
    5.2313   -1.8085   -0.5799 C   0  0  0  0  0  0  0  0  0  0  0  0
    5.7710   -3.1077   -0.4203 C   0  0  0  0  0  0  0  0  0  0  0  0
    5.8713   -3.8642    0.7610 C   0  0  0  0  0  0  0  0  0  0  0  0
    5.5631   -3.2627    2.0449 C   0  0  0  0  0  0  0  0  0  0  0  0
    4.5637   -4.0530    3.2269 S   0  0  0  0  0  0  0  0  0  0  0  0
    4.6554   -2.7195    4.3198 C   0  0  0  0  0  0  0  0  0  0  0  0
    3.9765   -2.7503    5.6442 C   0  0  0  0  0  0  0  0  0  0  0  0
    4.9388   -3.2152    6.7392 C   0  0  0  0  0  0  0  0  0  0  0  0
    5.4480   -1.7379    3.8021 C   0  0  0  0  0  0  0  0  0  0  0  0
    5.7794   -0.2583    4.6043 Cl  0  0  0  0  0  0  0  0  0  0  0  0
    5.9682   -2.0408    2.5174 C   0  0  0  0  0  0  0  0  0  0  0  0
    7.0747   -0.9982    1.7183 Cl  0  0  0  0  0  0  0  0  0  0  0  0
    6.3049   -5.1771    0.6208 C   0  0  0  0  0  0  0  0  0  0  0  0
    6.7527   -5.7157   -0.6101 C   0  0  0  0  0  0  0  0  0  0  0  0
    6.7264   -4.9313   -1.7738 C   0  0  0  0  0  0  0  0  0  0  0  0
    7.2541   -5.3989   -3.0477 C   0  0  0  0  0  0  0  0  0  0  0  0
    8.4858   -4.4718   -3.8575 S   0  0  0  0  0  0  0  0  0  0  0  0
    8.5657   -5.5809   -5.1816 C   0  0  0  0  0  0  0  0  0  0  0  0
    9.5350   -5.3903   -6.2954 C   0  0  0  0  0  0  0  0  0  0  0  0
   10.8829   -6.0351   -5.9642 C   0  0  0  0  0  0  0  0  0  0  0  0
    7.6898   -6.6070   -4.9915 C   0  0  0  0  0  0  0  0  0  0  0  0
    6.9440   -6.5055   -3.7860 C   0  0  0  0  0  0  0  0  0  0  0  0
    5.7288   -7.6413   -3.3809 Cl  0  0  0  0  0  0  0  0  0  0  0  0
    7.4804   -7.9051   -6.0964 Cl  0  0  0  0  0  0  0  0  0  0  0  0
    6.2032   -3.6498   -1.6530 C   0  0  0  0  0  0  0  0  0  0  0  0
    5.9435   -2.5349   -2.9671 S   0  0  0  0  0  0  0  0  0  0  0  0
    7.2308   -7.0502   -0.4546 C   0  0  0  0  0  0  0  0  0  0  0  0
    7.1240   -7.5019    0.8109 C   0  0  0  0  0  0  0  0  0  0  0  0
    6.4576   -6.3399    1.9076 S   0  0  0  0  0  0  0  0  0  0  0  0
    4.9198   -7.0138    6.7567 H   0  0  0  0  0  0  0  0  0  0  0  0
    4.3662   -7.0371    4.2146 H   0  0  0  0  0  0  0  0  0  0  0  0
    4.8470   -8.4230   -1.0472 H   0  0  0  0  0  0  0  0  0  0  0  0
    4.4927   -9.5900    0.2383 H   0  0  0  0  0  0  0  0  0  0  0  0
    3.4221  -10.2650   -1.9033 H   0  0  0  0  0  0  0  0  0  0  0  0
    2.5507   -8.7304   -1.9634 H   0  0  0  0  0  0  0  0  0  0  0  0
    2.1915   -9.8985   -0.6879 H   0  0  0  0  0  0  0  0  0  0  0  0
   -1.4143   -1.4848    9.7681 H   0  0  0  0  0  0  0  0  0  0  0  0
   -2.2042   -2.7453   10.7315 H   0  0  0  0  0  0  0  0  0  0  0  0
   -3.8863   -1.2704    9.6363 H   0  0  0  0  0  0  0  0  0  0  0  0
   -3.2090   -1.6557    8.0512 H   0  0  0  0  0  0  0  0  0  0  0  0
   -4.0076   -2.9124    9.0005 H   0  0  0  0  0  0  0  0  0  0  0  0
   -2.1085   -4.1550    5.2106 H   0  0  0  0  0  0  0  0  0  0  0  0
   -3.7693   -2.7561    4.0790 H   0  0  0  0  0  0  0  0  0  0  0  0
   -6.4883    1.7154    7.2960 H   0  0  0  0  0  0  0  0  0  0  0  0
   -7.0862    2.5616    5.8578 H   0  0  0  0  0  0  0  0  0  0  0  0
   -5.0351    3.6540    6.7140 H   0  0  0  0  0  0  0  0  0  0  0  0
   -4.7558    2.9749    5.1079 H   0  0  0  0  0  0  0  0  0  0  0  0
   -4.1364    2.1425    6.5382 H   0  0  0  0  0  0  0  0  0  0  0  0
   -5.6090   -6.8197   -4.2883 H   0  0  0  0  0  0  0  0  0  0  0  0
   -4.9609   -5.7047   -5.5068 H   0  0  0  0  0  0  0  0  0  0  0  0
   -3.3668   -7.5641   -5.0497 H   0  0  0  0  0  0  0  0  0  0  0  0
   -3.3183   -7.1123   -3.3413 H   0  0  0  0  0  0  0  0  0  0  0  0
   -2.6720   -6.0140   -4.5638 H   0  0  0  0  0  0  0  0  0  0  0  0
   -7.2746   -1.6424   -2.0010 H   0  0  0  0  0  0  0  0  0  0  0  0
   -8.3386    2.5579    0.0237 H   0  0  0  0  0  0  0  0  0  0  0  0
   -9.1604    8.1456    1.9543 H   0  0  0  0  0  0  0  0  0  0  0  0
   -8.2591    7.4774    3.3288 H   0  0  0  0  0  0  0  0  0  0  0  0
   -6.1936    8.6257    2.5228 H   0  0  0  0  0  0  0  0  0  0  0  0
   -7.4966    9.7878    2.7909 H   0  0  0  0  0  0  0  0  0  0  0  0
   -7.0872    9.2791    1.1485 H   0  0  0  0  0  0  0  0  0  0  0  0
   -2.7451   -0.5514   -6.4776 H   0  0  0  0  0  0  0  0  0  0  0  0
   -3.6807   -0.7204   -7.9712 H   0  0  0  0  0  0  0  0  0  0  0  0
   -1.9662    1.6959   -7.1841 H   0  0  0  0  0  0  0  0  0  0  0  0
   -1.5447    0.4778   -8.3888 H   0  0  0  0  0  0  0  0  0  0  0  0
   -2.9067    1.5643   -8.6762 H   0  0  0  0  0  0  0  0  0  0  0  0
   -4.3670    4.5082   -5.4536 H   0  0  0  0  0  0  0  0  0  0  0  0
    0.9679    7.9509   -2.2480 H   0  0  0  0  0  0  0  0  0  0  0  0
    0.5531   11.5078    0.6199 H   0  0  0  0  0  0  0  0  0  0  0  0
    2.2037   10.9132    0.2544 H   0  0  0  0  0  0  0  0  0  0  0  0
    1.6617   10.5979    2.6717 H   0  0  0  0  0  0  0  0  0  0  0  0
    0.2319    9.6531    2.2338 H   0  0  0  0  0  0  0  0  0  0  0  0
    1.8493    9.0304    1.8699 H   0  0  0  0  0  0  0  0  0  0  0  0
    1.4421    5.6482   -2.0986 H   0  0  0  0  0  0  0  0  0  0  0  0
    3.9039    5.8504    3.3871 H   0  0  0  0  0  0  0  0  0  0  0  0
    2.9460    4.3606    3.4639 H   0  0  0  0  0  0  0  0  0  0  0  0
    5.0133    3.0050    3.1514 H   0  0  0  0  0  0  0  0  0  0  0  0
    5.9778    4.4830    3.0878 H   0  0  0  0  0  0  0  0  0  0  0  0
    5.1385    4.0407    4.5774 H   0  0  0  0  0  0  0  0  0  0  0  0
    0.5726   -0.5314   -9.0003 H   0  0  0  0  0  0  0  0  0  0  0  0
    2.0789   -0.5976   -9.9301 H   0  0  0  0  0  0  0  0  0  0  0  0
    0.3454    1.9002   -9.5667 H   0  0  0  0  0  0  0  0  0  0  0  0
    0.3938    0.8930  -11.0195 H   0  0  0  0  0  0  0  0  0  0  0  0
    1.8240    1.8044  -10.5276 H   0  0  0  0  0  0  0  0  0  0  0  0
    4.2119   -0.4684   -4.3646 H   0  0  0  0  0  0  0  0  0  0  0  0
    4.7919   -1.2379    0.2177 H   0  0  0  0  0  0  0  0  0  0  0  0
    3.6152   -1.7471    5.8802 H   0  0  0  0  0  0  0  0  0  0  0  0
    3.1202   -3.4242    5.5932 H   0  0  0  0  0  0  0  0  0  0  0  0
    4.4190   -3.2746    7.6915 H   0  0  0  0  0  0  0  0  0  0  0  0
    5.7667   -2.5174    6.8336 H   0  0  0  0  0  0  0  0  0  0  0  0
    5.3373   -4.1973    6.4964 H   0  0  0  0  0  0  0  0  0  0  0  0
    9.6754   -4.3230   -6.4734 H   0  0  0  0  0  0  0  0  0  0  0  0
    9.1251   -5.8456   -7.1991 H   0  0  0  0  0  0  0  0  0  0  0  0
   11.3040   -5.5889   -5.0665 H   0  0  0  0  0  0  0  0  0  0  0  0
   11.5782   -5.8892   -6.7863 H   0  0  0  0  0  0  0  0  0  0  0  0
   10.7595   -7.1023   -5.7975 H   0  0  0  0  0  0  0  0  0  0  0  0
    7.6360   -7.6301   -1.2631 H   0  0  0  0  0  0  0  0  0  0  0  0
    7.4004   -8.4649    1.1928 H   0  0  0  0  0  0  0  0  0  0  0  0
  1  2  2  0  0  0  0
  2  3  1  0  0  0  0
  3  4  2  0  0  0  0
  4  5  1  0  0  0  0
  5  6  1  0  0  0  0
  6  7  1  0  0  0  0
  7  8  1  0  0  0  0
  8  9  1  0  0  0  0
  7 10  2  0  0  0  0
 10 11  1  0  0  0  0
 10 12  1  0  0  0  0
 12 13  1  0  0  0  0
  4 14  1  0  0  0  0
 14 15  2  0  0  0  0
 15 16  1  0  0  0  0
 16 17  1  0  0  0  0
 17 18  1  0  0  0  0
 18 19  1  0  0  0  0
 19 20  1  0  0  0  0
 20 21  1  0  0  0  0
 19 22  2  0  0  0  0
 22 23  1  0  0  0  0
 23 24  1  0  0  0  0
 22 25  1  0  0  0  0
 16 26  2  0  0  0  0
 26 27  1  0  0  0  0
 15 28  1  0  0  0  0
 28 29  2  0  0  0  0
 29 30  1  0  0  0  0
 29 31  1  0  0  0  0
 31 32  2  0  0  0  0
 32 33  1  0  0  0  0
 33 34  2  0  0  0  0
 34 35  1  0  0  0  0
 35 36  1  0  0  0  0
 36 37  1  0  0  0  0
 37 38  1  0  0  0  0
 38 39  1  0  0  0  0
 37 40  2  0  0  0  0
 40 41  1  0  0  0  0
 40 42  1  0  0  0  0
 42 43  1  0  0  0  0
 34 44  1  0  0  0  0
 44 45  2  0  0  0  0
 45 46  1  0  0  0  0
 46 47  1  0  0  0  0
 47 48  1  0  0  0  0
 48 49  1  0  0  0  0
 49 50  1  0  0  0  0
 50 51  1  0  0  0  0
 49 52  2  0  0  0  0
 52 53  1  0  0  0  0
 53 54  1  0  0  0  0
 52 55  1  0  0  0  0
 46 56  2  0  0  0  0
 56 57  1  0  0  0  0
 45 58  1  0  0  0  0
 58 59  2  0  0  0  0
 59 60  1  0  0  0  0
 59 61  1  0  0  0  0
 61 62  2  0  0  0  0
 62 63  1  0  0  0  0
 63 64  2  0  0  0  0
 64 65  1  0  0  0  0
 65 66  1  0  0  0  0
 66 67  1  0  0  0  0
 67 68  1  0  0  0  0
 68 69  1  0  0  0  0
 67 70  2  0  0  0  0
 70 71  1  0  0  0  0
 70 72  1  0  0  0  0
 72 73  1  0  0  0  0
 64 74  1  0  0  0  0
 74 75  2  0  0  0  0
 75 76  1  0  0  0  0
 76 77  1  0  0  0  0
 77 78  1  0  0  0  0
 78 79  1  0  0  0  0
 79 80  1  0  0  0  0
 80 81  1  0  0  0  0
 79 82  2  0  0  0  0
 82 83  1  0  0  0  0
 83 84  1  0  0  0  0
 82 85  1  0  0  0  0
 76 86  2  0  0  0  0
 86 87  1  0  0  0  0
 75 88  1  0  0  0  0
 88 89  2  0  0  0  0
 89 90  1  0  0  0  0
 89 91  1  0  0  0  0
 91 92  1  0  0  0  0
 92 93  1  0  0  0  0
 93 94  2  0  0  0  0
 94 95  1  0  0  0  0
 95 96  2  0  0  0  0
 96 97  1  0  0  0  0
 97 98  2  0  0  0  0
 97 99  1  0  0  0  0
 99100  1  0  0  0  0
100101  1  0  0  0  0
 96102  1  0  0  0  0
102103  1  0  0  0  0
 93104  1  0  0  0  0
104105  2  0  0  0  0
105106  1  0  0  0  0
106107  2  0  0  0  0
107108  1  0  0  0  0
108109  1  0  0  0  0
109110  1  0  0  0  0
110111  1  0  0  0  0
111112  1  0  0  0  0
110113  2  0  0  0  0
113114  1  0  0  0  0
113115  1  0  0  0  0
115116  1  0  0  0  0
107117  1  0  0  0  0
117118  2  0  0  0  0
118119  1  0  0  0  0
119120  1  0  0  0  0
120121  1  0  0  0  0
121122  1  0  0  0  0
122123  1  0  0  0  0
123124  1  0  0  0  0
122125  2  0  0  0  0
125126  1  0  0  0  0
126127  1  0  0  0  0
125128  1  0  0  0  0
119129  2  0  0  0  0
129130  1  0  0  0  0
118131  1  0  0  0  0
131132  2  0  0  0  0
132133  1  0  0  0  0
132134  1  0  0  0  0
134135  2  0  0  0  0
135136  1  0  0  0  0
136137  2  0  0  0  0
137138  1  0  0  0  0
138139  1  0  0  0  0
139140  1  0  0  0  0
140141  1  0  0  0  0
141142  1  0  0  0  0
140143  2  0  0  0  0
143144  1  0  0  0  0
143145  1  0  0  0  0
145146  1  0  0  0  0
137147  1  0  0  0  0
147148  2  0  0  0  0
148149  1  0  0  0  0
149150  1  0  0  0  0
150151  1  0  0  0  0
151152  1  0  0  0  0
152153  1  0  0  0  0
153154  1  0  0  0  0
152155  2  0  0  0  0
155156  1  0  0  0  0
156157  1  0  0  0  0
155158  1  0  0  0  0
149159  2  0  0  0  0
159160  1  0  0  0  0
148161  1  0  0  0  0
161162  2  0  0  0  0
162163  1  0  0  0  0
 27  1  1  0  0  0  0
 57 31  1  0  0  0  0
 87 61  1  0  0  0  0
103 91  2  0  0  0  0
130104  1  0  0  0  0
160134  1  0  0  0  0
 26  3  1  0  0  0  0
 56 33  1  0  0  0  0
 86 63  1  0  0  0  0
103 94  1  0  0  0  0
129106  1  0  0  0  0
159136  1  0  0  0  0
 12  5  2  0  0  0  0
 30 14  1  0  0  0  0
 42 35  2  0  0  0  0
 60 44  1  0  0  0  0
 72 65  2  0  0  0  0
 90 74  1  0  0  0  0
115108  2  0  0  0  0
133117  1  0  0  0  0
145138  2  0  0  0  0
163147  1  0  0  0  0
 23 17  2  0  0  0  0
 53 47  2  0  0  0  0
 83 77  2  0  0  0  0
126120  2  0  0  0  0
156150  2  0  0  0  0
  1164  1  0  0  0  0
  2165  1  0  0  0  0
  8166  1  0  0  0  0
  8167  1  0  0  0  0
  9168  1  0  0  0  0
  9169  1  0  0  0  0
  9170  1  0  0  0  0
 20171  1  0  0  0  0
 20172  1  0  0  0  0
 21173  1  0  0  0  0
 21174  1  0  0  0  0
 21175  1  0  0  0  0
 28176  1  0  0  0  0
 32177  1  0  0  0  0
 38178  1  0  0  0  0
 38179  1  0  0  0  0
 39180  1  0  0  0  0
 39181  1  0  0  0  0
 39182  1  0  0  0  0
 50183  1  0  0  0  0
 50184  1  0  0  0  0
 51185  1  0  0  0  0
 51186  1  0  0  0  0
 51187  1  0  0  0  0
 58188  1  0  0  0  0
 62189  1  0  0  0  0
 68190  1  0  0  0  0
 68191  1  0  0  0  0
 69192  1  0  0  0  0
 69193  1  0  0  0  0
 69194  1  0  0  0  0
 80195  1  0  0  0  0
 80196  1  0  0  0  0
 81197  1  0  0  0  0
 81198  1  0  0  0  0
 81199  1  0  0  0  0
 88200  1  0  0  0  0
 95201  1  0  0  0  0
100202  1  0  0  0  0
100203  1  0  0  0  0
101204  1  0  0  0  0
101205  1  0  0  0  0
101206  1  0  0  0  0
105207  1  0  0  0  0
111208  1  0  0  0  0
111209  1  0  0  0  0
112210  1  0  0  0  0
112211  1  0  0  0  0
112212  1  0  0  0  0
123213  1  0  0  0  0
123214  1  0  0  0  0
124215  1  0  0  0  0
124216  1  0  0  0  0
124217  1  0  0  0  0
131218  1  0  0  0  0
135219  1  0  0  0  0
141220  1  0  0  0  0
141221  1  0  0  0  0
142222  1  0  0  0  0
142223  1  0  0  0  0
142224  1  0  0  0  0
153225  1  0  0  0  0
153226  1  0  0  0  0
154227  1  0  0  0  0
154228  1  0  0  0  0
154229  1  0  0  0  0
161230  1  0  0  0  0
162231  1  0  0  0  0
M  END
