120

C         16.78310       -3.11380        4.59740
S         15.92280       -4.39970        3.81220
C         14.42460       -3.71320        4.32530
C         13.04230       -3.91410        4.25710
C         12.44730       -2.85140        4.96730
N         13.41860       -2.00980        5.44360
C         13.20870       -0.86180        6.28470
C         13.16290       -1.24710        7.76250
C         14.62720       -2.53800        5.07050
C         15.98730       -2.20330        5.22010
C         11.05060       -2.90310        4.98230
C         10.57790       -3.99420        4.28300
S         11.86110       -4.98730        3.60060
C          9.22270       -4.33010        4.05080
S          7.92930       -3.36270        4.73100
C          6.67590       -4.29440        3.94440
C          7.25030       -5.32770        3.21080
C          6.76220       -6.38090        2.40280
C          7.76820       -7.14410        1.89030
C          7.66200       -8.31200        1.01740
O          8.60810       -8.92580        0.58590
O          6.37990       -8.62220        0.76760
C          6.14960       -9.73430       -0.09640
C          6.23160       -9.32740       -1.56080
S          9.37560       -6.62390        2.35860
C          8.67460       -5.33550        3.28590
C          5.32580       -3.89630        4.05200
S          4.10050       -4.58520        2.98690
C          2.91970       -3.51010        3.63590
C          1.59440       -3.11540        3.46510
C          1.35700       -2.07660        4.39030
N          2.49940       -1.82600        5.10650
C          2.63760       -0.90040        6.19890
C          2.28590       -1.55210        7.53530
C          3.45960       -2.69470        4.65490
C          4.81830       -2.91360        4.88200
C          0.08340       -1.51070        4.27980
C         -0.64700       -2.09550        3.26500
S          0.22050       -3.39850        2.46270
C         -1.90750       -1.67940        2.75520
S         -2.47020       -2.34110        1.22460
C         -3.79160       -1.23630        1.22160
C         -4.83500       -0.78850        0.41170
C         -5.45420        0.27630        1.09780
N         -4.81990        0.48370        2.29680
C         -5.21710        1.41250        3.32050
C         -6.23810        0.79480        4.27500
C         -3.80230       -0.43310        2.38060
C         -2.73540       -0.69120        3.24760
C         -6.46050        0.90620        0.35750
C         -6.60870        0.33370       -0.88880
S         -5.52840       -1.03080       -1.14670
C         -7.41610        0.79070       -1.96760
S         -7.49170       -0.15110       -3.45160
C         -8.40240        1.09960       -4.21200
C         -8.93830        1.46590       -5.44700
C         -9.48700        2.75510       -5.28370
N         -9.33580        3.16160       -3.98340
C         -9.65980        4.46470       -3.46490
C         -8.53260        5.46520       -3.71370
C         -8.64800        2.17230       -3.32960
C         -8.09540        1.98760       -2.05780
C         -9.99970        3.30070       -6.46440
C         -9.85420        2.43240       -7.52450
S         -9.09530        0.91090       -7.07180
C        -10.19020        2.69140       -8.88110
S        -10.20240        1.43710      -10.09620
C        -10.60680        2.53090      -11.35430
C        -10.73330        3.81320      -10.88330
C        -10.99880        5.08940      -11.44840
C        -10.96520        6.07970      -10.51770
C        -11.15100        7.51920      -10.70060
O        -11.10560        8.32470       -9.80210
O        -11.35460        7.83160      -11.98910
C        -11.53960        9.21610      -12.28560
C        -12.96960        9.66140      -12.01580
S        -10.62650        5.52480       -8.88840
C        -10.50200        3.89370       -9.47370
H         17.85370       -3.11530        4.54650
H         12.26640       -0.39050        5.99100
H         14.02190       -0.15310        6.10600
H         14.09950       -1.71370        8.05850
H         12.35420       -1.95170        7.94130
H         13.00160       -0.36420        8.37500
H         16.36220       -1.34830        5.75290
H         10.39730       -2.19530        5.45980
H          5.72450       -6.57600        2.20660
H          6.88880      -10.51230        0.12170
H          5.14840      -10.08720        0.15970
H          5.98760      -10.17880       -2.18970
H          5.53280       -8.51980       -1.76590
H          7.23890       -8.99250       -1.79600
H          3.67110       -0.54360        6.21600
H          1.97870       -0.04830        6.01090
H          1.25860       -1.90870        7.52090
H          2.39710       -0.83420        8.34330
H          2.94260       -2.39790        7.72460
H          5.43120       -2.39350        5.59590
H         -0.28500       -0.69620        4.87530
H         -4.32340        1.71690        3.87230
H         -5.64290        2.29550        2.83590
H         -6.52300        1.51480        5.03730
H         -7.12770        0.49170        3.72800
H         -5.81590       -0.08220        4.76020
H         -2.55510       -0.18110        4.17570
H         -7.04490        1.74250        0.69400
H        -10.57750        4.80750       -3.95050
H         -9.84870        4.36680       -2.39240
H         -8.35190        5.56800       -4.78090
H         -8.79970        6.43750       -3.30930
H         -7.61550        5.12540       -3.23800
H         -8.14830        2.69660       -1.25260
H        -10.44890        4.27160       -6.56090
H        -10.71980        2.17250      -12.35690
H        -11.19390        5.26570      -12.48990
H        -11.28830        9.31170      -13.34390
H        -10.84110        9.80380      -11.68050
H        -13.08910       10.69910      -12.31360
H        -13.19130        9.57140      -10.95520
H        -13.66820        9.04600      -12.57770
