
  xtb     02282220493D
 energy: -240.833207311365 gnorm: 0.000556926314 xtb: 6.4.1 (unknown)
140151  0     0  0            999 V2000
    6.3798    2.4238   -0.2749 C   0  0  0  0  0  0  0  0  0  0  0  0
    7.5809    2.6309   -1.4756 S   0  0  0  0  0  0  0  0  0  0  0  0
    7.5350    4.3396   -1.3494 C   0  0  0  0  0  0  0  0  0  0  0  0
    6.6251    4.7442   -0.4099 C   0  0  0  0  0  0  0  0  0  0  0  0
    5.9535    3.6308    0.2152 C   0  0  0  0  0  0  0  0  0  0  0  0
    5.0428    3.8281    1.2038 N   0  0  0  0  0  0  0  0  0  0  0  0
    4.8254    5.0624    1.5641 C   0  0  0  0  0  0  0  0  0  0  0  0
    5.4186    6.1911    0.8544 C   0  0  0  0  0  0  0  0  0  0  0  0
    5.0336    7.4617    1.1675 N   0  0  0  0  0  0  0  0  0  0  0  0
    5.4633    8.5634    0.3386 C   0  0  0  0  0  0  0  0  0  0  0  0
    6.2979    6.0241   -0.0961 N   0  0  0  0  0  0  0  0  0  0  0  0
    3.9357    5.2815    2.6088 N   0  0  0  0  0  0  0  0  0  0  0  0
    4.3334    6.1280    3.7149 C   0  0  0  0  0  0  0  0  0  0  0  0
    2.9170    4.3800    2.7952 C   0  0  0  0  0  0  0  0  0  0  0  0
    2.2069    4.2089    3.9268 C   0  0  0  0  0  0  0  0  0  0  0  0
    1.0981    3.3168    4.0082 C   0  0  0  0  0  0  0  0  0  0  0  0
    0.5167    2.7842    5.5724 S   0  0  0  0  0  0  0  0  0  0  0  0
   -0.6931    1.7301    4.8878 C   0  0  0  0  0  0  0  0  0  0  0  0
   -0.6688    1.8343    3.4990 C   0  0  0  0  0  0  0  0  0  0  0  0
   -1.4582    1.3239    2.4450 C   0  0  0  0  0  0  0  0  0  0  0  0
   -1.0593    1.7749    1.2242 C   0  0  0  0  0  0  0  0  0  0  0  0
   -1.6257    1.4337   -0.0777 C   0  0  0  0  0  0  0  0  0  0  0  0
   -1.2923    1.9338   -1.1252 O   0  0  0  0  0  0  0  0  0  0  0  0
   -2.5559    0.4702    0.0430 O   0  0  0  0  0  0  0  0  0  0  0  0
   -3.1744    0.0136   -1.1618 C   0  0  0  0  0  0  0  0  0  0  0  0
   -4.2065    1.0012   -1.6849 C   0  0  0  0  0  0  0  0  0  0  0  0
    0.3101    2.8730    1.2866 S   0  0  0  0  0  0  0  0  0  0  0  0
    0.3456    2.7178    3.0247 C   0  0  0  0  0  0  0  0  0  0  0  0
   -1.4892    0.8895    5.6988 C   0  0  0  0  0  0  0  0  0  0  0  0
   -1.8243    1.2400    7.3703 S   0  0  0  0  0  0  0  0  0  0  0  0
   -2.7684   -0.1790    7.5770 C   0  0  0  0  0  0  0  0  0  0  0  0
   -2.8279   -0.9185    6.4245 C   0  0  0  0  0  0  0  0  0  0  0  0
   -2.0980   -0.3144    5.3471 C   0  0  0  0  0  0  0  0  0  0  0  0
   -2.0217   -0.9136    4.1471 N   0  0  0  0  0  0  0  0  0  0  0  0
   -2.6645   -2.0423    3.9712 C   0  0  0  0  0  0  0  0  0  0  0  0
   -3.3532   -2.6893    5.0830 C   0  0  0  0  0  0  0  0  0  0  0  0
   -3.9103   -3.9212    4.9288 N   0  0  0  0  0  0  0  0  0  0  0  0
   -4.4305   -4.6284    6.0741 C   0  0  0  0  0  0  0  0  0  0  0  0
   -3.4250   -2.1276    6.2625 N   0  0  0  0  0  0  0  0  0  0  0  0
   -2.5644   -2.5905    2.7105 N   0  0  0  0  0  0  0  0  0  0  0  0
   -1.4150   -2.2050    1.9121 C   0  0  0  0  0  0  0  0  0  0  0  0
   -3.6123   -3.2072    2.0800 C   0  0  0  0  0  0  0  0  0  0  0  0
   -3.6219   -3.5099    0.7650 C   0  0  0  0  0  0  0  0  0  0  0  0
   -4.6685   -4.1736    0.0772 C   0  0  0  0  0  0  0  0  0  0  0  0
   -6.0210   -4.9963    0.7871 S   0  0  0  0  0  0  0  0  0  0  0  0
   -6.5824   -5.5864   -0.7330 C   0  0  0  0  0  0  0  0  0  0  0  0
   -5.7758   -5.1774   -1.7613 C   0  0  0  0  0  0  0  0  0  0  0  0
   -4.6947   -4.3529   -1.3012 C   0  0  0  0  0  0  0  0  0  0  0  0
   -3.7864   -3.8355   -2.1544 N   0  0  0  0  0  0  0  0  0  0  0  0
   -3.9030   -4.1652   -3.4082 C   0  0  0  0  0  0  0  0  0  0  0  0
   -5.0029   -4.9848   -3.8894 C   0  0  0  0  0  0  0  0  0  0  0  0
   -5.0788   -5.2550   -5.2199 N   0  0  0  0  0  0  0  0  0  0  0  0
   -6.2508   -5.8798   -5.7821 C   0  0  0  0  0  0  0  0  0  0  0  0
   -5.9191   -5.4619   -3.0851 N   0  0  0  0  0  0  0  0  0  0  0  0
   -2.9603   -3.6380   -4.3004 N   0  0  0  0  0  0  0  0  0  0  0  0
   -2.0041   -4.5805   -4.8536 C   0  0  0  0  0  0  0  0  0  0  0  0
   -2.5120   -2.3538   -3.9964 C   0  0  0  0  0  0  0  0  0  0  0  0
   -1.2475   -1.9630   -3.7943 C   0  0  0  0  0  0  0  0  0  0  0  0
   -0.8572   -0.5809   -3.7483 C   0  0  0  0  0  0  0  0  0  0  0  0
   -1.5801    0.5512   -4.8509 S   0  0  0  0  0  0  0  0  0  0  0  0
   -0.5180    1.8202   -4.4081 C   0  0  0  0  0  0  0  0  0  0  0  0
    0.3585    1.4149   -3.4379 C   0  0  0  0  0  0  0  0  0  0  0  0
    0.1441    0.0514   -3.0270 C   0  0  0  0  0  0  0  0  0  0  0  0
    0.8125   -0.4494   -1.9600 N   0  0  0  0  0  0  0  0  0  0  0  0
    1.7398    0.2897   -1.4299 C   0  0  0  0  0  0  0  0  0  0  0  0
    2.0684    1.6140   -1.9523 C   0  0  0  0  0  0  0  0  0  0  0  0
    3.0772    2.3402   -1.4249 N   0  0  0  0  0  0  0  0  0  0  0  0
    3.3194    3.7030   -1.8150 C   0  0  0  0  0  0  0  0  0  0  0  0
    1.3490    2.1598   -2.8994 N   0  0  0  0  0  0  0  0  0  0  0  0
    2.3804   -0.1627   -0.2641 N   0  0  0  0  0  0  0  0  0  0  0  0
    1.6468   -0.3009    0.9711 C   0  0  0  0  0  0  0  0  0  0  0  0
    3.7521   -0.2206   -0.2407 C   0  0  0  0  0  0  0  0  0  0  0  0
    4.4751   -0.7149   -1.2699 C   0  0  0  0  0  0  0  0  0  0  0  0
    3.8904   -1.5191   -2.3038 C   0  0  0  0  0  0  0  0  0  0  0  0
    4.5024   -1.5817   -3.9383 S   0  0  0  0  0  0  0  0  0  0  0  0
    3.3944   -2.8071   -4.4105 C   0  0  0  0  0  0  0  0  0  0  0  0
    2.5811   -3.1750   -3.3687 C   0  0  0  0  0  0  0  0  0  0  0  0
    1.5414   -4.1203   -3.1553 C   0  0  0  0  0  0  0  0  0  0  0  0
    1.0832   -4.0939   -1.8706 C   0  0  0  0  0  0  0  0  0  0  0  0
   -0.0037   -4.8410   -1.2452 C   0  0  0  0  0  0  0  0  0  0  0  0
   -0.3575   -4.6693   -0.1005 O   0  0  0  0  0  0  0  0  0  0  0  0
   -0.5774   -5.7215   -2.0798 O   0  0  0  0  0  0  0  0  0  0  0  0
   -1.6703   -6.4746   -1.5513 C   0  0  0  0  0  0  0  0  0  0  0  0
   -1.1904   -7.6543   -0.7194 C   0  0  0  0  0  0  0  0  0  0  0  0
    1.8953   -2.9355   -0.8422 S   0  0  0  0  0  0  0  0  0  0  0  0
    2.8692   -2.4302   -2.1816 C   0  0  0  0  0  0  0  0  0  0  0  0
    6.0845    1.4403    0.0248 H   0  0  0  0  0  0  0  0  0  0  0  0
    8.1720    4.9451   -1.9601 H   0  0  0  0  0  0  0  0  0  0  0  0
    4.1162    7.5559    1.5772 H   0  0  0  0  0  0  0  0  0  0  0  0
    4.8921    8.6275   -0.5925 H   0  0  0  0  0  0  0  0  0  0  0  0
    5.3489    9.4902    0.8979 H   0  0  0  0  0  0  0  0  0  0  0  0
    6.5095    8.4069    0.0872 H   0  0  0  0  0  0  0  0  0  0  0  0
    5.1920    6.7315    3.4324 H   0  0  0  0  0  0  0  0  0  0  0  0
    4.6140    5.5139    4.5759 H   0  0  0  0  0  0  0  0  0  0  0  0
    3.5066    6.7787    4.0071 H   0  0  0  0  0  0  0  0  0  0  0  0
    2.6852    3.8030    1.9130 H   0  0  0  0  0  0  0  0  0  0  0  0
    2.4666    4.7135    4.8444 H   0  0  0  0  0  0  0  0  0  0  0  0
   -2.2813    0.6518    2.5847 H   0  0  0  0  0  0  0  0  0  0  0  0
   -3.6350   -0.9402   -0.8948 H   0  0  0  0  0  0  0  0  0  0  0  0
   -2.3958   -0.1540   -1.9118 H   0  0  0  0  0  0  0  0  0  0  0  0
   -4.6994    0.5797   -2.5564 H   0  0  0  0  0  0  0  0  0  0  0  0
   -4.9515    1.2108   -0.9204 H   0  0  0  0  0  0  0  0  0  0  0  0
   -3.7198    1.9302   -1.9722 H   0  0  0  0  0  0  0  0  0  0  0  0
   -3.2217   -0.3868    8.5241 H   0  0  0  0  0  0  0  0  0  0  0  0
   -3.5377   -4.4970    4.1887 H   0  0  0  0  0  0  0  0  0  0  0  0
   -5.1297   -5.3882    5.7295 H   0  0  0  0  0  0  0  0  0  0  0  0
   -3.6377   -5.1028    6.6607 H   0  0  0  0  0  0  0  0  0  0  0  0
   -4.9432   -3.9106    6.7099 H   0  0  0  0  0  0  0  0  0  0  0  0
   -1.0186   -3.0823    1.4004 H   0  0  0  0  0  0  0  0  0  0  0  0
   -0.6607   -1.7931    2.5766 H   0  0  0  0  0  0  0  0  0  0  0  0
   -1.6872   -1.4476    1.1764 H   0  0  0  0  0  0  0  0  0  0  0  0
   -4.4897   -3.3981    2.6812 H   0  0  0  0  0  0  0  0  0  0  0  0
   -2.7940   -3.2554    0.1217 H   0  0  0  0  0  0  0  0  0  0  0  0
   -7.4591   -6.1988   -0.7718 H   0  0  0  0  0  0  0  0  0  0  0  0
   -4.5725   -4.6212   -5.8210 H   0  0  0  0  0  0  0  0  0  0  0  0
   -5.9693   -6.4261   -6.6817 H   0  0  0  0  0  0  0  0  0  0  0  0
   -7.0265   -5.1498   -6.0330 H   0  0  0  0  0  0  0  0  0  0  0  0
   -6.6493   -6.5663   -5.0390 H   0  0  0  0  0  0  0  0  0  0  0  0
   -1.4849   -4.0993   -5.6824 H   0  0  0  0  0  0  0  0  0  0  0  0
   -2.5354   -5.4597   -5.2166 H   0  0  0  0  0  0  0  0  0  0  0  0
   -1.2713   -4.9049   -4.1096 H   0  0  0  0  0  0  0  0  0  0  0  0
   -3.3145   -1.6260   -3.9690 H   0  0  0  0  0  0  0  0  0  0  0  0
   -0.4499   -2.6831   -3.6833 H   0  0  0  0  0  0  0  0  0  0  0  0
   -0.5945    2.7781   -4.8783 H   0  0  0  0  0  0  0  0  0  0  0  0
    3.5887    1.9813   -0.6349 H   0  0  0  0  0  0  0  0  0  0  0  0
    3.1937    4.3766   -0.9637 H   0  0  0  0  0  0  0  0  0  0  0  0
    4.3319    3.8162   -2.2092 H   0  0  0  0  0  0  0  0  0  0  0  0
    2.5959    3.9558   -2.5864 H   0  0  0  0  0  0  0  0  0  0  0  0
    1.9005   -1.2433    1.4582 H   0  0  0  0  0  0  0  0  0  0  0  0
    1.8755    0.5245    1.6552 H   0  0  0  0  0  0  0  0  0  0  0  0
    0.5841   -0.3015    0.7473 H   0  0  0  0  0  0  0  0  0  0  0  0
    4.2287    0.1323    0.6696 H   0  0  0  0  0  0  0  0  0  0  0  0
    5.5442   -0.5686   -1.3079 H   0  0  0  0  0  0  0  0  0  0  0  0
    3.4116   -3.1785   -5.4148 H   0  0  0  0  0  0  0  0  0  0  0  0
    1.1663   -4.7852   -3.9128 H   0  0  0  0  0  0  0  0  0  0  0  0
   -2.2318   -6.8115   -2.4256 H   0  0  0  0  0  0  0  0  0  0  0  0
   -2.2941   -5.8102   -0.9453 H   0  0  0  0  0  0  0  0  0  0  0  0
   -0.5369   -8.2921   -1.3102 H   0  0  0  0  0  0  0  0  0  0  0  0
   -2.0469   -8.2329   -0.3855 H   0  0  0  0  0  0  0  0  0  0  0  0
   -0.6449   -7.2965    0.1502 H   0  0  0  0  0  0  0  0  0  0  0  0
  1  2  1  0  0  0  0
  2  3  1  0  0  0  0
  3  4  2  0  0  0  0
  4  5  1  0  0  0  0
  5  6  1  0  0  0  0
  6  7  2  0  0  0  0
  7  8  1  0  0  0  0
  8  9  1  0  0  0  0
  9 10  1  0  0  0  0
  8 11  2  0  0  0  0
  7 12  1  0  0  0  0
 12 13  1  0  0  0  0
 12 14  1  0  0  0  0
 14 15  2  0  0  0  0
 15 16  1  0  0  0  0
 16 17  1  0  0  0  0
 17 18  1  0  0  0  0
 18 19  2  0  0  0  0
 19 20  1  0  0  0  0
 20 21  2  0  0  0  0
 21 22  1  0  0  0  0
 22 23  2  0  0  0  0
 22 24  1  0  0  0  0
 24 25  1  0  0  0  0
 25 26  1  0  0  0  0
 21 27  1  0  0  0  0
 27 28  1  0  0  0  0
 18 29  1  0  0  0  0
 29 30  1  0  0  0  0
 30 31  1  0  0  0  0
 31 32  2  0  0  0  0
 32 33  1  0  0  0  0
 33 34  1  0  0  0  0
 34 35  2  0  0  0  0
 35 36  1  0  0  0  0
 36 37  1  0  0  0  0
 37 38  1  0  0  0  0
 36 39  2  0  0  0  0
 35 40  1  0  0  0  0
 40 41  1  0  0  0  0
 40 42  1  0  0  0  0
 42 43  2  0  0  0  0
 43 44  1  0  0  0  0
 44 45  1  0  0  0  0
 45 46  1  0  0  0  0
 46 47  2  0  0  0  0
 47 48  1  0  0  0  0
 48 49  1  0  0  0  0
 49 50  2  0  0  0  0
 50 51  1  0  0  0  0
 51 52  1  0  0  0  0
 52 53  1  0  0  0  0
 51 54  2  0  0  0  0
 50 55  1  0  0  0  0
 55 56  1  0  0  0  0
 55 57  1  0  0  0  0
 57 58  2  0  0  0  0
 58 59  1  0  0  0  0
 59 60  1  0  0  0  0
 60 61  1  0  0  0  0
 61 62  2  0  0  0  0
 62 63  1  0  0  0  0
 63 64  1  0  0  0  0
 64 65  2  0  0  0  0
 65 66  1  0  0  0  0
 66 67  1  0  0  0  0
 67 68  1  0  0  0  0
 66 69  2  0  0  0  0
 65 70  1  0  0  0  0
 70 71  1  0  0  0  0
 70 72  1  0  0  0  0
 72 73  2  0  0  0  0
 73 74  1  0  0  0  0
 74 75  1  0  0  0  0
 75 76  1  0  0  0  0
 76 77  2  0  0  0  0
 77 78  1  0  0  0  0
 78 79  2  0  0  0  0
 79 80  1  0  0  0  0
 80 81  2  0  0  0  0
 80 82  1  0  0  0  0
 82 83  1  0  0  0  0
 83 84  1  0  0  0  0
 79 85  1  0  0  0  0
 85 86  1  0  0  0  0
  5  1  2  0  0  0  0
 28 16  2  0  0  0  0
 33 29  2  0  0  0  0
 48 44  2  0  0  0  0
 63 59  2  0  0  0  0
 86 74  2  0  0  0  0
 11  4  1  0  0  0  0
 28 19  1  0  0  0  0
 39 32  1  0  0  0  0
 54 47  1  0  0  0  0
 69 62  1  0  0  0  0
 86 77  1  0  0  0  0
  1 87  1  0  0  0  0
  3 88  1  0  0  0  0
  9 89  1  0  0  0  0
 10 90  1  0  0  0  0
 10 91  1  0  0  0  0
 10 92  1  0  0  0  0
 13 93  1  0  0  0  0
 13 94  1  0  0  0  0
 13 95  1  0  0  0  0
 14 96  1  0  0  0  0
 15 97  1  0  0  0  0
 20 98  1  0  0  0  0
 25 99  1  0  0  0  0
 25100  1  0  0  0  0
 26101  1  0  0  0  0
 26102  1  0  0  0  0
 26103  1  0  0  0  0
 31104  1  0  0  0  0
 37105  1  0  0  0  0
 38106  1  0  0  0  0
 38107  1  0  0  0  0
 38108  1  0  0  0  0
 41109  1  0  0  0  0
 41110  1  0  0  0  0
 41111  1  0  0  0  0
 42112  1  0  0  0  0
 43113  1  0  0  0  0
 46114  1  0  0  0  0
 52115  1  0  0  0  0
 53116  1  0  0  0  0
 53117  1  0  0  0  0
 53118  1  0  0  0  0
 56119  1  0  0  0  0
 56120  1  0  0  0  0
 56121  1  0  0  0  0
 57122  1  0  0  0  0
 58123  1  0  0  0  0
 61124  1  0  0  0  0
 67125  1  0  0  0  0
 68126  1  0  0  0  0
 68127  1  0  0  0  0
 68128  1  0  0  0  0
 71129  1  0  0  0  0
 71130  1  0  0  0  0
 71131  1  0  0  0  0
 72132  1  0  0  0  0
 73133  1  0  0  0  0
 76134  1  0  0  0  0
 78135  1  0  0  0  0
 83136  1  0  0  0  0
 83137  1  0  0  0  0
 84138  1  0  0  0  0
 84139  1  0  0  0  0
 84140  1  0  0  0  0
M  END
