
  xtb     03022221223D
 energy: -144.731284004546 gnorm: 0.000240318702 xtb: 6.4.1 (unknown)
 81 87  0     0  0            999 V2000
    5.5360    0.0302   -0.9352 C   0  0  0  0  0  0  0  0  0  0  0  0
    5.3469   -0.5630   -2.5338 S   0  0  0  0  0  0  0  0  0  0  0  0
    4.3827   -1.8699   -1.9719 C   0  0  0  0  0  0  0  0  0  0  0  0
    4.2105   -1.8420   -0.6284 C   0  0  0  0  0  0  0  0  0  0  0  0
    4.8693   -0.7369   -0.0304 C   0  0  0  0  0  0  0  0  0  0  0  0
    4.9314   -0.4802    1.7188 S   0  0  0  0  0  0  0  0  0  0  0  0
    4.9091    1.2653    1.8413 C   0  0  0  0  0  0  0  0  0  0  0  0
    4.0934    2.0653    1.1477 C   0  0  0  0  0  0  0  0  0  0  0  0
    4.1686    3.4948    1.1978 C   0  0  0  0  0  0  0  0  0  0  0  0
    5.6243    4.3004    1.7176 S   0  0  0  0  0  0  0  0  0  0  0  0
    4.9382    5.8478    1.4102 C   0  0  0  0  0  0  0  0  0  0  0  0
    3.6649    5.7614    0.9555 C   0  0  0  0  0  0  0  0  0  0  0  0
    3.2186    4.4245    0.8414 C   0  0  0  0  0  0  0  0  0  0  0  0
    1.5653    4.0624    0.3253 S   0  0  0  0  0  0  0  0  0  0  0  0
    1.0254    3.0617    1.6531 C   0  0  0  0  0  0  0  0  0  0  0  0
   -0.2359    2.6533    1.8455 C   0  0  0  0  0  0  0  0  0  0  0  0
   -1.3852    2.9455    1.0516 C   0  0  0  0  0  0  0  0  0  0  0  0
   -1.3862    4.0805   -0.2668 S   0  0  0  0  0  0  0  0  0  0  0  0
   -3.0547    3.7957   -0.5663 C   0  0  0  0  0  0  0  0  0  0  0  0
   -3.5898    2.8802    0.2811 C   0  0  0  0  0  0  0  0  0  0  0  0
   -2.6418    2.3882    1.2016 C   0  0  0  0  0  0  0  0  0  0  0  0
   -2.9102    1.1275    2.4183 S   0  0  0  0  0  0  0  0  0  0  0  0
   -4.3603    0.3227    1.8401 C   0  0  0  0  0  0  0  0  0  0  0  0
   -4.4380   -1.0034    1.6493 C   0  0  0  0  0  0  0  0  0  0  0  0
   -3.3775   -1.9497    1.7097 C   0  0  0  0  0  0  0  0  0  0  0  0
   -1.7489   -1.5669    2.1996 S   0  0  0  0  0  0  0  0  0  0  0  0
   -1.1358   -3.1365    1.7727 C   0  0  0  0  0  0  0  0  0  0  0  0
   -2.1719   -3.9458    1.3120 C   0  0  0  0  0  0  0  0  0  0  0  0
   -2.2924   -5.2699    0.8252 C   0  0  0  0  0  0  0  0  0  0  0  0
   -3.5694   -5.5707    0.4575 C   0  0  0  0  0  0  0  0  0  0  0  0
   -4.0372   -6.8421   -0.0899 C   0  0  0  0  0  0  0  0  0  0  0  0
   -3.3340   -7.8045   -0.2855 O   0  0  0  0  0  0  0  0  0  0  0  0
   -5.3490   -6.8019   -0.3538 O   0  0  0  0  0  0  0  0  0  0  0  0
   -5.9237   -7.9856   -0.9043 C   0  0  0  0  0  0  0  0  0  0  0  0
   -7.3665   -7.6910   -1.2675 C   0  0  0  0  0  0  0  0  0  0  0  0
   -4.7049   -4.2558    0.6772 S   0  0  0  0  0  0  0  0  0  0  0  0
   -3.4208   -3.2619    1.2890 C   0  0  0  0  0  0  0  0  0  0  0  0
    0.2440   -3.4427    1.9077 C   0  0  0  0  0  0  0  0  0  0  0  0
    0.8185   -5.0875    1.8313 S   0  0  0  0  0  0  0  0  0  0  0  0
    2.4400   -4.5861    2.1140 C   0  0  0  0  0  0  0  0  0  0  0  0
    2.5474   -3.2400    2.2500 C   0  0  0  0  0  0  0  0  0  0  0  0
    1.3066   -2.5843    2.1215 C   0  0  0  0  0  0  0  0  0  0  0  0
    1.1207   -0.8199    2.2139 S   0  0  0  0  0  0  0  0  0  0  0  0
    0.9995   -0.4684    0.4837 C   0  0  0  0  0  0  0  0  0  0  0  0
   -0.0794    0.1534    0.0051 C   0  0  0  0  0  0  0  0  0  0  0  0
   -0.2668    0.6373   -1.3280 C   0  0  0  0  0  0  0  0  0  0  0  0
   -1.8831    0.7944   -1.9546 S   0  0  0  0  0  0  0  0  0  0  0  0
   -1.2954    1.4684   -3.4225 C   0  0  0  0  0  0  0  0  0  0  0  0
    0.0561    1.5692   -3.4410 C   0  0  0  0  0  0  0  0  0  0  0  0
    0.6481    1.1001   -2.2444 C   0  0  0  0  0  0  0  0  0  0  0  0
    2.3793    1.1228   -1.9438 S   0  0  0  0  0  0  0  0  0  0  0  0
    2.7735    2.7579   -2.4741 C   0  0  0  0  0  0  0  0  0  0  0  0
    4.0139    3.2017   -2.5729 C   0  0  0  0  0  0  0  0  0  0  0  0
    6.1189    0.9104   -0.7502 H   0  0  0  0  0  0  0  0  0  0  0  0
    3.9958   -2.5792   -2.6755 H   0  0  0  0  0  0  0  0  0  0  0  0
    3.6519   -2.5720   -0.0710 H   0  0  0  0  0  0  0  0  0  0  0  0
    5.6016    1.6514    2.5747 H   0  0  0  0  0  0  0  0  0  0  0  0
    3.3516    1.6476    0.4791 H   0  0  0  0  0  0  0  0  0  0  0  0
    5.5211    6.7262    1.6012 H   0  0  0  0  0  0  0  0  0  0  0  0
    3.0453    6.6045    0.7104 H   0  0  0  0  0  0  0  0  0  0  0  0
    1.8089    2.7719    2.3324 H   0  0  0  0  0  0  0  0  0  0  0  0
   -0.4243    2.0120    2.6973 H   0  0  0  0  0  0  0  0  0  0  0  0
   -3.5457    4.3271   -1.3565 H   0  0  0  0  0  0  0  0  0  0  0  0
   -4.6160    2.5664    0.2406 H   0  0  0  0  0  0  0  0  0  0  0  0
   -5.2224    0.9564    1.7149 H   0  0  0  0  0  0  0  0  0  0  0  0
   -5.3919   -1.4234    1.3523 H   0  0  0  0  0  0  0  0  0  0  0  0
   -1.4897   -5.9793    0.7429 H   0  0  0  0  0  0  0  0  0  0  0  0
   -5.3402   -8.2852   -1.7824 H   0  0  0  0  0  0  0  0  0  0  0  0
   -5.8544   -8.7888   -0.1615 H   0  0  0  0  0  0  0  0  0  0  0  0
   -7.4117   -6.8909   -2.0015 H   0  0  0  0  0  0  0  0  0  0  0  0
   -7.8278   -8.5824   -1.6823 H   0  0  0  0  0  0  0  0  0  0  0  0
   -7.9178   -7.3815   -0.3837 H   0  0  0  0  0  0  0  0  0  0  0  0
    3.2146   -5.3249    2.1612 H   0  0  0  0  0  0  0  0  0  0  0  0
    3.4656   -2.7154    2.4428 H   0  0  0  0  0  0  0  0  0  0  0  0
    1.8487   -0.7610   -0.1133 H   0  0  0  0  0  0  0  0  0  0  0  0
   -0.9108    0.3255    0.6705 H   0  0  0  0  0  0  0  0  0  0  0  0
   -1.9899    1.7378   -4.1929 H   0  0  0  0  0  0  0  0  0  0  0  0
    0.6216    1.9554   -4.2702 H   0  0  0  0  0  0  0  0  0  0  0  0
    1.9072    3.3701   -2.6665 H   0  0  0  0  0  0  0  0  0  0  0  0
    4.8615    2.5720   -2.3672 H   0  0  0  0  0  0  0  0  0  0  0  0
    4.2161    4.2168   -2.8660 H   0  0  0  0  0  0  0  0  0  0  0  0
  1  2  1  0  0  0  0
  2  3  1  0  0  0  0
  3  4  2  0  0  0  0
  4  5  1  0  0  0  0
  5  6  1  0  0  0  0
  6  7  1  0  0  0  0
  7  8  2  0  0  0  0
  8  9  1  0  0  0  0
  9 10  1  0  0  0  0
 10 11  1  0  0  0  0
 11 12  2  0  0  0  0
 12 13  1  0  0  0  0
 13 14  1  0  0  0  0
 14 15  1  0  0  0  0
 15 16  2  0  0  0  0
 16 17  1  0  0  0  0
 17 18  1  0  0  0  0
 18 19  1  0  0  0  0
 19 20  2  0  0  0  0
 20 21  1  0  0  0  0
 21 22  1  0  0  0  0
 22 23  1  0  0  0  0
 23 24  2  0  0  0  0
 24 25  1  0  0  0  0
 25 26  1  0  0  0  0
 26 27  1  0  0  0  0
 27 28  2  0  0  0  0
 28 29  1  0  0  0  0
 29 30  2  0  0  0  0
 30 31  1  0  0  0  0
 31 32  2  0  0  0  0
 31 33  1  0  0  0  0
 33 34  1  0  0  0  0
 34 35  1  0  0  0  0
 30 36  1  0  0  0  0
 36 37  1  0  0  0  0
 27 38  1  0  0  0  0
 38 39  1  0  0  0  0
 39 40  1  0  0  0  0
 40 41  2  0  0  0  0
 41 42  1  0  0  0  0
 42 43  1  0  0  0  0
 43 44  1  0  0  0  0
 44 45  2  0  0  0  0
 45 46  1  0  0  0  0
 46 47  1  0  0  0  0
 47 48  1  0  0  0  0
 48 49  2  0  0  0  0
 49 50  1  0  0  0  0
 50 51  1  0  0  0  0
 51 52  1  0  0  0  0
 52 53  2  0  0  0  0
  5  1  2  0  0  0  0
 13  9  2  0  0  0  0
 21 17  2  0  0  0  0
 37 25  2  0  0  0  0
 42 38  2  0  0  0  0
 50 46  2  0  0  0  0
 37 28  1  0  0  0  0
  1 54  1  0  0  0  0
  3 55  1  0  0  0  0
  4 56  1  0  0  0  0
  7 57  1  0  0  0  0
  8 58  1  0  0  0  0
 11 59  1  0  0  0  0
 12 60  1  0  0  0  0
 15 61  1  0  0  0  0
 16 62  1  0  0  0  0
 19 63  1  0  0  0  0
 20 64  1  0  0  0  0
 23 65  1  0  0  0  0
 24 66  1  0  0  0  0
 29 67  1  0  0  0  0
 34 68  1  0  0  0  0
 34 69  1  0  0  0  0
 35 70  1  0  0  0  0
 35 71  1  0  0  0  0
 35 72  1  0  0  0  0
 40 73  1  0  0  0  0
 41 74  1  0  0  0  0
 44 75  1  0  0  0  0
 45 76  1  0  0  0  0
 48 77  1  0  0  0  0
 49 78  1  0  0  0  0
 52 79  1  0  0  0  0
 53 80  1  0  0  0  0
 53 81  1  0  0  0  0
M  END
