
  xtb     03022208043D
 energy: -460.423950570083 gnorm: 0.000760765345 xtb: 6.4.1 (unknown)
231257  0     0  0            999 V2000
    2.6486   -7.5934   12.7226 C   0  0  0  0  0  0  0  0  0  0  0  0
    3.0369   -6.3058   12.8233 C   0  0  0  0  0  0  0  0  0  0  0  0
    2.8340   -5.5721   11.6185 C   0  0  0  0  0  0  0  0  0  0  0  0
    3.1547   -4.2326   11.3508 C   0  0  0  0  0  0  0  0  0  0  0  0
    3.8437   -3.3983   12.3225 C   0  0  0  0  0  0  0  0  0  0  0  0
    3.2237   -1.8403   12.7784 S   0  0  0  0  0  0  0  0  0  0  0  0
    4.5637   -1.5278   13.8284 C   0  0  0  0  0  0  0  0  0  0  0  0
    4.6812   -0.2323   14.5521 C   0  0  0  0  0  0  0  0  0  0  0  0
    5.0646    0.8968   13.5928 C   0  0  0  0  0  0  0  0  0  0  0  0
    5.4343   -2.5762   13.8105 C   0  0  0  0  0  0  0  0  0  0  0  0
    6.8917   -2.6316   14.7155 Cl  0  0  0  0  0  0  0  0  0  0  0  0
    5.0272   -3.6409   12.9616 C   0  0  0  0  0  0  0  0  0  0  0  0
    5.9862   -5.0431   12.7140 Cl  0  0  0  0  0  0  0  0  0  0  0  0
    2.8154   -3.7410   10.0972 C   0  0  0  0  0  0  0  0  0  0  0  0
    2.2084   -4.5371    9.0971 C   0  0  0  0  0  0  0  0  0  0  0  0
    1.9063   -5.8847    9.3560 C   0  0  0  0  0  0  0  0  0  0  0  0
    1.2931   -6.7144    8.3315 C   0  0  0  0  0  0  0  0  0  0  0  0
    2.0009   -6.8449    6.7475 S   0  0  0  0  0  0  0  0  0  0  0  0
    0.7418   -7.8890    6.1823 C   0  0  0  0  0  0  0  0  0  0  0  0
    0.7091   -8.3476    4.7664 C   0  0  0  0  0  0  0  0  0  0  0  0
    0.2490   -7.2189    3.8401 C   0  0  0  0  0  0  0  0  0  0  0  0
   -0.1639   -8.1156    7.1746 C   0  0  0  0  0  0  0  0  0  0  0  0
    0.1474   -7.4572    8.3958 C   0  0  0  0  0  0  0  0  0  0  0  0
   -0.8832   -7.5276    9.7627 Cl  0  0  0  0  0  0  0  0  0  0  0  0
   -1.5614   -9.0952    6.9931 Cl  0  0  0  0  0  0  0  0  0  0  0  0
    2.2279   -6.3708   10.6175 C   0  0  0  0  0  0  0  0  0  0  0  0
    1.9961   -8.0027   11.1752 S   0  0  0  0  0  0  0  0  0  0  0  0
    1.9767   -3.8018    7.9086 C   0  0  0  0  0  0  0  0  0  0  0  0
    2.4046   -2.5104    7.9758 C   0  0  0  0  0  0  0  0  0  0  0  0
    3.1096   -2.1206    9.5310 S   0  0  0  0  0  0  0  0  0  0  0  0
    2.3323   -1.5269    6.9475 C   0  0  0  0  0  0  0  0  0  0  0  0
    2.6941   -0.2158    7.0126 C   0  0  0  0  0  0  0  0  0  0  0  0
    2.4947    0.4841    5.7977 C   0  0  0  0  0  0  0  0  0  0  0  0
    2.6812    1.8583    5.5606 C   0  0  0  0  0  0  0  0  0  0  0  0
    3.0179    2.7608    6.6465 C   0  0  0  0  0  0  0  0  0  0  0  0
    4.3634    3.8558    6.5322 S   0  0  0  0  0  0  0  0  0  0  0  0
    4.1024    4.4663    8.1294 C   0  0  0  0  0  0  0  0  0  0  0  0
    5.0207    5.4710    8.7321 C   0  0  0  0  0  0  0  0  0  0  0  0
    6.2205    4.7856    9.3909 C   0  0  0  0  0  0  0  0  0  0  0  0
    3.0313    3.8490    8.7045 C   0  0  0  0  0  0  0  0  0  0  0  0
    2.4679    4.1900   10.2891 Cl  0  0  0  0  0  0  0  0  0  0  0  0
    2.4099    2.8858    7.8663 C   0  0  0  0  0  0  0  0  0  0  0  0
    0.9907    2.0391    8.3317 Cl  0  0  0  0  0  0  0  0  0  0  0  0
    2.5144    2.2919    4.2544 C   0  0  0  0  0  0  0  0  0  0  0  0
    2.1787    1.4151    3.1930 C   0  0  0  0  0  0  0  0  0  0  0  0
    1.8174    0.0773    3.4579 C   0  0  0  0  0  0  0  0  0  0  0  0
    1.2058   -0.7659    2.4483 C   0  0  0  0  0  0  0  0  0  0  0  0
    1.5286   -2.4784    2.3931 S   0  0  0  0  0  0  0  0  0  0  0  0
    0.4639   -2.7317    1.0587 C   0  0  0  0  0  0  0  0  0  0  0  0
    0.1677   -4.0966    0.5449 C   0  0  0  0  0  0  0  0  0  0  0  0
   -1.1114   -4.6399    1.1872 C   0  0  0  0  0  0  0  0  0  0  0  0
   -0.1020   -1.5508    0.6801 C   0  0  0  0  0  0  0  0  0  0  0  0
    0.2912   -0.4423    1.4740 C   0  0  0  0  0  0  0  0  0  0  0  0
   -0.4895    1.0781    1.2797 Cl  0  0  0  0  0  0  0  0  0  0  0  0
   -1.1816   -1.3966   -0.6480 Cl  0  0  0  0  0  0  0  0  0  0  0  0
    2.0217   -0.3617    4.7643 C   0  0  0  0  0  0  0  0  0  0  0  0
    1.7357   -1.9721    5.3609 S   0  0  0  0  0  0  0  0  0  0  0  0
    2.1677    2.0925    1.9522 C   0  0  0  0  0  0  0  0  0  0  0  0
    2.3013    3.4463    2.0629 C   0  0  0  0  0  0  0  0  0  0  0  0
    2.6106    3.9464    3.7107 S   0  0  0  0  0  0  0  0  0  0  0  0
    1.9576    4.3734    1.0308 C   0  0  0  0  0  0  0  0  0  0  0  0
    1.3383    5.5805    1.1719 C   0  0  0  0  0  0  0  0  0  0  0  0
    0.7073    6.0362   -0.0167 C   0  0  0  0  0  0  0  0  0  0  0  0
   -0.2727    7.0412   -0.1501 C   0  0  0  0  0  0  0  0  0  0  0  0
   -0.6581    7.9158    0.9424 C   0  0  0  0  0  0  0  0  0  0  0  0
   -1.0051    7.3312    2.5435 S   0  0  0  0  0  0  0  0  0  0  0  0
   -1.4272    8.9069    3.1174 C   0  0  0  0  0  0  0  0  0  0  0  0
   -1.9066    9.1198    4.5104 C   0  0  0  0  0  0  0  0  0  0  0  0
   -3.4222    8.9241    4.6012 C   0  0  0  0  0  0  0  0  0  0  0  0
   -1.3067    9.8232    2.1153 C   0  0  0  0  0  0  0  0  0  0  0  0
   -1.6328   11.4965    2.3067 Cl  0  0  0  0  0  0  0  0  0  0  0  0
   -0.8748    9.2667    0.8827 C   0  0  0  0  0  0  0  0  0  0  0  0
   -0.5828   10.2284   -0.5047 Cl  0  0  0  0  0  0  0  0  0  0  0  0
   -0.9706    7.0850   -1.3546 C   0  0  0  0  0  0  0  0  0  0  0  0
   -0.6254    6.2728   -2.4590 C   0  0  0  0  0  0  0  0  0  0  0  0
    0.3483    5.2718   -2.3336 C   0  0  0  0  0  0  0  0  0  0  0  0
    0.4194    4.2143   -3.3410 C   0  0  0  0  0  0  0  0  0  0  0  0
    1.7861    3.9109   -4.3621 S   0  0  0  0  0  0  0  0  0  0  0  0
    1.0000    2.5841   -5.1512 C   0  0  0  0  0  0  0  0  0  0  0  0
    1.6491    1.8339   -6.2613 C   0  0  0  0  0  0  0  0  0  0  0  0
    1.1473    2.3297   -7.6200 C   0  0  0  0  0  0  0  0  0  0  0  0
   -0.2541    2.4057   -4.6462 C   0  0  0  0  0  0  0  0  0  0  0  0
   -0.5844    3.3267   -3.6176 C   0  0  0  0  0  0  0  0  0  0  0  0
   -2.0926    3.2853   -2.7947 Cl  0  0  0  0  0  0  0  0  0  0  0  0
   -1.3455    1.1882   -5.1732 Cl  0  0  0  0  0  0  0  0  0  0  0  0
    0.9715    5.1648   -1.1045 C   0  0  0  0  0  0  0  0  0  0  0  0
    1.9530    3.8138   -0.6289 S   0  0  0  0  0  0  0  0  0  0  0  0
   -1.5838    6.3364   -3.4940 C   0  0  0  0  0  0  0  0  0  0  0  0
   -2.7198    7.0057   -3.1375 C   0  0  0  0  0  0  0  0  0  0  0  0
   -2.5349    7.8315   -1.6077 S   0  0  0  0  0  0  0  0  0  0  0  0
   -3.9519    6.5275   -3.7203 C   0  0  0  0  0  0  0  0  0  0  0  0
   -4.1057    6.1227   -5.0114 C   0  0  0  0  0  0  0  0  0  0  0  0
   -4.8359    4.9093   -5.1384 C   0  0  0  0  0  0  0  0  0  0  0  0
   -4.8442    4.0651   -6.2652 C   0  0  0  0  0  0  0  0  0  0  0  0
   -4.4920    4.5852   -7.5698 C   0  0  0  0  0  0  0  0  0  0  0  0
   -3.3625    3.7806   -8.6200 S   0  0  0  0  0  0  0  0  0  0  0  0
   -3.4962    5.0076   -9.8325 C   0  0  0  0  0  0  0  0  0  0  0  0
   -2.7680    4.8906  -11.1254 C   0  0  0  0  0  0  0  0  0  0  0  0
   -3.5371    3.9980  -12.1027 C   0  0  0  0  0  0  0  0  0  0  0  0
   -4.3752    5.9726   -9.4384 C   0  0  0  0  0  0  0  0  0  0  0  0
   -4.7801    7.3442  -10.3870 Cl  0  0  0  0  0  0  0  0  0  0  0  0
   -4.9317    5.7447   -8.1523 C   0  0  0  0  0  0  0  0  0  0  0  0
   -6.0910    6.7948   -7.4487 Cl  0  0  0  0  0  0  0  0  0  0  0  0
   -5.0566    2.7126   -6.0206 C   0  0  0  0  0  0  0  0  0  0  0  0
   -5.3403    2.1974   -4.7320 C   0  0  0  0  0  0  0  0  0  0  0  0
   -5.5401    3.0749   -3.6497 C   0  0  0  0  0  0  0  0  0  0  0  0
   -5.8445    2.6126   -2.3080 C   0  0  0  0  0  0  0  0  0  0  0  0
   -4.9541    1.3278   -1.5445 S   0  0  0  0  0  0  0  0  0  0  0  0
   -5.8194    1.4985   -0.0554 C   0  0  0  0  0  0  0  0  0  0  0  0
   -5.5291    0.6150    1.1081 C   0  0  0  0  0  0  0  0  0  0  0  0
   -4.0324    0.5293    1.3979 C   0  0  0  0  0  0  0  0  0  0  0  0
   -6.7388    2.4992   -0.1586 C   0  0  0  0  0  0  0  0  0  0  0  0
   -6.7497    3.1387   -1.4271 C   0  0  0  0  0  0  0  0  0  0  0  0
   -7.8504    4.3930   -1.8163 Cl  0  0  0  0  0  0  0  0  0  0  0  0
   -7.8004    2.9638    1.1077 Cl  0  0  0  0  0  0  0  0  0  0  0  0
   -5.2531    4.4147   -3.8805 C   0  0  0  0  0  0  0  0  0  0  0  0
   -4.9495    5.5762   -2.6142 S   0  0  0  0  0  0  0  0  0  0  0  0
   -5.2382    0.7853   -4.6992 C   0  0  0  0  0  0  0  0  0  0  0  0
   -4.9025    0.2356   -5.8989 C   0  0  0  0  0  0  0  0  0  0  0  0
   -4.8129    1.4326   -7.1789 S   0  0  0  0  0  0  0  0  0  0  0  0
   -4.3921   -1.0803   -6.1178 C   0  0  0  0  0  0  0  0  0  0  0  0
   -3.3227   -1.7452   -4.9035 S   0  0  0  0  0  0  0  0  0  0  0  0
   -2.8448   -3.0744   -5.9165 C   0  0  0  0  0  0  0  0  0  0  0  0
   -3.5466   -3.0400   -7.1153 C   0  0  0  0  0  0  0  0  0  0  0  0
   -3.5701   -3.8216   -8.2938 C   0  0  0  0  0  0  0  0  0  0  0  0
   -4.3931   -3.2949   -9.2428 C   0  0  0  0  0  0  0  0  0  0  0  0
   -4.6475   -3.8268  -10.5841 C   0  0  0  0  0  0  0  0  0  0  0  0
   -5.3724   -3.3164  -11.4023 O   0  0  0  0  0  0  0  0  0  0  0  0
   -3.9575   -4.9564  -10.7898 O   0  0  0  0  0  0  0  0  0  0  0  0
   -4.1028   -5.5659  -12.0726 C   0  0  0  0  0  0  0  0  0  0  0  0
   -3.2117   -6.7934  -12.1098 C   0  0  0  0  0  0  0  0  0  0  0  0
   -5.1918   -1.8109   -8.7630 S   0  0  0  0  0  0  0  0  0  0  0  0
   -4.3907   -1.8921   -7.2246 C   0  0  0  0  0  0  0  0  0  0  0  0
   -1.7223   -3.8733   -5.5698 C   0  0  0  0  0  0  0  0  0  0  0  0
   -0.7331   -3.5331   -4.6888 C   0  0  0  0  0  0  0  0  0  0  0  0
    0.3932   -4.3886   -4.7384 C   0  0  0  0  0  0  0  0  0  0  0  0
    1.6273   -4.2530   -4.0707 C   0  0  0  0  0  0  0  0  0  0  0  0
    1.9013   -3.1058   -3.2234 C   0  0  0  0  0  0  0  0  0  0  0  0
    1.4854   -1.4987   -3.7634 S   0  0  0  0  0  0  0  0  0  0  0  0
    2.1674   -0.7570   -2.3639 C   0  0  0  0  0  0  0  0  0  0  0  0
    2.2085    0.7197   -2.2039 C   0  0  0  0  0  0  0  0  0  0  0  0
    3.5398    1.2768   -2.7109 C   0  0  0  0  0  0  0  0  0  0  0  0
    2.6916   -1.7033   -1.5361 C   0  0  0  0  0  0  0  0  0  0  0  0
    3.4826   -1.3258   -0.0602 Cl  0  0  0  0  0  0  0  0  0  0  0  0
    2.5408   -3.0319   -2.0138 C   0  0  0  0  0  0  0  0  0  0  0  0
    3.0618   -4.3765   -1.0915 Cl  0  0  0  0  0  0  0  0  0  0  0  0
    2.6010   -5.2081   -4.3594 C   0  0  0  0  0  0  0  0  0  0  0  0
    2.3825   -6.2925   -5.2446 C   0  0  0  0  0  0  0  0  0  0  0  0
    1.1425   -6.4410   -5.8858 C   0  0  0  0  0  0  0  0  0  0  0  0
    0.8754   -7.5508   -6.7854 C   0  0  0  0  0  0  0  0  0  0  0  0
    0.2501   -7.2967   -8.3882 S   0  0  0  0  0  0  0  0  0  0  0  0
    0.1975   -8.9937   -8.7220 C   0  0  0  0  0  0  0  0  0  0  0  0
   -0.2419   -9.5027  -10.0504 C   0  0  0  0  0  0  0  0  0  0  0  0
    0.9069   -9.4686  -11.0610 C   0  0  0  0  0  0  0  0  0  0  0  0
    0.6479   -9.7024   -7.6484 C   0  0  0  0  0  0  0  0  0  0  0  0
    1.0284   -8.8885   -6.5474 C   0  0  0  0  0  0  0  0  0  0  0  0
    1.5454   -9.5463   -5.0486 Cl  0  0  0  0  0  0  0  0  0  0  0  0
    0.7409  -11.4155   -7.6010 Cl  0  0  0  0  0  0  0  0  0  0  0  0
    0.1923   -5.4596   -5.6435 C   0  0  0  0  0  0  0  0  0  0  0  0
   -1.3577   -5.3545   -6.4282 S   0  0  0  0  0  0  0  0  0  0  0  0
    3.5662   -7.0595   -5.4469 C   0  0  0  0  0  0  0  0  0  0  0  0
    4.6230   -6.5802   -4.7607 C   0  0  0  0  0  0  0  0  0  0  0  0
    4.2559   -5.1803   -3.8186 S   0  0  0  0  0  0  0  0  0  0  0  0
    2.6947   -8.3557   13.4756 H   0  0  0  0  0  0  0  0  0  0  0  0
    3.4462   -5.8742   13.7177 H   0  0  0  0  0  0  0  0  0  0  0  0
    5.4418   -0.3338   15.3279 H   0  0  0  0  0  0  0  0  0  0  0  0
    3.7277    0.0073   15.0271 H   0  0  0  0  0  0  0  0  0  0  0  0
    6.0185    0.6810   13.1178 H   0  0  0  0  0  0  0  0  0  0  0  0
    5.1494    1.8346   14.1352 H   0  0  0  0  0  0  0  0  0  0  0  0
    4.3081    1.0064   12.8193 H   0  0  0  0  0  0  0  0  0  0  0  0
    0.0232   -9.1926    4.6888 H   0  0  0  0  0  0  0  0  0  0  0  0
    1.7058   -8.6770    4.4663 H   0  0  0  0  0  0  0  0  0  0  0  0
    0.2305   -7.5653    2.8104 H   0  0  0  0  0  0  0  0  0  0  0  0
   -0.7505   -6.8913    4.1156 H   0  0  0  0  0  0  0  0  0  0  0  0
    0.9270   -6.3712    3.9120 H   0  0  0  0  0  0  0  0  0  0  0  0
    1.5061   -4.2057    7.0309 H   0  0  0  0  0  0  0  0  0  0  0  0
    3.1067    0.2282    7.9001 H   0  0  0  0  0  0  0  0  0  0  0  0
    5.3719    6.1524    7.9557 H   0  0  0  0  0  0  0  0  0  0  0  0
    4.4714    6.0445    9.4811 H   0  0  0  0  0  0  0  0  0  0  0  0
    6.8806    5.5290    9.8292 H   0  0  0  0  0  0  0  0  0  0  0  0
    6.7787    4.2131    8.6540 H   0  0  0  0  0  0  0  0  0  0  0  0
    5.8854    4.1109   10.1748 H   0  0  0  0  0  0  0  0  0  0  0  0
    0.0409   -4.0542   -0.5390 H   0  0  0  0  0  0  0  0  0  0  0  0
    1.0004   -4.7602    0.7767 H   0  0  0  0  0  0  0  0  0  0  0  0
   -1.9550   -3.9971    0.9498 H   0  0  0  0  0  0  0  0  0  0  0  0
   -1.3189   -5.6391    0.8146 H   0  0  0  0  0  0  0  0  0  0  0  0
   -1.0000   -4.6859    2.2677 H   0  0  0  0  0  0  0  0  0  0  0  0
    2.0381    1.6013    1.0067 H   0  0  0  0  0  0  0  0  0  0  0  0
    1.2560    6.0725    2.1238 H   0  0  0  0  0  0  0  0  0  0  0  0
   -1.6511   10.1357    4.8175 H   0  0  0  0  0  0  0  0  0  0  0  0
   -1.4077    8.4147    5.1773 H   0  0  0  0  0  0  0  0  0  0  0  0
   -3.7585    9.0867    5.6215 H   0  0  0  0  0  0  0  0  0  0  0  0
   -3.6916    7.9144    4.3007 H   0  0  0  0  0  0  0  0  0  0  0  0
   -3.9328    9.6283    3.9493 H   0  0  0  0  0  0  0  0  0  0  0  0
    2.7304    1.9628   -6.2008 H   0  0  0  0  0  0  0  0  0  0  0  0
    1.4139    0.7724   -6.1513 H   0  0  0  0  0  0  0  0  0  0  0  0
    1.3857    3.3826   -7.7494 H   0  0  0  0  0  0  0  0  0  0  0  0
    1.6186    1.7646   -8.4192 H   0  0  0  0  0  0  0  0  0  0  0  0
    0.0700    2.2056   -7.6932 H   0  0  0  0  0  0  0  0  0  0  0  0
   -1.5087    5.7636   -4.4001 H   0  0  0  0  0  0  0  0  0  0  0  0
   -3.5871    6.5829   -5.8331 H   0  0  0  0  0  0  0  0  0  0  0  0
   -1.7790    4.4648  -10.9471 H   0  0  0  0  0  0  0  0  0  0  0  0
   -2.6501    5.8876  -11.5536 H   0  0  0  0  0  0  0  0  0  0  0  0
   -3.6636    3.0024  -11.6843 H   0  0  0  0  0  0  0  0  0  0  0  0
   -4.5194    4.4179  -12.3034 H   0  0  0  0  0  0  0  0  0  0  0  0
   -2.9945    3.9176  -13.0406 H   0  0  0  0  0  0  0  0  0  0  0  0
   -5.9125   -0.3891    0.9016 H   0  0  0  0  0  0  0  0  0  0  0  0
   -6.0616    1.0069    1.9765 H   0  0  0  0  0  0  0  0  0  0  0  0
   -3.8509   -0.1149    2.2544 H   0  0  0  0  0  0  0  0  0  0  0  0
   -3.6311    1.5166    1.6147 H   0  0  0  0  0  0  0  0  0  0  0  0
   -3.5044    0.1228    0.5383 H   0  0  0  0  0  0  0  0  0  0  0  0
   -5.3548    0.1934   -3.8104 H   0  0  0  0  0  0  0  0  0  0  0  0
   -3.0134   -4.7279   -8.4426 H   0  0  0  0  0  0  0  0  0  0  0  0
   -5.1557   -5.8292  -12.2243 H   0  0  0  0  0  0  0  0  0  0  0  0
   -3.8203   -4.8406  -12.8441 H   0  0  0  0  0  0  0  0  0  0  0  0
   -2.1772   -6.5072  -11.9379 H   0  0  0  0  0  0  0  0  0  0  0  0
   -3.5129   -7.4943  -11.3356 H   0  0  0  0  0  0  0  0  0  0  0  0
   -3.2933   -7.2759  -13.0792 H   0  0  0  0  0  0  0  0  0  0  0  0
   -0.8065   -2.6615   -4.0653 H   0  0  0  0  0  0  0  0  0  0  0  0
    1.3818    1.1711   -2.7523 H   0  0  0  0  0  0  0  0  0  0  0  0
    2.0951    0.9623   -1.1467 H   0  0  0  0  0  0  0  0  0  0  0  0
    4.3644    0.8331   -2.1595 H   0  0  0  0  0  0  0  0  0  0  0  0
    3.5685    2.3537   -2.5759 H   0  0  0  0  0  0  0  0  0  0  0  0
    3.6648    1.0507   -3.7669 H   0  0  0  0  0  0  0  0  0  0  0  0
   -1.0658   -8.8884  -10.4180 H   0  0  0  0  0  0  0  0  0  0  0  0
   -0.5944  -10.5288   -9.9320 H   0  0  0  0  0  0  0  0  0  0  0  0
    1.2680   -8.4508  -11.1868 H   0  0  0  0  0  0  0  0  0  0  0  0
    0.5678   -9.8413  -12.0237 H   0  0  0  0  0  0  0  0  0  0  0  0
    1.7298  -10.0899  -10.7172 H   0  0  0  0  0  0  0  0  0  0  0  0
    3.6147   -7.9129   -6.0972 H   0  0  0  0  0  0  0  0  0  0  0  0
    5.6245   -6.9633   -4.7397 H   0  0  0  0  0  0  0  0  0  0  0  0
  1  2  2  0  0  0  0
  2  3  1  0  0  0  0
  3  4  2  0  0  0  0
  4  5  1  0  0  0  0
  5  6  1  0  0  0  0
  6  7  1  0  0  0  0
  7  8  1  0  0  0  0
  8  9  1  0  0  0  0
  7 10  2  0  0  0  0
 10 11  1  0  0  0  0
 10 12  1  0  0  0  0
 12 13  1  0  0  0  0
  4 14  1  0  0  0  0
 14 15  2  0  0  0  0
 15 16  1  0  0  0  0
 16 17  1  0  0  0  0
 17 18  1  0  0  0  0
 18 19  1  0  0  0  0
 19 20  1  0  0  0  0
 20 21  1  0  0  0  0
 19 22  2  0  0  0  0
 22 23  1  0  0  0  0
 23 24  1  0  0  0  0
 22 25  1  0  0  0  0
 16 26  2  0  0  0  0
 26 27  1  0  0  0  0
 15 28  1  0  0  0  0
 28 29  2  0  0  0  0
 29 30  1  0  0  0  0
 29 31  1  0  0  0  0
 31 32  2  0  0  0  0
 32 33  1  0  0  0  0
 33 34  2  0  0  0  0
 34 35  1  0  0  0  0
 35 36  1  0  0  0  0
 36 37  1  0  0  0  0
 37 38  1  0  0  0  0
 38 39  1  0  0  0  0
 37 40  2  0  0  0  0
 40 41  1  0  0  0  0
 40 42  1  0  0  0  0
 42 43  1  0  0  0  0
 34 44  1  0  0  0  0
 44 45  2  0  0  0  0
 45 46  1  0  0  0  0
 46 47  1  0  0  0  0
 47 48  1  0  0  0  0
 48 49  1  0  0  0  0
 49 50  1  0  0  0  0
 50 51  1  0  0  0  0
 49 52  2  0  0  0  0
 52 53  1  0  0  0  0
 53 54  1  0  0  0  0
 52 55  1  0  0  0  0
 46 56  2  0  0  0  0
 56 57  1  0  0  0  0
 45 58  1  0  0  0  0
 58 59  2  0  0  0  0
 59 60  1  0  0  0  0
 59 61  1  0  0  0  0
 61 62  2  0  0  0  0
 62 63  1  0  0  0  0
 63 64  2  0  0  0  0
 64 65  1  0  0  0  0
 65 66  1  0  0  0  0
 66 67  1  0  0  0  0
 67 68  1  0  0  0  0
 68 69  1  0  0  0  0
 67 70  2  0  0  0  0
 70 71  1  0  0  0  0
 70 72  1  0  0  0  0
 72 73  1  0  0  0  0
 64 74  1  0  0  0  0
 74 75  2  0  0  0  0
 75 76  1  0  0  0  0
 76 77  1  0  0  0  0
 77 78  1  0  0  0  0
 78 79  1  0  0  0  0
 79 80  1  0  0  0  0
 80 81  1  0  0  0  0
 79 82  2  0  0  0  0
 82 83  1  0  0  0  0
 83 84  1  0  0  0  0
 82 85  1  0  0  0  0
 76 86  2  0  0  0  0
 86 87  1  0  0  0  0
 75 88  1  0  0  0  0
 88 89  2  0  0  0  0
 89 90  1  0  0  0  0
 89 91  1  0  0  0  0
 91 92  2  0  0  0  0
 92 93  1  0  0  0  0
 93 94  2  0  0  0  0
 94 95  1  0  0  0  0
 95 96  1  0  0  0  0
 96 97  1  0  0  0  0
 97 98  1  0  0  0  0
 98 99  1  0  0  0  0
 97100  2  0  0  0  0
100101  1  0  0  0  0
100102  1  0  0  0  0
102103  1  0  0  0  0
 94104  1  0  0  0  0
104105  2  0  0  0  0
105106  1  0  0  0  0
106107  1  0  0  0  0
107108  1  0  0  0  0
108109  1  0  0  0  0
109110  1  0  0  0  0
110111  1  0  0  0  0
109112  2  0  0  0  0
112113  1  0  0  0  0
113114  1  0  0  0  0
112115  1  0  0  0  0
106116  2  0  0  0  0
116117  1  0  0  0  0
105118  1  0  0  0  0
118119  2  0  0  0  0
119120  1  0  0  0  0
119121  1  0  0  0  0
121122  1  0  0  0  0
122123  1  0  0  0  0
123124  2  0  0  0  0
124125  1  0  0  0  0
125126  2  0  0  0  0
126127  1  0  0  0  0
127128  2  0  0  0  0
127129  1  0  0  0  0
129130  1  0  0  0  0
130131  1  0  0  0  0
126132  1  0  0  0  0
132133  1  0  0  0  0
123134  1  0  0  0  0
134135  2  0  0  0  0
135136  1  0  0  0  0
136137  2  0  0  0  0
137138  1  0  0  0  0
138139  1  0  0  0  0
139140  1  0  0  0  0
140141  1  0  0  0  0
141142  1  0  0  0  0
140143  2  0  0  0  0
143144  1  0  0  0  0
143145  1  0  0  0  0
145146  1  0  0  0  0
137147  1  0  0  0  0
147148  2  0  0  0  0
148149  1  0  0  0  0
149150  1  0  0  0  0
150151  1  0  0  0  0
151152  1  0  0  0  0
152153  1  0  0  0  0
153154  1  0  0  0  0
152155  2  0  0  0  0
155156  1  0  0  0  0
156157  1  0  0  0  0
155158  1  0  0  0  0
149159  2  0  0  0  0
159160  1  0  0  0  0
148161  1  0  0  0  0
161162  2  0  0  0  0
162163  1  0  0  0  0
 27  1  1  0  0  0  0
 57 31  1  0  0  0  0
 87 61  1  0  0  0  0
117 91  1  0  0  0  0
133121  2  0  0  0  0
160134  1  0  0  0  0
 26  3  1  0  0  0  0
 56 33  1  0  0  0  0
 86 63  1  0  0  0  0
116 93  1  0  0  0  0
133124  1  0  0  0  0
159136  1  0  0  0  0
 12  5  2  0  0  0  0
 30 14  1  0  0  0  0
 42 35  2  0  0  0  0
 60 44  1  0  0  0  0
 72 65  2  0  0  0  0
 90 74  1  0  0  0  0
102 95  2  0  0  0  0
120104  1  0  0  0  0
145138  2  0  0  0  0
163147  1  0  0  0  0
 23 17  2  0  0  0  0
 53 47  2  0  0  0  0
 83 77  2  0  0  0  0
113107  2  0  0  0  0
156150  2  0  0  0  0
  1164  1  0  0  0  0
  2165  1  0  0  0  0
  8166  1  0  0  0  0
  8167  1  0  0  0  0
  9168  1  0  0  0  0
  9169  1  0  0  0  0
  9170  1  0  0  0  0
 20171  1  0  0  0  0
 20172  1  0  0  0  0
 21173  1  0  0  0  0
 21174  1  0  0  0  0
 21175  1  0  0  0  0
 28176  1  0  0  0  0
 32177  1  0  0  0  0
 38178  1  0  0  0  0
 38179  1  0  0  0  0
 39180  1  0  0  0  0
 39181  1  0  0  0  0
 39182  1  0  0  0  0
 50183  1  0  0  0  0
 50184  1  0  0  0  0
 51185  1  0  0  0  0
 51186  1  0  0  0  0
 51187  1  0  0  0  0
 58188  1  0  0  0  0
 62189  1  0  0  0  0
 68190  1  0  0  0  0
 68191  1  0  0  0  0
 69192  1  0  0  0  0
 69193  1  0  0  0  0
 69194  1  0  0  0  0
 80195  1  0  0  0  0
 80196  1  0  0  0  0
 81197  1  0  0  0  0
 81198  1  0  0  0  0
 81199  1  0  0  0  0
 88200  1  0  0  0  0
 92201  1  0  0  0  0
 98202  1  0  0  0  0
 98203  1  0  0  0  0
 99204  1  0  0  0  0
 99205  1  0  0  0  0
 99206  1  0  0  0  0
110207  1  0  0  0  0
110208  1  0  0  0  0
111209  1  0  0  0  0
111210  1  0  0  0  0
111211  1  0  0  0  0
118212  1  0  0  0  0
125213  1  0  0  0  0
130214  1  0  0  0  0
130215  1  0  0  0  0
131216  1  0  0  0  0
131217  1  0  0  0  0
131218  1  0  0  0  0
135219  1  0  0  0  0
141220  1  0  0  0  0
141221  1  0  0  0  0
142222  1  0  0  0  0
142223  1  0  0  0  0
142224  1  0  0  0  0
153225  1  0  0  0  0
153226  1  0  0  0  0
154227  1  0  0  0  0
154228  1  0  0  0  0
154229  1  0  0  0  0
161230  1  0  0  0  0
162231  1  0  0  0  0
M  END
