
  xtb     03072219383D
 energy: -327.280361260561 gnorm: 0.000605318241 xtb: 6.4.1 (unknown)
182199  0     0  0            999 V2000
    4.9457   -9.3379    9.6169 C   0  0  0  0  0  0  0  0  0  0  0  0
    3.7010   -8.7415    9.4002 C   0  0  0  0  0  0  0  0  0  0  0  0
    3.0957   -9.2824    8.1845 C   0  0  0  0  0  0  0  0  0  0  0  0
    3.8808  -10.1964    7.5696 C   0  0  0  0  0  0  0  0  0  0  0  0
    5.3719  -10.4643    8.4263 S   0  0  0  0  0  3  0  0  0  0  0  0
    4.9911  -12.0612    9.0089 O   0  0  0  0  0  0  0  0  0  0  0  0
    1.8651   -8.9861    7.7538 O   0  0  0  0  0  0  0  0  0  0  0  0
    3.0974   -7.8359   10.2677 C   0  0  0  0  0  0  0  0  0  0  0  0
    2.0899   -6.8545   10.0945 C   0  0  0  0  0  0  0  0  0  0  0  0
    1.5588   -6.4619   11.3473 C   0  0  0  0  0  0  0  0  0  0  0  0
    2.2003   -7.0107   12.4361 C   0  0  0  0  0  0  0  0  0  0  0  0
    3.4940   -8.0244   11.9961 S   0  0  0  0  0  3  0  0  0  0  0  0
    4.8199   -7.0123   12.4290 O   0  0  0  0  0  0  0  0  0  0  0  0
    0.5175   -5.6126   11.4188 O   0  0  0  0  0  0  0  0  0  0  0  0
    1.8047   -6.1704    8.8752 C   0  0  0  0  0  0  0  0  0  0  0  0
    2.5387   -6.1934    7.7160 C   0  0  0  0  0  0  0  0  0  0  0  0
    1.9943   -5.4119    6.6754 C   0  0  0  0  0  0  0  0  0  0  0  0
    2.5178   -5.2225    5.3833 C   0  0  0  0  0  0  0  0  0  0  0  0
    3.7015   -5.9649    4.9378 C   0  0  0  0  0  0  0  0  0  0  0  0
    3.7723   -7.3483    5.1058 C   0  0  0  0  0  0  0  0  0  0  0  0
    4.8791   -8.0502    4.6814 C   0  0  0  0  0  0  0  0  0  0  0  0
    5.9600   -7.4062    4.0842 C   0  0  0  0  0  0  0  0  0  0  0  0
    7.3514   -8.3998    3.6208 S   0  0  0  0  0  0  0  0  0  0  0  0
    7.8145   -7.7463    1.9743 C   0  0  0  0  0  0  0  0  0  0  0  0
    6.6604   -7.8060    0.9941 C   0  0  0  0  0  0  0  0  0  0  0  0
    5.8839   -6.0252    3.9389 C   0  0  0  0  0  0  0  0  0  0  0  0
    6.9130   -5.3298    3.4051 F   0  0  0  0  0  0  0  0  0  0  0  0
    4.7722   -5.3112    4.3378 C   0  0  0  0  0  0  0  0  0  0  0  0
    1.8432   -4.3321    4.5638 C   0  0  0  0  0  0  0  0  0  0  0  0
    0.6639   -3.6626    4.9715 C   0  0  0  0  0  0  0  0  0  0  0  0
    0.1347   -3.8569    6.2620 C   0  0  0  0  0  0  0  0  0  0  0  0
   -1.0696   -3.1280    6.6781 C   0  0  0  0  0  0  0  0  0  0  0  0
   -1.1623   -1.7509    6.4873 C   0  0  0  0  0  0  0  0  0  0  0  0
   -2.3139   -1.0562    6.8012 C   0  0  0  0  0  0  0  0  0  0  0  0
   -3.4161   -1.7143    7.3342 C   0  0  0  0  0  0  0  0  0  0  0  0
   -4.9641   -0.9632    7.7178 S   0  0  0  0  0  0  0  0  0  0  0  0
   -4.6236    0.8307    7.6805 C   0  0  0  0  0  0  0  0  0  0  0  0
   -3.7631    1.2790    8.8460 C   0  0  0  0  0  0  0  0  0  0  0  0
   -3.2987   -3.0884    7.5513 C   0  0  0  0  0  0  0  0  0  0  0  0
   -2.1582   -3.7933    7.2367 C   0  0  0  0  0  0  0  0  0  0  0  0
   -4.3473   -3.7583    8.0729 F   0  0  0  0  0  0  0  0  0  0  0  0
    0.8094   -4.7439    7.0804 C   0  0  0  0  0  0  0  0  0  0  0  0
    0.3931   -5.1358    8.7299 S   0  0  0  0  0  0  0  0  0  0  0  0
    0.1262   -2.8661    3.9372 C   0  0  0  0  0  0  0  0  0  0  0  0
    0.8619   -2.8773    2.7863 C   0  0  0  0  0  0  0  0  0  0  0  0
    2.2629   -3.9213    2.9176 S   0  0  0  0  0  0  0  0  0  0  0  0
    0.5795   -2.0949    1.6284 C   0  0  0  0  0  0  0  0  0  0  0  0
   -0.4401   -1.1923    1.5252 C   0  0  0  0  0  0  0  0  0  0  0  0
   -0.4642   -0.4908    0.2996 C   0  0  0  0  0  0  0  0  0  0  0  0
   -1.3631    0.5219   -0.0800 C   0  0  0  0  0  0  0  0  0  0  0  0
   -2.3825    0.9709    0.8773 C   0  0  0  0  0  0  0  0  0  0  0  0
   -2.0067    1.3486    2.1674 C   0  0  0  0  0  0  0  0  0  0  0  0
   -2.9566    1.6466    3.1181 C   0  0  0  0  0  0  0  0  0  0  0  0
   -4.3179    1.5901    2.8226 C   0  0  0  0  0  0  0  0  0  0  0  0
   -5.4459    1.9293    4.1390 S   0  0  0  0  0  0  0  0  0  0  0  0
   -6.8764    0.8355    3.7732 C   0  0  0  0  0  0  0  0  0  0  0  0
   -7.5840    0.4910    5.0685 C   0  0  0  0  0  0  0  0  0  0  0  0
   -4.6750    1.2953    1.5103 C   0  0  0  0  0  0  0  0  0  0  0  0
   -5.9732    1.2958    1.1322 F   0  0  0  0  0  0  0  0  0  0  0  0
   -3.7328    0.9783    0.5506 C   0  0  0  0  0  0  0  0  0  0  0  0
   -1.2076    1.0410   -1.3524 C   0  0  0  0  0  0  0  0  0  0  0  0
   -0.1738    0.6201   -2.2281 C   0  0  0  0  0  0  0  0  0  0  0  0
    0.7404   -0.3749   -1.8377 C   0  0  0  0  0  0  0  0  0  0  0  0
    1.8166   -0.7970   -2.7425 C   0  0  0  0  0  0  0  0  0  0  0  0
    2.6429    0.1393   -3.3638 C   0  0  0  0  0  0  0  0  0  0  0  0
    3.6236   -0.2626   -4.2449 C   0  0  0  0  0  0  0  0  0  0  0  0
    3.8161   -1.6089   -4.5467 C   0  0  0  0  0  0  0  0  0  0  0  0
    5.0505   -2.0090   -5.7515 S   0  0  0  0  0  0  0  0  0  0  0  0
    5.8902   -3.4736   -5.0441 C   0  0  0  0  0  0  0  0  0  0  0  0
    6.4527   -3.1923   -3.6656 C   0  0  0  0  0  0  0  0  0  0  0  0
    2.9858   -2.5324   -3.9198 C   0  0  0  0  0  0  0  0  0  0  0  0
    2.0129   -2.1455   -3.0206 C   0  0  0  0  0  0  0  0  0  0  0  0
    3.0956   -3.8525   -4.1869 F   0  0  0  0  0  0  0  0  0  0  0  0
    0.5613   -0.9217   -0.5772 C   0  0  0  0  0  0  0  0  0  0  0  0
    1.5555   -2.1463    0.1751 S   0  0  0  0  0  0  0  0  0  0  0  0
   -0.2193    1.3139   -3.4598 C   0  0  0  0  0  0  0  0  0  0  0  0
   -1.2100    2.2483   -3.5329 C   0  0  0  0  0  0  0  0  0  0  0  0
   -2.1788    2.3024   -2.0718 S   0  0  0  0  0  0  0  0  0  0  0  0
   -1.4465    3.1274   -4.6266 C   0  0  0  0  0  0  0  0  0  0  0  0
   -2.4742    3.9993   -4.8399 C   0  0  0  0  0  0  0  0  0  0  0  0
   -2.3537    4.7316   -6.0469 C   0  0  0  0  0  0  0  0  0  0  0  0
   -3.2435    5.6733   -6.6007 C   0  0  0  0  0  0  0  0  0  0  0  0
   -4.4408    6.1076   -5.8714 C   0  0  0  0  0  0  0  0  0  0  0  0
   -4.3478    6.5367   -4.5478 C   0  0  0  0  0  0  0  0  0  0  0  0
   -5.4698    6.9503   -3.8628 C   0  0  0  0  0  0  0  0  0  0  0  0
   -6.7248    6.9600   -4.4677 C   0  0  0  0  0  0  0  0  0  0  0  0
   -8.0909    7.5519   -3.5097 S   0  0  0  0  0  0  0  0  0  0  0  0
   -9.4312    6.3653   -3.8953 C   0  0  0  0  0  0  0  0  0  0  0  0
   -9.0390    4.9405   -3.5600 C   0  0  0  0  0  0  0  0  0  0  0  0
   -6.7981    6.5579   -5.7974 C   0  0  0  0  0  0  0  0  0  0  0  0
   -7.9753    6.5761   -6.4613 F   0  0  0  0  0  0  0  0  0  0  0  0
   -5.6857    6.1260   -6.4909 C   0  0  0  0  0  0  0  0  0  0  0  0
   -2.9170    6.1822   -7.8451 C   0  0  0  0  0  0  0  0  0  0  0  0
   -1.7339    5.8395   -8.5546 C   0  0  0  0  0  0  0  0  0  0  0  0
   -0.8374    4.9182   -7.9892 C   0  0  0  0  0  0  0  0  0  0  0  0
    0.4145    4.5015   -8.6369 C   0  0  0  0  0  0  0  0  0  0  0  0
    0.4243    3.9092   -9.8966 C   0  0  0  0  0  0  0  0  0  0  0  0
    1.6012    3.4138  -10.4253 C   0  0  0  0  0  0  0  0  0  0  0  0
    2.7923    3.5090   -9.7206 C   0  0  0  0  0  0  0  0  0  0  0  0
    4.2907    2.7933  -10.3749 S   0  0  0  0  0  0  0  0  0  0  0  0
    4.1137    1.1056   -9.6779 C   0  0  0  0  0  0  0  0  0  0  0  0
    4.1853    1.0794   -8.1646 C   0  0  0  0  0  0  0  0  0  0  0  0
    2.7826    4.1523   -8.4899 C   0  0  0  0  0  0  0  0  0  0  0  0
    1.6117    4.6345   -7.9403 C   0  0  0  0  0  0  0  0  0  0  0  0
    3.9225    4.3001   -7.7927 F   0  0  0  0  0  0  0  0  0  0  0  0
   -1.1791    4.3866   -6.7576 C   0  0  0  0  0  0  0  0  0  0  0  0
   -0.2568    3.1721   -5.9168 S   0  0  0  0  0  0  0  0  0  0  0  0
   -1.6045    6.5451   -9.7685 C   0  0  0  0  0  0  0  0  0  0  0  0
   -2.6461    7.4045  -10.0246 C   0  0  0  0  0  0  0  0  0  0  0  0
   -3.8390    7.3749   -8.7272 S   0  0  0  0  0  0  0  0  0  0  0  0
   -2.8373    8.2583  -11.1250 C   0  0  0  0  0  0  0  0  0  0  0  0
   -2.0543    8.4590  -12.2479 C   0  0  0  0  0  0  0  0  0  0  0  0
   -2.6360    9.3621  -13.1537 C   0  0  0  0  0  0  0  0  0  0  0  0
   -3.8591    9.8575  -12.7371 C   0  0  0  0  0  0  0  0  0  0  0  0
   -4.3083    9.2496  -11.2113 S   0  0  0  0  0  3  0  0  0  0  0  0
   -3.9004   10.5524  -10.1660 O   0  0  0  0  0  0  0  0  0  0  0  0
   -2.0381    9.6663  -14.3233 O   0  0  0  0  0  0  0  0  0  0  0  0
    5.6623   -9.0444   10.3543 H   0  0  0  0  0  0  0  0  0  0  0  0
    3.6555  -10.7488    6.6817 H   0  0  0  0  0  0  0  0  0  0  0  0
    5.7713  -12.6206    9.0311 H   0  0  0  0  0  0  0  0  0  0  0  0
    1.4777   -8.2881    8.3043 H   0  0  0  0  0  0  0  0  0  0  0  0
    1.9312   -6.8909   13.4660 H   0  0  0  0  0  0  0  0  0  0  0  0
    5.6278   -7.5118   12.5760 H   0  0  0  0  0  0  0  0  0  0  0  0
    0.3192   -5.3932   12.3365 H   0  0  0  0  0  0  0  0  0  0  0  0
    3.4770   -6.7114    7.6306 H   0  0  0  0  0  0  0  0  0  0  0  0
    2.9394   -7.8762    5.5433 H   0  0  0  0  0  0  0  0  0  0  0  0
    4.9269   -9.1211    4.8024 H   0  0  0  0  0  0  0  0  0  0  0  0
    8.6296   -8.4007    1.6650 H   0  0  0  0  0  0  0  0  0  0  0  0
    8.1968   -6.7346    2.0917 H   0  0  0  0  0  0  0  0  0  0  0  0
    5.8491   -7.1517    1.3083 H   0  0  0  0  0  0  0  0  0  0  0  0
    6.9986   -7.4846    0.0111 H   0  0  0  0  0  0  0  0  0  0  0  0
    6.2757   -8.8210    0.9175 H   0  0  0  0  0  0  0  0  0  0  0  0
    4.7686   -4.2408    4.2039 H   0  0  0  0  0  0  0  0  0  0  0  0
   -0.3131   -1.2111    6.0955 H   0  0  0  0  0  0  0  0  0  0  0  0
   -2.3495    0.0048    6.6148 H   0  0  0  0  0  0  0  0  0  0  0  0
   -4.1939    1.0875    6.7132 H   0  0  0  0  0  0  0  0  0  0  0  0
   -5.6158    1.2779    7.7400 H   0  0  0  0  0  0  0  0  0  0  0  0
   -2.7909    0.7909    8.8296 H   0  0  0  0  0  0  0  0  0  0  0  0
   -4.2508    1.0360    9.7873 H   0  0  0  0  0  0  0  0  0  0  0  0
   -3.6132    2.3559    8.7992 H   0  0  0  0  0  0  0  0  0  0  0  0
   -2.1344   -4.8578    7.4073 H   0  0  0  0  0  0  0  0  0  0  0  0
   -0.7909   -2.3175    4.0413 H   0  0  0  0  0  0  0  0  0  0  0  0
   -1.1628   -1.0321    2.3025 H   0  0  0  0  0  0  0  0  0  0  0  0
   -0.9589    1.4016    2.4213 H   0  0  0  0  0  0  0  0  0  0  0  0
   -2.6611    1.9201    4.1193 H   0  0  0  0  0  0  0  0  0  0  0  0
   -6.4814   -0.0583    3.2931 H   0  0  0  0  0  0  0  0  0  0  0  0
   -7.5387    1.3619    3.0870 H   0  0  0  0  0  0  0  0  0  0  0  0
   -6.9240   -0.0614    5.7336 H   0  0  0  0  0  0  0  0  0  0  0  0
   -7.9148    1.3948    5.5757 H   0  0  0  0  0  0  0  0  0  0  0  0
   -8.4545   -0.1252    4.8545 H   0  0  0  0  0  0  0  0  0  0  0  0
   -4.0680    0.7224   -0.4424 H   0  0  0  0  0  0  0  0  0  0  0  0
    2.5305    1.1875   -3.1333 H   0  0  0  0  0  0  0  0  0  0  0  0
    4.2604    0.4652   -4.7232 H   0  0  0  0  0  0  0  0  0  0  0  0
    6.6857   -3.6757   -5.7615 H   0  0  0  0  0  0  0  0  0  0  0  0
    5.1957   -4.3109   -5.0388 H   0  0  0  0  0  0  0  0  0  0  0  0
    7.1168   -2.3307   -3.6925 H   0  0  0  0  0  0  0  0  0  0  0  0
    5.6545   -2.9918   -2.9531 H   0  0  0  0  0  0  0  0  0  0  0  0
    7.0144   -4.0564   -3.3167 H   0  0  0  0  0  0  0  0  0  0  0  0
    1.3894   -2.9042   -2.5740 H   0  0  0  0  0  0  0  0  0  0  0  0
    0.4512    1.1233   -4.2784 H   0  0  0  0  0  0  0  0  0  0  0  0
   -3.3022    4.0935   -4.1599 H   0  0  0  0  0  0  0  0  0  0  0  0
   -3.3849    6.5576   -4.0607 H   0  0  0  0  0  0  0  0  0  0  0  0
   -5.3947    7.2783   -2.8378 H   0  0  0  0  0  0  0  0  0  0  0  0
   -9.7131    6.4763   -4.9400 H   0  0  0  0  0  0  0  0  0  0  0  0
  -10.2544    6.7055   -3.2670 H   0  0  0  0  0  0  0  0  0  0  0  0
   -8.2136    4.6074   -4.1869 H   0  0  0  0  0  0  0  0  0  0  0  0
   -8.7343    4.8624   -2.5185 H   0  0  0  0  0  0  0  0  0  0  0  0
   -9.8861    4.2784   -3.7275 H   0  0  0  0  0  0  0  0  0  0  0  0
   -5.8066    5.8026   -7.5130 H   0  0  0  0  0  0  0  0  0  0  0  0
   -0.4999    3.8076  -10.4452 H   0  0  0  0  0  0  0  0  0  0  0  0
    1.6076    2.9328  -11.3915 H   0  0  0  0  0  0  0  0  0  0  0  0
    3.1728    0.6950  -10.0457 H   0  0  0  0  0  0  0  0  0  0  0  0
    4.9443    0.5564  -10.1194 H   0  0  0  0  0  0  0  0  0  0  0  0
    3.3113    1.5576   -7.7250 H   0  0  0  0  0  0  0  0  0  0  0  0
    4.2256    0.0496   -7.8135 H   0  0  0  0  0  0  0  0  0  0  0  0
    5.0763    1.5989   -7.8197 H   0  0  0  0  0  0  0  0  0  0  0  0
    1.6420    5.1135   -6.9740 H   0  0  0  0  0  0  0  0  0  0  0  0
   -0.7655    6.4322  -10.4294 H   0  0  0  0  0  0  0  0  0  0  0  0
   -1.1063    7.9877  -12.4183 H   0  0  0  0  0  0  0  0  0  0  0  0
   -4.5283   10.4814  -13.2935 H   0  0  0  0  0  0  0  0  0  0  0  0
   -4.2448   10.4082   -9.2793 H   0  0  0  0  0  0  0  0  0  0  0  0
   -2.5680   10.3071  -14.8115 H   0  0  0  0  0  0  0  0  0  0  0  0
  1  2  2  0  0  0  0
  2  3  1  0  0  0  0
  3  4  2  0  0  0  0
  4  5  1  0  0  0  0
  5  6  1  0  0  0  0
  3  7  1  0  0  0  0
  2  8  1  0  0  0  0
  8  9  2  0  0  0  0
  9 10  1  0  0  0  0
 10 11  2  0  0  0  0
 11 12  1  0  0  0  0
 12 13  1  0  0  0  0
 10 14  1  0  0  0  0
  9 15  1  0  0  0  0
 15 16  2  0  0  0  0
 16 17  1  0  0  0  0
 17 18  2  0  0  0  0
 18 19  1  0  0  0  0
 19 20  2  0  0  0  0
 20 21  1  0  0  0  0
 21 22  2  0  0  0  0
 22 23  1  0  0  0  0
 23 24  1  0  0  0  0
 24 25  1  0  0  0  0
 22 26  1  0  0  0  0
 26 27  1  0  0  0  0
 26 28  2  0  0  0  0
 18 29  1  0  0  0  0
 29 30  2  0  0  0  0
 30 31  1  0  0  0  0
 31 32  1  0  0  0  0
 32 33  2  0  0  0  0
 33 34  1  0  0  0  0
 34 35  2  0  0  0  0
 35 36  1  0  0  0  0
 36 37  1  0  0  0  0
 37 38  1  0  0  0  0
 35 39  1  0  0  0  0
 39 40  2  0  0  0  0
 39 41  1  0  0  0  0
 31 42  2  0  0  0  0
 42 43  1  0  0  0  0
 30 44  1  0  0  0  0
 44 45  2  0  0  0  0
 45 46  1  0  0  0  0
 45 47  1  0  0  0  0
 47 48  2  0  0  0  0
 48 49  1  0  0  0  0
 49 50  2  0  0  0  0
 50 51  1  0  0  0  0
 51 52  2  0  0  0  0
 52 53  1  0  0  0  0
 53 54  2  0  0  0  0
 54 55  1  0  0  0  0
 55 56  1  0  0  0  0
 56 57  1  0  0  0  0
 54 58  1  0  0  0  0
 58 59  1  0  0  0  0
 58 60  2  0  0  0  0
 50 61  1  0  0  0  0
 61 62  2  0  0  0  0
 62 63  1  0  0  0  0
 63 64  1  0  0  0  0
 64 65  2  0  0  0  0
 65 66  1  0  0  0  0
 66 67  2  0  0  0  0
 67 68  1  0  0  0  0
 68 69  1  0  0  0  0
 69 70  1  0  0  0  0
 67 71  1  0  0  0  0
 71 72  2  0  0  0  0
 71 73  1  0  0  0  0
 63 74  2  0  0  0  0
 74 75  1  0  0  0  0
 62 76  1  0  0  0  0
 76 77  2  0  0  0  0
 77 78  1  0  0  0  0
 77 79  1  0  0  0  0
 79 80  2  0  0  0  0
 80 81  1  0  0  0  0
 81 82  2  0  0  0  0
 82 83  1  0  0  0  0
 83 84  2  0  0  0  0
 84 85  1  0  0  0  0
 85 86  2  0  0  0  0
 86 87  1  0  0  0  0
 87 88  1  0  0  0  0
 88 89  1  0  0  0  0
 86 90  1  0  0  0  0
 90 91  1  0  0  0  0
 90 92  2  0  0  0  0
 82 93  1  0  0  0  0
 93 94  2  0  0  0  0
 94 95  1  0  0  0  0
 95 96  1  0  0  0  0
 96 97  2  0  0  0  0
 97 98  1  0  0  0  0
 98 99  2  0  0  0  0
 99100  1  0  0  0  0
100101  1  0  0  0  0
101102  1  0  0  0  0
 99103  1  0  0  0  0
103104  2  0  0  0  0
103105  1  0  0  0  0
 95106  2  0  0  0  0
106107  1  0  0  0  0
 94108  1  0  0  0  0
108109  2  0  0  0  0
109110  1  0  0  0  0
109111  1  0  0  0  0
111112  2  0  0  0  0
112113  1  0  0  0  0
113114  2  0  0  0  0
114115  1  0  0  0  0
115116  1  0  0  0  0
113117  1  0  0  0  0
  5  1  1  0  0  0  0
 12  8  1  0  0  0  0
 43 15  1  0  0  0  0
 75 47  1  0  0  0  0
107 79  1  0  0  0  0
115111  1  0  0  0  0
 42 17  1  0  0  0  0
 74 49  1  0  0  0  0
106 81  1  0  0  0  0
 28 19  1  0  0  0  0
 46 29  1  0  0  0  0
 60 51  1  0  0  0  0
 78 61  1  0  0  0  0
 92 83  1  0  0  0  0
110 93  1  0  0  0  0
 40 32  1  0  0  0  0
 72 64  1  0  0  0  0
104 96  1  0  0  0  0
  1118  1  0  0  0  0
  4119  1  0  0  0  0
  6120  1  0  0  0  0
  7121  1  0  0  0  0
 11122  1  0  0  0  0
 13123  1  0  0  0  0
 14124  1  0  0  0  0
 16125  1  0  0  0  0
 20126  1  0  0  0  0
 21127  1  0  0  0  0
 24128  1  0  0  0  0
 24129  1  0  0  0  0
 25130  1  0  0  0  0
 25131  1  0  0  0  0
 25132  1  0  0  0  0
 28133  1  0  0  0  0
 33134  1  0  0  0  0
 34135  1  0  0  0  0
 37136  1  0  0  0  0
 37137  1  0  0  0  0
 38138  1  0  0  0  0
 38139  1  0  0  0  0
 38140  1  0  0  0  0
 40141  1  0  0  0  0
 44142  1  0  0  0  0
 48143  1  0  0  0  0
 52144  1  0  0  0  0
 53145  1  0  0  0  0
 56146  1  0  0  0  0
 56147  1  0  0  0  0
 57148  1  0  0  0  0
 57149  1  0  0  0  0
 57150  1  0  0  0  0
 60151  1  0  0  0  0
 65152  1  0  0  0  0
 66153  1  0  0  0  0
 69154  1  0  0  0  0
 69155  1  0  0  0  0
 70156  1  0  0  0  0
 70157  1  0  0  0  0
 70158  1  0  0  0  0
 72159  1  0  0  0  0
 76160  1  0  0  0  0
 80161  1  0  0  0  0
 84162  1  0  0  0  0
 85163  1  0  0  0  0
 88164  1  0  0  0  0
 88165  1  0  0  0  0
 89166  1  0  0  0  0
 89167  1  0  0  0  0
 89168  1  0  0  0  0
 92169  1  0  0  0  0
 97170  1  0  0  0  0
 98171  1  0  0  0  0
101172  1  0  0  0  0
101173  1  0  0  0  0
102174  1  0  0  0  0
102175  1  0  0  0  0
102176  1  0  0  0  0
104177  1  0  0  0  0
108178  1  0  0  0  0
112179  1  0  0  0  0
114180  1  0  0  0  0
116181  1  0  0  0  0
117182  1  0  0  0  0
M  END
