
  xtb     03022218043D
 energy: -444.905192706929 gnorm: 0.000244717009 xtb: 6.4.1 (unknown)
222247  0     0  0            999 V2000
   -1.7253   -8.8609   12.8863 C   0  0  0  0  0  0  0  0  0  0  0  0
   -0.7906   -8.1057   12.2742 C   0  0  0  0  0  0  0  0  0  0  0  0
   -1.0936   -7.8553   10.9044 C   0  0  0  0  0  0  0  0  0  0  0  0
   -0.3344   -7.1500    9.9592 C   0  0  0  0  0  0  0  0  0  0  0  0
    0.9713   -6.5906   10.2713 C   0  0  0  0  0  0  0  0  0  0  0  0
    1.3339   -4.9247    9.9314 S   0  0  0  0  0  0  0  0  0  0  0  0
    2.9668   -5.0860   10.4815 C   0  0  0  0  0  0  0  0  0  0  0  0
    3.9135   -3.9399   10.3995 C   0  0  0  0  0  0  0  0  0  0  0  0
    4.2781   -3.6357    8.9448 C   0  0  0  0  0  0  0  0  0  0  0  0
    3.2013   -6.3616   10.8997 C   0  0  0  0  0  0  0  0  0  0  0  0
    4.7091   -6.9132   11.5077 Cl  0  0  0  0  0  0  0  0  0  0  0  0
    2.0713   -7.2168   10.7863 C   0  0  0  0  0  0  0  0  0  0  0  0
    2.1344   -8.8868   11.1789 Cl  0  0  0  0  0  0  0  0  0  0  0  0
   -0.8771   -7.0170    8.6879 C   0  0  0  0  0  0  0  0  0  0  0  0
   -2.1247   -7.5721    8.3174 C   0  0  0  0  0  0  0  0  0  0  0  0
   -2.8753   -8.2993    9.2568 C   0  0  0  0  0  0  0  0  0  0  0  0
   -4.1490   -8.8946    8.8872 C   0  0  0  0  0  0  0  0  0  0  0  0
   -4.2746   -9.9376    7.4999 S   0  0  0  0  0  0  0  0  0  0  0  0
   -5.9730  -10.1757    7.7309 C   0  0  0  0  0  0  0  0  0  0  0  0
   -6.7699  -10.9805    6.7649 C   0  0  0  0  0  0  0  0  0  0  0  0
   -6.9868  -10.2074    5.4617 C   0  0  0  0  0  0  0  0  0  0  0  0
   -6.4020   -9.4812    8.8218 C   0  0  0  0  0  0  0  0  0  0  0  0
   -5.3716   -8.7584    9.4831 C   0  0  0  0  0  0  0  0  0  0  0  0
   -5.6836   -7.7473   10.8307 Cl  0  0  0  0  0  0  0  0  0  0  0  0
   -8.0288   -9.4615    9.3683 Cl  0  0  0  0  0  0  0  0  0  0  0  0
   -2.3362   -8.4256   10.5319 C   0  0  0  0  0  0  0  0  0  0  0  0
   -3.0424   -9.3036   11.8581 S   0  0  0  0  0  0  0  0  0  0  0  0
   -2.4549   -7.2726    6.9716 C   0  0  0  0  0  0  0  0  0  0  0  0
   -1.4948   -6.5545    6.3252 C   0  0  0  0  0  0  0  0  0  0  0  0
   -0.1230   -6.1941    7.3533 S   0  0  0  0  0  0  0  0  0  0  0  0
   -1.5152   -6.0669    4.9869 C   0  0  0  0  0  0  0  0  0  0  0  0
   -0.5203   -5.3963    4.3411 C   0  0  0  0  0  0  0  0  0  0  0  0
   -0.8708   -4.9881    3.0325 C   0  0  0  0  0  0  0  0  0  0  0  0
   -0.1132   -4.2102    2.1400 C   0  0  0  0  0  0  0  0  0  0  0  0
    1.1543   -3.6255    2.5412 C   0  0  0  0  0  0  0  0  0  0  0  0
    2.5678   -3.7163    1.5314 S   0  0  0  0  0  0  0  0  0  0  0  0
    3.5176   -2.7888    2.6392 C   0  0  0  0  0  0  0  0  0  0  0  0
    4.9542   -2.4923    2.3844 C   0  0  0  0  0  0  0  0  0  0  0  0
    5.8605   -3.4857    3.1152 C   0  0  0  0  0  0  0  0  0  0  0  0
    2.7741   -2.4447    3.7288 C   0  0  0  0  0  0  0  0  0  0  0  0
    3.3733   -1.5029    5.0306 Cl  0  0  0  0  0  0  0  0  0  0  0  0
    1.4335   -2.9094    3.6754 C   0  0  0  0  0  0  0  0  0  0  0  0
    0.2771   -2.4794    4.8694 Cl  0  0  0  0  0  0  0  0  0  0  0  0
   -0.6676   -3.9835    0.8870 C   0  0  0  0  0  0  0  0  0  0  0  0
   -1.9534   -4.4448    0.5126 C   0  0  0  0  0  0  0  0  0  0  0  0
   -2.7309   -5.1826    1.4250 C   0  0  0  0  0  0  0  0  0  0  0  0
   -4.0788   -5.6137    1.0937 C   0  0  0  0  0  0  0  0  0  0  0  0
   -5.2608   -4.4767    0.5075 S   0  0  0  0  0  0  0  0  0  0  0  0
   -6.4989   -5.6813    0.4224 C   0  0  0  0  0  0  0  0  0  0  0  0
   -7.8890   -5.3391    0.0127 C   0  0  0  0  0  0  0  0  0  0  0  0
   -8.7629   -5.0486    1.2353 C   0  0  0  0  0  0  0  0  0  0  0  0
   -6.0122   -6.8870    0.8306 C   0  0  0  0  0  0  0  0  0  0  0  0
   -4.6425   -6.8547    1.2076 C   0  0  0  0  0  0  0  0  0  0  0  0
   -3.7909   -8.2697    1.6642 Cl  0  0  0  0  0  0  0  0  0  0  0  0
   -6.9473   -8.3243    0.8818 Cl  0  0  0  0  0  0  0  0  0  0  0  0
   -2.1646   -5.4393    2.6671 C   0  0  0  0  0  0  0  0  0  0  0  0
   -2.9357   -6.2737    3.9857 S   0  0  0  0  0  0  0  0  0  0  0  0
   -2.2928   -4.0550   -0.8053 C   0  0  0  0  0  0  0  0  0  0  0  0
   -1.3295   -3.3062   -1.4186 C   0  0  0  0  0  0  0  0  0  0  0  0
    0.0652   -3.0646   -0.3913 S   0  0  0  0  0  0  0  0  0  0  0  0
   -1.3854   -2.6992   -2.7085 C   0  0  0  0  0  0  0  0  0  0  0  0
   -2.4258   -2.7196   -3.5929 C   0  0  0  0  0  0  0  0  0  0  0  0
   -2.2036   -1.9321   -4.7464 C   0  0  0  0  0  0  0  0  0  0  0  0
   -3.0931   -1.6793   -5.8089 C   0  0  0  0  0  0  0  0  0  0  0  0
   -4.4135   -2.2846   -5.8468 C   0  0  0  0  0  0  0  0  0  0  0  0
   -5.4936   -2.1919   -4.4857 S   0  0  0  0  0  0  0  0  0  0  0  0
   -6.7304   -3.0833   -5.3018 C   0  0  0  0  0  0  0  0  0  0  0  0
   -7.9964   -3.4531   -4.6110 C   0  0  0  0  0  0  0  0  0  0  0  0
   -7.8285   -4.7675   -3.8440 C   0  0  0  0  0  0  0  0  0  0  0  0
   -6.3175   -3.4260   -6.5543 C   0  0  0  0  0  0  0  0  0  0  0  0
   -7.2699   -4.3270   -7.6610 Cl  0  0  0  0  0  0  0  0  0  0  0  0
   -5.0099   -2.9686   -6.8702 C   0  0  0  0  0  0  0  0  0  0  0  0
   -4.2469   -3.3359   -8.3596 Cl  0  0  0  0  0  0  0  0  0  0  0  0
   -2.6704   -0.7861   -6.7821 C   0  0  0  0  0  0  0  0  0  0  0  0
   -1.3964   -0.1606   -6.7584 C   0  0  0  0  0  0  0  0  0  0  0  0
   -0.4808   -0.4627   -5.7317 C   0  0  0  0  0  0  0  0  0  0  0  0
    0.8286    0.1619   -5.6515 C   0  0  0  0  0  0  0  0  0  0  0  0
    1.0159    1.8889   -5.7773 S   0  0  0  0  0  0  0  0  0  0  0  0
    2.7139    1.8179   -5.4766 C   0  0  0  0  0  0  0  0  0  0  0  0
    3.5259    3.0594   -5.3605 C   0  0  0  0  0  0  0  0  0  0  0  0
    3.7379    3.4189   -3.8891 C   0  0  0  0  0  0  0  0  0  0  0  0
    3.1065    0.5249   -5.3025 C   0  0  0  0  0  0  0  0  0  0  0  0
    2.0459   -0.4150   -5.4040 C   0  0  0  0  0  0  0  0  0  0  0  0
    2.3233   -2.1037   -5.3168 Cl  0  0  0  0  0  0  0  0  0  0  0  0
    4.7288    0.0577   -5.0021 Cl  0  0  0  0  0  0  0  0  0  0  0  0
   -0.9209   -1.3311   -4.7396 C   0  0  0  0  0  0  0  0  0  0  0  0
   -0.0460   -1.7401   -3.2951 S   0  0  0  0  0  0  0  0  0  0  0  0
   -1.2567    0.7814   -7.7993 C   0  0  0  0  0  0  0  0  0  0  0  0
   -2.3852    0.9419   -8.5601 C   0  0  0  0  0  0  0  0  0  0  0  0
   -3.6486   -0.1856   -8.0905 S   0  0  0  0  0  0  0  0  0  0  0  0
   -2.6383    1.9798   -9.4956 C   0  0  0  0  0  0  0  0  0  0  0  0
   -2.1688    3.3006   -9.4222 C   0  0  0  0  0  0  0  0  0  0  0  0
   -2.4762    4.0274  -10.6176 C   0  0  0  0  0  0  0  0  0  0  0  0
   -3.1813    3.2944  -11.5341 C   0  0  0  0  0  0  0  0  0  0  0  0
   -3.4952    1.6829  -10.9969 S   0  0  0  0  0  3  0  0  0  0  0  0
   -5.1442    1.6941  -10.6248 O   0  0  0  0  0  0  0  0  0  0  0  0
   -2.1793    5.3219  -10.8197 O   0  0  0  0  0  0  0  0  0  0  0  0
   -1.6164    3.8775   -8.2351 C   0  0  0  0  0  0  0  0  0  0  0  0
   -0.6919    4.8765   -8.0805 C   0  0  0  0  0  0  0  0  0  0  0  0
   -0.3489    5.1316   -6.7285 C   0  0  0  0  0  0  0  0  0  0  0  0
    0.6693    5.9700   -6.2413 C   0  0  0  0  0  0  0  0  0  0  0  0
    1.5304    6.7266   -7.1369 C   0  0  0  0  0  0  0  0  0  0  0  0
    1.7219    8.4462   -6.9734 S   0  0  0  0  0  0  0  0  0  0  0  0
    2.8472    8.5235   -8.2863 C   0  0  0  0  0  0  0  0  0  0  0  0
    3.4098    9.8249   -8.7396 C   0  0  0  0  0  0  0  0  0  0  0  0
    2.4163   10.5712   -9.6329 C   0  0  0  0  0  0  0  0  0  0  0  0
    3.0492    7.2824   -8.8123 C   0  0  0  0  0  0  0  0  0  0  0  0
    4.1032    6.9559  -10.1279 Cl  0  0  0  0  0  0  0  0  0  0  0  0
    2.3096    6.2603   -8.1588 C   0  0  0  0  0  0  0  0  0  0  0  0
    2.4571    4.5990   -8.5797 Cl  0  0  0  0  0  0  0  0  0  0  0  0
    0.8782    5.9777   -4.8682 C   0  0  0  0  0  0  0  0  0  0  0  0
    0.1600    5.1429   -3.9807 C   0  0  0  0  0  0  0  0  0  0  0  0
   -0.8313    4.2651   -4.4633 C   0  0  0  0  0  0  0  0  0  0  0  0
   -1.3919    3.2261   -3.6180 C   0  0  0  0  0  0  0  0  0  0  0  0
   -0.3425    2.3188   -2.5505 S   0  0  0  0  0  0  0  0  0  0  0  0
   -1.6108    1.2614   -2.0438 C   0  0  0  0  0  0  0  0  0  0  0  0
   -1.4171    0.2783   -0.9446 C   0  0  0  0  0  0  0  0  0  0  0  0
   -1.7316    0.9215    0.4082 C   0  0  0  0  0  0  0  0  0  0  0  0
   -2.7673    1.5799   -2.6894 C   0  0  0  0  0  0  0  0  0  0  0  0
   -2.6518    2.6914   -3.5683 C   0  0  0  0  0  0  0  0  0  0  0  0
   -4.0315    3.3497   -4.3382 Cl  0  0  0  0  0  0  0  0  0  0  0  0
   -4.2370    0.7152   -2.4845 Cl  0  0  0  0  0  0  0  0  0  0  0  0
   -1.0914    4.3256   -5.8278 C   0  0  0  0  0  0  0  0  0  0  0  0
   -2.1900    3.2948   -6.6792 S   0  0  0  0  0  0  0  0  0  0  0  0
    0.6583    5.2381   -2.6626 C   0  0  0  0  0  0  0  0  0  0  0  0
    1.7490    6.0483   -2.5381 C   0  0  0  0  0  0  0  0  0  0  0  0
    2.1545    6.8380   -4.0446 S   0  0  0  0  0  0  0  0  0  0  0  0
    2.6002    6.0169   -1.3843 C   0  0  0  0  0  0  0  0  0  0  0  0
    2.7751    4.8625   -0.6820 C   0  0  0  0  0  0  0  0  0  0  0  0
    3.7031    4.9740    0.3767 C   0  0  0  0  0  0  0  0  0  0  0  0
    4.1043    3.9525    1.2511 C   0  0  0  0  0  0  0  0  0  0  0  0
    3.6090    2.6050    1.0025 C   0  0  0  0  0  0  0  0  0  0  0  0
    3.9253    1.8533   -0.5362 S   0  0  0  0  0  0  0  0  0  0  0  0
    2.8821    0.5166   -0.1896 C   0  0  0  0  0  0  0  0  0  0  0  0
    2.6503   -0.5466   -1.2041 C   0  0  0  0  0  0  0  0  0  0  0  0
    3.9443   -1.2340   -1.6316 C   0  0  0  0  0  0  0  0  0  0  0  0
    2.3532    0.6487    1.0587 C   0  0  0  0  0  0  0  0  0  0  0  0
    1.2202   -0.4409    1.7431 Cl  0  0  0  0  0  0  0  0  0  0  0  0
    2.7732    1.8236    1.7441 C   0  0  0  0  0  0  0  0  0  0  0  0
    2.2209    2.2292    3.3150 Cl  0  0  0  0  0  0  0  0  0  0  0  0
    4.9728    4.3094    2.2684 C   0  0  0  0  0  0  0  0  0  0  0  0
    5.4657    5.6306    2.4193 C   0  0  0  0  0  0  0  0  0  0  0  0
    5.0783    6.6438    1.5253 C   0  0  0  0  0  0  0  0  0  0  0  0
    5.5530    8.0098    1.6751 C   0  0  0  0  0  0  0  0  0  0  0  0
    6.3026    8.8573    0.3560 S   0  0  0  0  0  0  0  0  0  0  0  0
    6.5219   10.2905    1.3001 C   0  0  0  0  0  0  0  0  0  0  0  0
    7.1148   11.5203    0.7067 C   0  0  0  0  0  0  0  0  0  0  0  0
    6.0504   12.3325   -0.0350 C   0  0  0  0  0  0  0  0  0  0  0  0
    6.0247   10.1120    2.5565 C   0  0  0  0  0  0  0  0  0  0  0  0
    5.4789    8.8185    2.7750 C   0  0  0  0  0  0  0  0  0  0  0  0
    4.7319    8.3683    4.2537 Cl  0  0  0  0  0  0  0  0  0  0  0  0
    6.0494   11.3185    3.7769 Cl  0  0  0  0  0  0  0  0  0  0  0  0
    4.2112    6.2855    0.4997 C   0  0  0  0  0  0  0  0  0  0  0  0
    3.5722    7.3257   -0.7515 S   0  0  0  0  0  0  0  0  0  0  0  0
    6.3915    5.7137    3.5008 C   0  0  0  0  0  0  0  0  0  0  0  0
    6.5677    4.5363    4.1344 C   0  0  0  0  0  0  0  0  0  0  0  0
    5.6375    3.2393    3.4670 S   0  0  0  0  0  0  0  0  0  0  0  0
   -1.7382   -9.1942   13.9056 H   0  0  0  0  0  0  0  0  0  0  0  0
    0.0850   -7.7248   12.7660 H   0  0  0  0  0  0  0  0  0  0  0  0
    3.4551   -3.0556   10.8476 H   0  0  0  0  0  0  0  0  0  0  0  0
    4.8131   -4.1896   10.9642 H   0  0  0  0  0  0  0  0  0  0  0  0
    4.7443   -4.5026    8.4830 H   0  0  0  0  0  0  0  0  0  0  0  0
    3.3862   -3.3786    8.3783 H   0  0  0  0  0  0  0  0  0  0  0  0
    4.9727   -2.8012    8.9000 H   0  0  0  0  0  0  0  0  0  0  0  0
   -6.2468  -11.9141    6.5478 H   0  0  0  0  0  0  0  0  0  0  0  0
   -7.7331  -11.2173    7.2195 H   0  0  0  0  0  0  0  0  0  0  0  0
   -7.5142   -9.2770    5.6580 H   0  0  0  0  0  0  0  0  0  0  0  0
   -7.5756  -10.8015    4.7680 H   0  0  0  0  0  0  0  0  0  0  0  0
   -6.0315   -9.9739    4.9973 H   0  0  0  0  0  0  0  0  0  0  0  0
   -3.3716   -7.5691    6.4951 H   0  0  0  0  0  0  0  0  0  0  0  0
    0.4380   -5.2140    4.7916 H   0  0  0  0  0  0  0  0  0  0  0  0
    5.1484   -2.5429    1.3122 H   0  0  0  0  0  0  0  0  0  0  0  0
    5.1706   -1.4790    2.7312 H   0  0  0  0  0  0  0  0  0  0  0  0
    5.6866   -3.4364    4.1868 H   0  0  0  0  0  0  0  0  0  0  0  0
    5.6607   -4.4994    2.7761 H   0  0  0  0  0  0  0  0  0  0  0  0
    6.9034   -3.2513    2.9198 H   0  0  0  0  0  0  0  0  0  0  0  0
   -8.3093   -6.1799   -0.5430 H   0  0  0  0  0  0  0  0  0  0  0  0
   -7.8686   -4.4622   -0.6358 H   0  0  0  0  0  0  0  0  0  0  0  0
   -8.7986   -5.9169    1.8879 H   0  0  0  0  0  0  0  0  0  0  0  0
   -9.7745   -4.8065    0.9212 H   0  0  0  0  0  0  0  0  0  0  0  0
   -8.3605   -4.2083    1.7958 H   0  0  0  0  0  0  0  0  0  0  0  0
   -3.2191   -4.3186   -1.2797 H   0  0  0  0  0  0  0  0  0  0  0  0
   -3.3309   -3.2680   -3.4144 H   0  0  0  0  0  0  0  0  0  0  0  0
   -8.7859   -3.5637   -5.3562 H   0  0  0  0  0  0  0  0  0  0  0  0
   -8.2766   -2.6588   -3.9170 H   0  0  0  0  0  0  0  0  0  0  0  0
   -7.0347   -4.6756   -3.1060 H   0  0  0  0  0  0  0  0  0  0  0  0
   -8.7535   -5.0245   -3.3351 H   0  0  0  0  0  0  0  0  0  0  0  0
   -7.5731   -5.5720   -4.5288 H   0  0  0  0  0  0  0  0  0  0  0  0
    3.0072    3.8753   -5.8659 H   0  0  0  0  0  0  0  0  0  0  0  0
    4.4932    2.9055   -5.8435 H   0  0  0  0  0  0  0  0  0  0  0  0
    4.3037    2.6410   -3.3842 H   0  0  0  0  0  0  0  0  0  0  0  0
    2.7779    3.5244   -3.3901 H   0  0  0  0  0  0  0  0  0  0  0  0
    4.2818    4.3556   -3.8059 H   0  0  0  0  0  0  0  0  0  0  0  0
   -0.3604    1.3453   -7.9802 H   0  0  0  0  0  0  0  0  0  0  0  0
   -3.4665    3.6114  -12.5148 H   0  0  0  0  0  0  0  0  0  0  0  0
   -5.4186    2.4228  -10.0575 H   0  0  0  0  0  0  0  0  0  0  0  0
   -1.7768    5.6921  -10.0215 H   0  0  0  0  0  0  0  0  0  0  0  0
   -0.1813    5.3584   -8.8958 H   0  0  0  0  0  0  0  0  0  0  0  0
    4.3302    9.6336   -9.2938 H   0  0  0  0  0  0  0  0  0  0  0  0
    3.6463   10.4395   -7.8692 H   0  0  0  0  0  0  0  0  0  0  0  0
    2.1783    9.9766  -10.5113 H   0  0  0  0  0  0  0  0  0  0  0  0
    1.4968   10.7715   -9.0881 H   0  0  0  0  0  0  0  0  0  0  0  0
    2.8431   11.5162   -9.9575 H   0  0  0  0  0  0  0  0  0  0  0  0
   -0.3874   -0.0807   -0.9428 H   0  0  0  0  0  0  0  0  0  0  0  0
   -2.0901   -0.5660   -1.1052 H   0  0  0  0  0  0  0  0  0  0  0  0
   -1.6080    0.1894    1.2010 H   0  0  0  0  0  0  0  0  0  0  0  0
   -2.7558    1.2853    0.4258 H   0  0  0  0  0  0  0  0  0  0  0  0
   -1.0596    1.7554    0.5970 H   0  0  0  0  0  0  0  0  0  0  0  0
    0.2291    4.7237   -1.8244 H   0  0  0  0  0  0  0  0  0  0  0  0
    2.2664    3.9506   -0.9303 H   0  0  0  0  0  0  0  0  0  0  0  0
    1.9666   -1.2846   -0.7856 H   0  0  0  0  0  0  0  0  0  0  0  0
    2.1786   -0.1006   -2.0848 H   0  0  0  0  0  0  0  0  0  0  0  0
    4.4104   -1.7267   -0.7824 H   0  0  0  0  0  0  0  0  0  0  0  0
    4.6425   -0.5090   -2.0426 H   0  0  0  0  0  0  0  0  0  0  0  0
    3.7279   -1.9806   -2.3898 H   0  0  0  0  0  0  0  0  0  0  0  0
    7.5452   12.1242    1.5075 H   0  0  0  0  0  0  0  0  0  0  0  0
    7.9085   11.2416    0.0115 H   0  0  0  0  0  0  0  0  0  0  0  0
    6.4944   13.2274   -0.4625 H   0  0  0  0  0  0  0  0  0  0  0  0
    5.6146   11.7399   -0.8358 H   0  0  0  0  0  0  0  0  0  0  0  0
    5.2588   12.6286    0.6486 H   0  0  0  0  0  0  0  0  0  0  0  0
    6.9055    6.6166    3.7735 H   0  0  0  0  0  0  0  0  0  0  0  0
    7.2025    4.3310    4.9741 H   0  0  0  0  0  0  0  0  0  0  0  0
  1  2  2  0  0  0  0
  2  3  1  0  0  0  0
  3  4  2  0  0  0  0
  4  5  1  0  0  0  0
  5  6  1  0  0  0  0
  6  7  1  0  0  0  0
  7  8  1  0  0  0  0
  8  9  1  0  0  0  0
  7 10  2  0  0  0  0
 10 11  1  0  0  0  0
 10 12  1  0  0  0  0
 12 13  1  0  0  0  0
  4 14  1  0  0  0  0
 14 15  2  0  0  0  0
 15 16  1  0  0  0  0
 16 17  1  0  0  0  0
 17 18  1  0  0  0  0
 18 19  1  0  0  0  0
 19 20  1  0  0  0  0
 20 21  1  0  0  0  0
 19 22  2  0  0  0  0
 22 23  1  0  0  0  0
 23 24  1  0  0  0  0
 22 25  1  0  0  0  0
 16 26  2  0  0  0  0
 26 27  1  0  0  0  0
 15 28  1  0  0  0  0
 28 29  2  0  0  0  0
 29 30  1  0  0  0  0
 29 31  1  0  0  0  0
 31 32  2  0  0  0  0
 32 33  1  0  0  0  0
 33 34  2  0  0  0  0
 34 35  1  0  0  0  0
 35 36  1  0  0  0  0
 36 37  1  0  0  0  0
 37 38  1  0  0  0  0
 38 39  1  0  0  0  0
 37 40  2  0  0  0  0
 40 41  1  0  0  0  0
 40 42  1  0  0  0  0
 42 43  1  0  0  0  0
 34 44  1  0  0  0  0
 44 45  2  0  0  0  0
 45 46  1  0  0  0  0
 46 47  1  0  0  0  0
 47 48  1  0  0  0  0
 48 49  1  0  0  0  0
 49 50  1  0  0  0  0
 50 51  1  0  0  0  0
 49 52  2  0  0  0  0
 52 53  1  0  0  0  0
 53 54  1  0  0  0  0
 52 55  1  0  0  0  0
 46 56  2  0  0  0  0
 56 57  1  0  0  0  0
 45 58  1  0  0  0  0
 58 59  2  0  0  0  0
 59 60  1  0  0  0  0
 59 61  1  0  0  0  0
 61 62  2  0  0  0  0
 62 63  1  0  0  0  0
 63 64  2  0  0  0  0
 64 65  1  0  0  0  0
 65 66  1  0  0  0  0
 66 67  1  0  0  0  0
 67 68  1  0  0  0  0
 68 69  1  0  0  0  0
 67 70  2  0  0  0  0
 70 71  1  0  0  0  0
 70 72  1  0  0  0  0
 72 73  1  0  0  0  0
 64 74  1  0  0  0  0
 74 75  2  0  0  0  0
 75 76  1  0  0  0  0
 76 77  1  0  0  0  0
 77 78  1  0  0  0  0
 78 79  1  0  0  0  0
 79 80  1  0  0  0  0
 80 81  1  0  0  0  0
 79 82  2  0  0  0  0
 82 83  1  0  0  0  0
 83 84  1  0  0  0  0
 82 85  1  0  0  0  0
 76 86  2  0  0  0  0
 86 87  1  0  0  0  0
 75 88  1  0  0  0  0
 88 89  2  0  0  0  0
 89 90  1  0  0  0  0
 89 91  1  0  0  0  0
 91 92  2  0  0  0  0
 92 93  1  0  0  0  0
 93 94  2  0  0  0  0
 94 95  1  0  0  0  0
 95 96  1  0  0  0  0
 93 97  1  0  0  0  0
 92 98  1  0  0  0  0
 98 99  2  0  0  0  0
 99100  1  0  0  0  0
100101  2  0  0  0  0
101102  1  0  0  0  0
102103  1  0  0  0  0
103104  1  0  0  0  0
104105  1  0  0  0  0
105106  1  0  0  0  0
104107  2  0  0  0  0
107108  1  0  0  0  0
107109  1  0  0  0  0
109110  1  0  0  0  0
101111  1  0  0  0  0
111112  2  0  0  0  0
112113  1  0  0  0  0
113114  1  0  0  0  0
114115  1  0  0  0  0
115116  1  0  0  0  0
116117  1  0  0  0  0
117118  1  0  0  0  0
116119  2  0  0  0  0
119120  1  0  0  0  0
120121  1  0  0  0  0
119122  1  0  0  0  0
113123  2  0  0  0  0
123124  1  0  0  0  0
112125  1  0  0  0  0
125126  2  0  0  0  0
126127  1  0  0  0  0
126128  1  0  0  0  0
128129  2  0  0  0  0
129130  1  0  0  0  0
130131  2  0  0  0  0
131132  1  0  0  0  0
132133  1  0  0  0  0
133134  1  0  0  0  0
134135  1  0  0  0  0
135136  1  0  0  0  0
134137  2  0  0  0  0
137138  1  0  0  0  0
137139  1  0  0  0  0
139140  1  0  0  0  0
131141  1  0  0  0  0
141142  2  0  0  0  0
142143  1  0  0  0  0
143144  1  0  0  0  0
144145  1  0  0  0  0
145146  1  0  0  0  0
146147  1  0  0  0  0
147148  1  0  0  0  0
146149  2  0  0  0  0
149150  1  0  0  0  0
150151  1  0  0  0  0
149152  1  0  0  0  0
143153  2  0  0  0  0
153154  1  0  0  0  0
142155  1  0  0  0  0
155156  2  0  0  0  0
156157  1  0  0  0  0
 27  1  1  0  0  0  0
 57 31  1  0  0  0  0
 87 61  1  0  0  0  0
 95 91  1  0  0  0  0
124 98  1  0  0  0  0
154128  1  0  0  0  0
 26  3  1  0  0  0  0
 56 33  1  0  0  0  0
 86 63  1  0  0  0  0
123100  1  0  0  0  0
153130  1  0  0  0  0
 12  5  2  0  0  0  0
 30 14  1  0  0  0  0
 42 35  2  0  0  0  0
 60 44  1  0  0  0  0
 72 65  2  0  0  0  0
 90 74  1  0  0  0  0
109102  2  0  0  0  0
127111  1  0  0  0  0
139132  2  0  0  0  0
157141  1  0  0  0  0
 23 17  2  0  0  0  0
 53 47  2  0  0  0  0
 83 77  2  0  0  0  0
120114  2  0  0  0  0
150144  2  0  0  0  0
  1158  1  0  0  0  0
  2159  1  0  0  0  0
  8160  1  0  0  0  0
  8161  1  0  0  0  0
  9162  1  0  0  0  0
  9163  1  0  0  0  0
  9164  1  0  0  0  0
 20165  1  0  0  0  0
 20166  1  0  0  0  0
 21167  1  0  0  0  0
 21168  1  0  0  0  0
 21169  1  0  0  0  0
 28170  1  0  0  0  0
 32171  1  0  0  0  0
 38172  1  0  0  0  0
 38173  1  0  0  0  0
 39174  1  0  0  0  0
 39175  1  0  0  0  0
 39176  1  0  0  0  0
 50177  1  0  0  0  0
 50178  1  0  0  0  0
 51179  1  0  0  0  0
 51180  1  0  0  0  0
 51181  1  0  0  0  0
 58182  1  0  0  0  0
 62183  1  0  0  0  0
 68184  1  0  0  0  0
 68185  1  0  0  0  0
 69186  1  0  0  0  0
 69187  1  0  0  0  0
 69188  1  0  0  0  0
 80189  1  0  0  0  0
 80190  1  0  0  0  0
 81191  1  0  0  0  0
 81192  1  0  0  0  0
 81193  1  0  0  0  0
 88194  1  0  0  0  0
 94195  1  0  0  0  0
 96196  1  0  0  0  0
 97197  1  0  0  0  0
 99198  1  0  0  0  0
105199  1  0  0  0  0
105200  1  0  0  0  0
106201  1  0  0  0  0
106202  1  0  0  0  0
106203  1  0  0  0  0
117204  1  0  0  0  0
117205  1  0  0  0  0
118206  1  0  0  0  0
118207  1  0  0  0  0
118208  1  0  0  0  0
125209  1  0  0  0  0
129210  1  0  0  0  0
135211  1  0  0  0  0
135212  1  0  0  0  0
136213  1  0  0  0  0
136214  1  0  0  0  0
136215  1  0  0  0  0
147216  1  0  0  0  0
147217  1  0  0  0  0
148218  1  0  0  0  0
148219  1  0  0  0  0
148220  1  0  0  0  0
155221  1  0  0  0  0
156222  1  0  0  0  0
M  END
