182

C          4.94570       -9.33790        9.61690
C          3.70100       -8.74150        9.40020
C          3.09570       -9.28240        8.18450
C          3.88080      -10.19640        7.56960
S          5.37190      -10.46430        8.42630
O          4.99110      -12.06120        9.00890
O          1.86510       -8.98610        7.75380
C          3.09740       -7.83590       10.26770
C          2.08990       -6.85450       10.09450
C          1.55880       -6.46190       11.34730
C          2.20030       -7.01070       12.43610
S          3.49400       -8.02440       11.99610
O          4.81990       -7.01230       12.42900
O          0.51750       -5.61260       11.41880
C          1.80470       -6.17040        8.87520
C          2.53870       -6.19340        7.71600
C          1.99430       -5.41190        6.67540
C          2.51780       -5.22250        5.38330
C          3.70150       -5.96490        4.93780
C          3.77230       -7.34830        5.10580
C          4.87910       -8.05020        4.68140
C          5.96000       -7.40620        4.08420
S          7.35140       -8.39980        3.62080
C          7.81450       -7.74630        1.97430
C          6.66040       -7.80600        0.99410
C          5.88390       -6.02520        3.93890
F          6.91300       -5.32980        3.40510
C          4.77220       -5.31120        4.33780
C          1.84320       -4.33210        4.56380
C          0.66390       -3.66260        4.97150
C          0.13470       -3.85690        6.26200
C         -1.06960       -3.12800        6.67810
C         -1.16230       -1.75090        6.48730
C         -2.31390       -1.05620        6.80120
C         -3.41610       -1.71430        7.33420
S         -4.96410       -0.96320        7.71780
C         -4.62360        0.83070        7.68050
C         -3.76310        1.27900        8.84600
C         -3.29870       -3.08840        7.55130
C         -2.15820       -3.79330        7.23670
F         -4.34730       -3.75830        8.07290
C          0.80940       -4.74390        7.08040
S          0.39310       -5.13580        8.72990
C          0.12620       -2.86610        3.93720
C          0.86190       -2.87730        2.78630
S          2.26290       -3.92130        2.91760
C          0.57950       -2.09490        1.62840
C         -0.44010       -1.19230        1.52520
C         -0.46420       -0.49080        0.29960
C         -1.36310        0.52190       -0.08000
C         -2.38250        0.97090        0.87730
C         -2.00670        1.34860        2.16740
C         -2.95660        1.64660        3.11810
C         -4.31790        1.59010        2.82260
S         -5.44590        1.92930        4.13900
C         -6.87640        0.83550        3.77320
C         -7.58400        0.49100        5.06850
C         -4.67500        1.29530        1.51030
F         -5.97320        1.29580        1.13220
C         -3.73280        0.97830        0.55060
C         -1.20760        1.04100       -1.35240
C         -0.17380        0.62010       -2.22810
C          0.74040       -0.37490       -1.83770
C          1.81660       -0.79700       -2.74250
C          2.64290        0.13930       -3.36380
C          3.62360       -0.26260       -4.24490
C          3.81610       -1.60890       -4.54670
S          5.05050       -2.00900       -5.75150
C          5.89020       -3.47360       -5.04410
C          6.45270       -3.19230       -3.66560
C          2.98580       -2.53240       -3.91980
C          2.01290       -2.14550       -3.02060
F          3.09560       -3.85250       -4.18690
C          0.56130       -0.92170       -0.57720
S          1.55550       -2.14630        0.17510
C         -0.21930        1.31390       -3.45980
C         -1.21000        2.24830       -3.53290
S         -2.17880        2.30240       -2.07180
C         -1.44650        3.12740       -4.62660
C         -2.47420        3.99930       -4.83990
C         -2.35370        4.73160       -6.04690
C         -3.24350        5.67330       -6.60070
C         -4.44080        6.10760       -5.87140
C         -4.34780        6.53670       -4.54780
C         -5.46980        6.95030       -3.86280
C         -6.72480        6.96000       -4.46770
S         -8.09090        7.55190       -3.50970
C         -9.43120        6.36530       -3.89530
C         -9.03900        4.94050       -3.56000
C         -6.79810        6.55790       -5.79740
F         -7.97530        6.57610       -6.46130
C         -5.68570        6.12600       -6.49090
C         -2.91700        6.18220       -7.84510
C         -1.73390        5.83950       -8.55460
C         -0.83740        4.91820       -7.98920
C          0.41450        4.50150       -8.63690
C          0.42430        3.90920       -9.89660
C          1.60120        3.41380      -10.42530
C          2.79230        3.50900       -9.72060
S          4.29070        2.79330      -10.37490
C          4.11370        1.10560       -9.67790
C          4.18530        1.07940       -8.16460
C          2.78260        4.15230       -8.48990
C          1.61170        4.63450       -7.94030
F          3.92250        4.30010       -7.79270
C         -1.17910        4.38660       -6.75760
S         -0.25680        3.17210       -5.91680
C         -1.60450        6.54510       -9.76850
C         -2.64610        7.40450      -10.02460
S         -3.83900        7.37490       -8.72720
C         -2.83730        8.25830      -11.12500
C         -2.05430        8.45900      -12.24790
C         -2.63600        9.36210      -13.15370
C         -3.85910        9.85750      -12.73710
S         -4.30830        9.24960      -11.21130
O         -3.90040       10.55240      -10.16600
O         -2.03810        9.66630      -14.32330
H          5.66230       -9.04440       10.35430
H          3.65550      -10.74880        6.68170
H          5.77130      -12.62060        9.03110
H          1.47770       -8.28810        8.30430
H          1.93120       -6.89090       13.46600
H          5.62780       -7.51180       12.57600
H          0.31920       -5.39320       12.33650
H          3.47700       -6.71140        7.63060
H          2.93940       -7.87620        5.54330
H          4.92690       -9.12110        4.80240
H          8.62960       -8.40070        1.66500
H          8.19680       -6.73460        2.09170
H          5.84910       -7.15170        1.30830
H          6.99860       -7.48460        0.01110
H          6.27570       -8.82100        0.91750
H          4.76860       -4.24080        4.20390
H         -0.31310       -1.21110        6.09550
H         -2.34950        0.00480        6.61480
H         -4.19390        1.08750        6.71320
H         -5.61580        1.27790        7.74000
H         -2.79090        0.79090        8.82960
H         -4.25080        1.03600        9.78730
H         -3.61320        2.35590        8.79920
H         -2.13440       -4.85780        7.40730
H         -0.79090       -2.31750        4.04130
H         -1.16280       -1.03210        2.30250
H         -0.95890        1.40160        2.42130
H         -2.66110        1.92010        4.11930
H         -6.48140       -0.05830        3.29310
H         -7.53870        1.36190        3.08700
H         -6.92400       -0.06140        5.73360
H         -7.91480        1.39480        5.57570
H         -8.45450       -0.12520        4.85450
H         -4.06800        0.72240       -0.44240
H          2.53050        1.18750       -3.13330
H          4.26040        0.46520       -4.72320
H          6.68570       -3.67570       -5.76150
H          5.19570       -4.31090       -5.03880
H          7.11680       -2.33070       -3.69250
H          5.65450       -2.99180       -2.95310
H          7.01440       -4.05640       -3.31670
H          1.38940       -2.90420       -2.57400
H          0.45120        1.12330       -4.27840
H         -3.30220        4.09350       -4.15990
H         -3.38490        6.55760       -4.06070
H         -5.39470        7.27830       -2.83780
H         -9.71310        6.47630       -4.94000
H        -10.25440        6.70550       -3.26700
H         -8.21360        4.60740       -4.18690
H         -8.73430        4.86240       -2.51850
H         -9.88610        4.27840       -3.72750
H         -5.80660        5.80260       -7.51300
H         -0.49990        3.80760      -10.44520
H          1.60760        2.93280      -11.39150
H          3.17280        0.69500      -10.04570
H          4.94430        0.55640      -10.11940
H          3.31130        1.55760       -7.72500
H          4.22560        0.04960       -7.81350
H          5.07630        1.59890       -7.81970
H          1.64200        5.11350       -6.97400
H         -0.76550        6.43220      -10.42940
H         -1.10630        7.98770      -12.41830
H         -4.52830       10.48140      -13.29350
H         -4.24480       10.40820       -9.27930
H         -2.56800       10.30710      -14.81150
