238

C         -1.14490        2.08690       12.82370
C         -2.29950        1.83280       12.17550
C         -2.10110        1.39530       10.83160
C         -3.07390        1.03670        9.88430
C         -4.50270        1.01120       10.22060
C         -5.44180        1.65610        9.41780
C         -6.77890        1.64030        9.75140
C         -7.23770        0.96930       10.88350
S         -8.98020        0.98720       11.18530
C         -9.11650        1.16010       13.00350
C         -8.42100        2.40800       13.50890
C         -6.29360        0.29530       11.65240
F         -6.66440       -0.42090       12.73750
C         -4.94850        0.32450       11.34530
C         -2.61680        0.69820        8.61840
C         -1.24050        0.67430        8.29200
C         -0.26110        0.98090        9.25140
C          1.15280        0.87240        8.87330
C          1.60010       -0.28210        8.23060
C          2.86950       -0.35520        7.69840
C          3.74160        0.72490        7.78720
S          5.31520        0.74990        6.99230
C          4.97650       -0.19680        5.45670
C          5.47110       -1.62890        5.50350
C          3.32030        1.83180        8.52370
C          2.05050        1.91990        9.05720
F          4.15460        2.87610        8.68420
C         -0.72310        1.36300       10.49990
S          0.26720        1.82250       11.85960
C         -1.02620        0.32220        6.93900
C         -2.16870        0.02590        6.25570
S         -3.59550        0.20150        7.25610
C         -2.19990       -0.39140        4.88890
C         -1.13260       -0.34240        4.03950
C         -1.39590       -0.88780        2.76410
C         -0.50690       -0.98470        1.68210
C          0.82990       -0.37990        1.76970
C          0.94790        0.96860        2.10280
C          2.18930        1.55650        2.22840
C          3.34590        0.81140        2.04340
S          4.93540        1.58660        2.24220
C          5.51080        1.54110        0.50820
C          4.64350        2.39070       -0.39660
C          3.21910       -0.53380        1.72290
F          4.32280       -1.29690        1.58880
C          1.98260       -1.12880        1.56230
C         -0.97950       -1.62070        0.54990
C         -2.31190       -2.09810        0.42550
C         -3.21000       -1.96650        1.50070
C         -4.60930       -2.39570        1.38840
C         -5.40870       -1.96530        0.33020
C         -6.72050       -2.37410        0.23240
C         -7.29330       -3.21940        1.18230
S         -8.99580       -3.63470        0.95360
C         -9.14190       -5.35880        1.55170
C         -8.21750       -6.30110        0.80750
C         -6.49320       -3.61100        2.25130
C         -5.17320       -3.22100        2.35440
F         -6.98130       -4.39820        3.23470
C         -2.71780       -1.38600        2.66150
S         -3.60680       -1.10710        4.13800
C         -2.55520       -2.64470       -0.85980
C         -1.47900       -2.55690       -1.69680
S         -0.07580       -1.85720       -0.91690
C         -1.41080       -2.87460       -3.07810
S         -0.06560       -2.20650       -4.04550
C         -0.80290       -2.91300       -5.41610
C         -1.97060       -3.58950       -5.05520
N         -2.28760       -3.54850       -3.76190
C         -2.62380       -4.18510       -6.26340
C         -1.71680       -3.69380       -7.35490
C         -0.65710       -2.97390       -6.82010
S          0.38350       -2.33460       -8.02330
C         -0.65800       -2.97740       -9.26980
C         -1.70030       -3.70140       -8.75600
C         -0.44400       -2.55670      -10.64860
C         -0.84030       -1.34480      -11.07360
C         -1.51870       -0.40530      -10.23560
S         -1.94680        1.21840      -10.83330
C         -2.60470        1.54910       -9.28500
C         -2.46270        0.43240       -8.45670
N         -1.87150       -0.62290       -9.00160
C         -2.99960        0.69760       -7.08860
C         -3.43460        2.12380       -7.23380
C         -3.20480        2.58850       -8.52580
S         -3.65040        4.23940       -8.71120
C         -4.06790        4.32800       -7.01380
C         -3.92490        3.11280       -6.38380
C         -4.31760        5.58670       -6.33670
C         -3.60190        5.92540       -5.25370
C         -2.45550        5.13870       -4.82960
C         -2.14650        4.60210       -3.62320
C         -1.02430        3.72080       -3.65970
C         -0.52770        2.89970       -2.63910
C         -1.12090        2.87020       -1.29400
C         -1.67550        1.68250       -0.81700
C         -2.24500        1.62780        0.43320
C         -2.26630        2.74130        1.27690
S         -3.00490        2.47390        2.85670
C         -2.46100        3.87250        3.91460
C         -2.75260        3.52040        5.36020
C         -1.73270        3.92490        0.77610
F         -1.74960        5.06710        1.50280
C         -1.17130        3.99660       -0.48540
C          0.49160        2.02250       -2.98310
C          0.96200        1.85280       -4.30760
C          0.46100        2.66760       -5.33460
C          0.81670        2.47550       -6.74500
C          0.78900        1.20770       -7.32590
C          1.07600        1.04240       -8.66280
C          1.37410        2.12630       -9.48580
S          1.64390        1.77320      -11.19680
C          2.96360        2.93500      -11.70610
C          4.22100        2.76540      -10.87780
C          1.37220        3.38830       -8.90070
C          1.11880        3.56550       -7.55540
F          1.62740        4.49500       -9.63220
C         -0.47800        3.62000       -4.96290
S         -1.28140        4.69810       -6.06160
C          1.92890        0.81760       -4.39130
C          2.21440        0.24180       -3.19240
S          1.32260        0.96780       -1.87080
C          3.07170       -0.88890       -2.98320
C          3.19810       -1.95720       -3.81550
C          4.10430       -2.93960       -3.33920
C          4.41950       -4.16820       -3.93120
C          3.70140       -4.62420       -5.13420
C          4.33940       -4.76590       -6.36200
C          3.62840       -5.16240       -7.47480
C          2.26630       -5.45610       -7.40730
S          1.48280       -5.85400       -8.94160
C          0.09150       -6.96750       -8.53050
C          0.55720       -8.24220       -7.85700
C          1.65210       -5.33750       -6.16500
F          0.34320       -5.63990       -5.99540
C          2.34630       -4.91810       -5.04800
C          5.39540       -4.92660       -3.30770
C          6.04390       -4.52110       -2.11520
C          5.70290       -3.30750       -1.50320
C          6.37530       -2.83730       -0.28270
C          6.37720       -3.58040        0.89500
C          6.99880       -3.09690        2.02570
C          7.66480       -1.87030        2.02630
S          8.46370       -1.39080        3.52340
C          8.45170        0.44650        3.49190
C          8.68630        0.96640        4.89640
C          7.68920       -1.16190        0.83000
C          7.04120       -1.61800       -0.30010
F          8.36820        0.00420        0.71950
C          4.72890       -2.54660       -2.13210
S          4.08710       -1.02650       -1.56680
C          7.02340       -5.47440       -1.70410
C          7.09410       -6.54130       -2.52470
S          5.98620       -6.47350       -3.85560
H         -1.01780        2.42730       13.83280
H         -3.27040        1.96200       12.61800
H         -5.11590        2.19760        8.54340
H         -7.50090        2.15450        9.13660
H         -8.73370        0.25870       13.47670
H        -10.19270        1.21680       13.16710
H         -7.34730        2.34990       13.33910
H         -8.59400        2.51650       14.57770
H         -8.80330        3.29090       13.00070
H         -4.26110       -0.22440       11.97060
H          0.94140       -1.13390        8.15020
H          3.18000       -1.25660        7.19560
H          3.90480       -0.13640        5.27060
H          5.49270        0.36000        4.67550
H          5.27750       -2.10530        4.54390
H          6.54180       -1.65550        5.68890
H          4.97550       -2.20100        6.28490
H          1.75850        2.82270        9.56990
H         -0.05080        0.29230        6.49200
H         -0.17610        0.06480        4.30890
H          0.05440        1.55670        2.24330
H          2.28160        2.60200        2.47910
H          5.51840        0.49910        0.19410
H          6.53270        1.91620        0.55000
H          4.62570        3.42260       -0.05220
H          5.04020        2.36680       -1.40960
H          3.62270        2.01120       -0.41840
H          1.93070       -2.17690        1.31220
H         -4.99990       -1.29460       -0.41020
H         -7.33610       -2.04240       -0.58940
H        -10.18720       -5.59880        1.35610
H         -8.96910       -5.37890        2.62520
H         -8.39680       -7.32310        1.13510
H         -8.39250       -6.24090       -0.26470
H         -7.17490       -6.05730        1.00170
H         -4.59520       -3.57470        3.19390
H         -3.49000       -3.07100       -1.17240
H         -2.64010       -5.27510       -6.20080
H         -3.65120       -3.84060       -6.38840
H         -2.44200       -4.16930       -9.37820
H          0.05140       -3.24110      -11.32360
H         -0.65750       -1.02830      -12.08960
H         -2.23270        0.57690       -6.32090
H         -3.82820        0.03140       -6.84040
H         -4.14990        2.97100       -5.34160
H         -5.09170        6.23650       -6.71920
H         -3.84320        6.81110       -4.68270
H         -2.73830        4.75560       -2.73790
H         -1.67080        0.80260       -1.44220
H         -2.69160        0.71400        0.79150
H         -1.39380        4.01620        3.75430
H         -3.00610        4.76390        3.60850
H         -3.80880        3.29560        5.49280
H         -2.49000        4.35880        6.00150
H         -2.17310        2.65210        5.66590
H         -0.76620        4.93950       -0.81960
H          0.52680        0.34490       -6.73300
H          1.06680        0.05730       -9.10200
H          2.57810        3.95100      -11.66140
H          3.13980        2.66740      -12.74800
H          4.03900        3.02680       -9.83720
H          4.57010        1.73560      -10.91930
H          5.00290        3.41670      -11.26290
H          1.16540        4.56540       -7.15290
H          2.41570        0.52930       -5.30490
H          2.65760       -2.05550       -4.73920
H          5.39380       -4.55170       -6.44440
H          4.11950       -5.25260       -8.43110
H         -0.34850       -7.17730       -9.50600
H         -0.63080       -6.42070       -7.92870
H         -0.29010       -8.90900       -7.70940
H          1.29860       -8.74890       -8.47120
H          0.99920       -8.03050       -6.88590
H          1.81930       -4.83000       -4.10990
H          5.86070       -4.52780        0.92850
H          6.98290       -3.66570        2.94260
H          7.47880        0.75600        3.11200
H          9.23870        0.78200        2.81840
H          8.68770        2.05390        4.88360
H          9.64470        0.62040        5.27720
H          7.90460        0.63340        5.57480
H          7.09290       -1.02700       -1.20220
H          7.64150       -5.34370       -0.83430
H          7.74090       -7.39300       -2.44420
