
  xtb     03032204013D
 energy: -453.199587798871 gnorm: 0.000419817845 xtb: 6.4.1 (unknown)
227253  0     0  0            999 V2000
    1.3974  -11.5042    9.9781 C   0  0  0  0  0  0  0  0  0  0  0  0
    2.1402  -11.4137    8.8564 C   0  0  0  0  0  0  0  0  0  0  0  0
    1.7289  -10.3476    8.0034 C   0  0  0  0  0  0  0  0  0  0  0  0
    2.2663   -9.9710    6.7615 C   0  0  0  0  0  0  0  0  0  0  0  0
    3.3620  -10.7074    6.1503 C   0  0  0  0  0  0  0  0  0  0  0  0
    3.2510  -12.4193    5.8643 S   0  0  0  0  0  0  0  0  0  0  0  0
    4.8174  -12.4790    5.1305 C   0  0  0  0  0  0  0  0  0  0  0  0
    5.4019  -13.7662    4.6638 C   0  0  0  0  0  0  0  0  0  0  0  0
    6.0286  -14.5368    5.8283 C   0  0  0  0  0  0  0  0  0  0  0  0
    5.3845  -11.2401    5.1268 C   0  0  0  0  0  0  0  0  0  0  0  0
    6.9435  -10.9028    4.4946 Cl  0  0  0  0  0  0  0  0  0  0  0  0
    4.5603  -10.2317    5.6961 C   0  0  0  0  0  0  0  0  0  0  0  0
    5.0785   -8.6066    5.8603 Cl  0  0  0  0  0  0  0  0  0  0  0  0
    1.6950   -8.8711    6.1330 C   0  0  0  0  0  0  0  0  0  0  0  0
    0.6181   -8.1483    6.7010 C   0  0  0  0  0  0  0  0  0  0  0  0
    0.0554   -8.5451    7.9247 C   0  0  0  0  0  0  0  0  0  0  0  0
   -1.1059   -7.8446    8.4483 C   0  0  0  0  0  0  0  0  0  0  0  0
   -1.1367   -7.1683   10.0487 S   0  0  0  0  0  0  0  0  0  0  0  0
   -2.7202   -6.5083    9.8238 C   0  0  0  0  0  0  0  0  0  0  0  0
   -3.3750   -5.6766   10.8709 C   0  0  0  0  0  0  0  0  0  0  0  0
   -3.1111   -4.1885   10.6255 C   0  0  0  0  0  0  0  0  0  0  0  0
   -3.1865   -6.8060    8.5777 C   0  0  0  0  0  0  0  0  0  0  0  0
   -2.2771   -7.5658    7.7968 C   0  0  0  0  0  0  0  0  0  0  0  0
   -2.6682   -8.1296    6.2215 Cl  0  0  0  0  0  0  0  0  0  0  0  0
   -4.7221   -6.3181    7.9895 Cl  0  0  0  0  0  0  0  0  0  0  0  0
    0.6434   -9.6295    8.5606 C   0  0  0  0  0  0  0  0  0  0  0  0
    0.1512  -10.3091   10.0855 S   0  0  0  0  0  0  0  0  0  0  0  0
    0.2294   -7.0572    5.8911 C   0  0  0  0  0  0  0  0  0  0  0  0
    0.9189   -6.9765    4.7168 C   0  0  0  0  0  0  0  0  0  0  0  0
    2.1351   -8.2240    4.5766 S   0  0  0  0  0  0  0  0  0  0  0  0
    0.6781   -5.9993    3.7038 C   0  0  0  0  0  0  0  0  0  0  0  0
   -0.4435   -5.2252    3.6298 C   0  0  0  0  0  0  0  0  0  0  0  0
   -0.4136   -4.2801    2.5813 C   0  0  0  0  0  0  0  0  0  0  0  0
   -1.3855   -3.3094    2.2747 C   0  0  0  0  0  0  0  0  0  0  0  0
   -2.5703   -3.1538    3.1025 C   0  0  0  0  0  0  0  0  0  0  0  0
   -4.1572   -3.0822    2.3862 S   0  0  0  0  0  0  0  0  0  0  0  0
   -4.9462   -3.0307    3.9250 C   0  0  0  0  0  0  0  0  0  0  0  0
   -6.4299   -2.9672    4.0478 C   0  0  0  0  0  0  0  0  0  0  0  0
   -6.8996   -1.5955    4.5376 C   0  0  0  0  0  0  0  0  0  0  0  0
   -4.0226   -3.0440    4.9272 C   0  0  0  0  0  0  0  0  0  0  0  0
   -4.4174   -3.0262    6.5962 Cl  0  0  0  0  0  0  0  0  0  0  0  0
   -2.6809   -3.1062    4.4678 C   0  0  0  0  0  0  0  0  0  0  0  0
   -1.3708   -3.0311    5.5749 Cl  0  0  0  0  0  0  0  0  0  0  0  0
   -1.1617   -2.5537    1.1307 C   0  0  0  0  0  0  0  0  0  0  0  0
   -0.0074   -2.7001    0.3217 C   0  0  0  0  0  0  0  0  0  0  0  0
    0.9719   -3.6590    0.6417 C   0  0  0  0  0  0  0  0  0  0  0  0
    2.1112   -3.8784   -0.2355 C   0  0  0  0  0  0  0  0  0  0  0  0
    3.1312   -2.5728   -0.7689 S   0  0  0  0  0  0  0  0  0  0  0  0
    4.0730   -3.6113   -1.7844 C   0  0  0  0  0  0  0  0  0  0  0  0
    5.1686   -3.0669   -2.6321 C   0  0  0  0  0  0  0  0  0  0  0  0
    4.6449   -2.0173   -3.6126 C   0  0  0  0  0  0  0  0  0  0  0  0
    3.6201   -4.8931   -1.6947 C   0  0  0  0  0  0  0  0  0  0  0  0
    2.5104   -5.0493   -0.8201 C   0  0  0  0  0  0  0  0  0  0  0  0
    1.7082   -6.5514   -0.6345 Cl  0  0  0  0  0  0  0  0  0  0  0  0
    4.2947   -6.2146   -2.5565 Cl  0  0  0  0  0  0  0  0  0  0  0  0
    0.7503   -4.4196    1.7822 C   0  0  0  0  0  0  0  0  0  0  0  0
    1.8121   -5.6425    2.4242 S   0  0  0  0  0  0  0  0  0  0  0  0
   -0.0414   -1.8387   -0.8023 C   0  0  0  0  0  0  0  0  0  0  0  0
   -1.1664   -1.0764   -0.8695 C   0  0  0  0  0  0  0  0  0  0  0  0
   -2.2392   -1.3487    0.4860 S   0  0  0  0  0  0  0  0  0  0  0  0
   -1.5449   -0.1652   -1.8973 C   0  0  0  0  0  0  0  0  0  0  0  0
   -2.7985    0.2976   -2.1560 C   0  0  0  0  0  0  0  0  0  0  0  0
   -2.8554    1.2131   -3.2329 C   0  0  0  0  0  0  0  0  0  0  0  0
   -3.9772    1.9242   -3.6971 C   0  0  0  0  0  0  0  0  0  0  0  0
   -5.2936    1.6249   -3.1632 C   0  0  0  0  0  0  0  0  0  0  0  0
   -6.3435    2.8613   -2.5443 S   0  0  0  0  0  0  0  0  0  0  0  0
   -7.5614    1.7189   -2.0873 C   0  0  0  0  0  0  0  0  0  0  0  0
   -8.8323    2.1581   -1.4463 C   0  0  0  0  0  0  0  0  0  0  0  0
   -8.6017    3.2268   -0.3816 C   0  0  0  0  0  0  0  0  0  0  0  0
   -7.1664    0.4562   -2.4144 C   0  0  0  0  0  0  0  0  0  0  0  0
   -8.1031   -0.9509   -2.1175 Cl  0  0  0  0  0  0  0  0  0  0  0  0
   -5.8849    0.3983   -3.0253 C   0  0  0  0  0  0  0  0  0  0  0  0
   -5.2107   -1.0733   -3.5978 Cl  0  0  0  0  0  0  0  0  0  0  0  0
   -3.7430    2.8963   -4.6608 C   0  0  0  0  0  0  0  0  0  0  0  0
   -2.4637    3.1107   -5.2298 C   0  0  0  0  0  0  0  0  0  0  0  0
   -1.3593    2.3299   -4.8378 C   0  0  0  0  0  0  0  0  0  0  0  0
   -0.0556    2.4541   -5.4653 C   0  0  0  0  0  0  0  0  0  0  0  0
    0.7035    3.9984   -5.7131 S   0  0  0  0  0  0  0  0  0  0  0  0
    2.1274    3.2931   -6.3939 C   0  0  0  0  0  0  0  0  0  0  0  0
    3.2668    4.1463   -6.8246 C   0  0  0  0  0  0  0  0  0  0  0  0
    3.7692    5.0258   -5.6805 C   0  0  0  0  0  0  0  0  0  0  0  0
    2.0003    1.9383   -6.4422 C   0  0  0  0  0  0  0  0  0  0  0  0
    0.7688    1.4589   -5.9193 C   0  0  0  0  0  0  0  0  0  0  0  0
    0.3578   -0.2025   -5.9769 Cl  0  0  0  0  0  0  0  0  0  0  0  0
    3.1855    0.8828   -7.0872 Cl  0  0  0  0  0  0  0  0  0  0  0  0
   -1.5790    1.4225   -3.8087 C   0  0  0  0  0  0  0  0  0  0  0  0
   -0.3580    0.4743   -3.0082 S   0  0  0  0  0  0  0  0  0  0  0  0
   -2.4925    4.1437   -6.1916 C   0  0  0  0  0  0  0  0  0  0  0  0
   -3.7115    4.7413   -6.3437 C   0  0  0  0  0  0  0  0  0  0  0  0
   -4.9326    3.9685   -5.3561 S   0  0  0  0  0  0  0  0  0  0  0  0
   -3.9095    5.8668   -7.2112 C   0  0  0  0  0  0  0  0  0  0  0  0
   -2.7617    5.9425   -8.5412 S   0  0  0  0  0  0  0  0  0  0  0  0
   -3.3269    7.4873   -9.0386 C   0  0  0  0  0  0  0  0  0  0  0  0
   -4.3254    7.9065   -8.2377 C   0  0  0  0  0  0  0  0  0  0  0  0
   -4.6969    6.9996   -7.1961 C   0  0  0  0  0  0  0  0  0  0  0  0
   -5.7830    7.5646   -6.3994 C   0  0  0  0  0  0  0  0  0  0  0  0
   -6.1272    8.7991   -6.8085 C   0  0  0  0  0  0  0  0  0  0  0  0
   -5.2727    9.4474   -8.2629 S   0  0  0  0  0  3  0  0  0  0  0  0
   -4.3732   10.5252   -7.8453 O   0  0  0  0  0  1  0  0  0  0  0  0
   -6.5891    6.9650   -5.3311 C   0  0  0  0  0  0  0  0  0  0  0  0
   -6.2550    6.5943   -4.0909 C   0  0  0  0  0  0  0  0  0  0  0  0
   -4.9560    6.4857   -3.4999 C   0  0  0  0  0  0  0  0  0  0  0  0
   -4.6995    5.7118   -2.4066 C   0  0  0  0  0  0  0  0  0  0  0  0
   -3.3241    5.4716   -2.1902 C   0  0  0  0  0  0  0  0  0  0  0  0
   -2.7483    4.5777   -1.2681 C   0  0  0  0  0  0  0  0  0  0  0  0
   -3.5540    3.9473   -0.2415 C   0  0  0  0  0  0  0  0  0  0  0  0
   -3.4282    2.2439    0.0786 S   0  0  0  0  0  0  0  0  0  0  0  0
   -4.6700    2.2876    1.2799 C   0  0  0  0  0  0  0  0  0  0  0  0
   -5.1111    1.0371    1.9569 C   0  0  0  0  0  0  0  0  0  0  0  0
   -5.8495    0.1114    0.9885 C   0  0  0  0  0  0  0  0  0  0  0  0
   -5.1337    3.5607    1.4297 C   0  0  0  0  0  0  0  0  0  0  0  0
   -6.3569    4.0134    2.5472 Cl  0  0  0  0  0  0  0  0  0  0  0  0
   -4.5026    4.5046    0.5756 C   0  0  0  0  0  0  0  0  0  0  0  0
   -4.8528    6.1824    0.6614 Cl  0  0  0  0  0  0  0  0  0  0  0  0
   -1.4024    4.2892   -1.4549 C   0  0  0  0  0  0  0  0  0  0  0  0
   -0.5990    4.9399   -2.4247 C   0  0  0  0  0  0  0  0  0  0  0  0
   -1.1454    5.9527   -3.2378 C   0  0  0  0  0  0  0  0  0  0  0  0
   -0.3339    6.7279   -4.1536 C   0  0  0  0  0  0  0  0  0  0  0  0
   -0.8932    7.0985   -5.7591 S   0  0  0  0  0  0  0  0  0  0  0  0
    0.5382    7.9833   -6.1490 C   0  0  0  0  0  0  0  0  0  0  0  0
    0.7233    8.5612   -7.5074 C   0  0  0  0  0  0  0  0  0  0  0  0
    1.1084    7.4750   -8.5140 C   0  0  0  0  0  0  0  0  0  0  0  0
    1.3884    7.9970   -5.0841 C   0  0  0  0  0  0  0  0  0  0  0  0
    0.8958    7.2974   -3.9491 C   0  0  0  0  0  0  0  0  0  0  0  0
    1.7465    7.2858   -2.4578 Cl  0  0  0  0  0  0  0  0  0  0  0  0
    2.9137    8.7849   -5.0847 Cl  0  0  0  0  0  0  0  0  0  0  0  0
   -2.5204    6.1400   -3.1437 C   0  0  0  0  0  0  0  0  0  0  0  0
   -3.4900    7.1157   -4.2129 S   0  0  0  0  0  0  0  0  0  0  0  0
    0.7019    4.3825   -2.4797 C   0  0  0  0  0  0  0  0  0  0  0  0
    0.9065    3.3769   -1.5848 C   0  0  0  0  0  0  0  0  0  0  0  0
   -0.4999    3.0807   -0.5845 S   0  0  0  0  0  0  0  0  0  0  0  0
    2.0854    2.5910   -1.4252 C   0  0  0  0  0  0  0  0  0  0  0  0
    2.4085    1.7573   -0.3985 C   0  0  0  0  0  0  0  0  0  0  0  0
    3.6844    1.1556   -0.5400 C   0  0  0  0  0  0  0  0  0  0  0  0
    4.3571    0.3302    0.3720 C   0  0  0  0  0  0  0  0  0  0  0  0
    3.8185   -0.0008    1.6814 C   0  0  0  0  0  0  0  0  0  0  0  0
    2.3074   -0.8278    1.9045 S   0  0  0  0  0  0  0  0  0  0  0  0
    2.5117   -0.8977    3.6208 C   0  0  0  0  0  0  0  0  0  0  0  0
    1.5470   -1.6323    4.4832 C   0  0  0  0  0  0  0  0  0  0  0  0
    2.1706   -2.9348    4.9901 C   0  0  0  0  0  0  0  0  0  0  0  0
    3.6730   -0.2856    3.9877 C   0  0  0  0  0  0  0  0  0  0  0  0
    4.2015   -0.1256    5.6109 Cl  0  0  0  0  0  0  0  0  0  0  0  0
    4.4176    0.2211    2.8907 C   0  0  0  0  0  0  0  0  0  0  0  0
    5.8872    1.0786    3.0907 Cl  0  0  0  0  0  0  0  0  0  0  0  0
    5.6074   -0.1433   -0.0089 C   0  0  0  0  0  0  0  0  0  0  0  0
    6.2333    0.2200   -1.2231 C   0  0  0  0  0  0  0  0  0  0  0  0
    5.6022    1.1268   -2.0919 C   0  0  0  0  0  0  0  0  0  0  0  0
    6.2775    1.5902   -3.2912 C   0  0  0  0  0  0  0  0  0  0  0  0
    5.5226    1.5284   -4.8546 S   0  0  0  0  0  0  0  0  0  0  0  0
    6.9377    2.1271   -5.6510 C   0  0  0  0  0  0  0  0  0  0  0  0
    6.9837    2.3021   -7.1308 C   0  0  0  0  0  0  0  0  0  0  0  0
    7.1041    3.7734   -7.5327 C   0  0  0  0  0  0  0  0  0  0  0  0
    7.9211    2.3789   -4.7400 C   0  0  0  0  0  0  0  0  0  0  0  0
    7.5500    2.0814   -3.4024 C   0  0  0  0  0  0  0  0  0  0  0  0
    8.5876    2.3926   -2.0696 Cl  0  0  0  0  0  0  0  0  0  0  0  0
    9.4835    2.9617   -5.1454 Cl  0  0  0  0  0  0  0  0  0  0  0  0
    4.3245    1.5446   -1.7430 C   0  0  0  0  0  0  0  0  0  0  0  0
    3.3356    2.6526   -2.6522 S   0  0  0  0  0  0  0  0  0  0  0  0
    7.4695   -0.4678   -1.3992 C   0  0  0  0  0  0  0  0  0  0  0  0
    7.7615   -1.2899   -0.3694 C   0  0  0  0  0  0  0  0  0  0  0  0
    6.5672   -1.2903    0.8806 S   0  0  0  0  0  0  0  0  0  0  0  0
    1.4981  -12.2106   10.7786 H   0  0  0  0  0  0  0  0  0  0  0  0
    2.9589  -12.0713    8.6298 H   0  0  0  0  0  0  0  0  0  0  0  0
    4.6211  -14.3751    4.2046 H   0  0  0  0  0  0  0  0  0  0  0  0
    6.1651  -13.5507    3.9140 H   0  0  0  0  0  0  0  0  0  0  0  0
    6.8161  -13.9467    6.2901 H   0  0  0  0  0  0  0  0  0  0  0  0
    5.2756  -14.7626    6.5798 H   0  0  0  0  0  0  0  0  0  0  0  0
    6.4561  -15.4698    5.4714 H   0  0  0  0  0  0  0  0  0  0  0  0
   -2.9910   -5.9607   11.8515 H   0  0  0  0  0  0  0  0  0  0  0  0
   -4.4511   -5.8621   10.8476 H   0  0  0  0  0  0  0  0  0  0  0  0
   -3.4992   -3.8919    9.6545 H   0  0  0  0  0  0  0  0  0  0  0  0
   -2.0433   -3.9848   10.6495 H   0  0  0  0  0  0  0  0  0  0  0  0
   -3.5982   -3.5916   11.3918 H   0  0  0  0  0  0  0  0  0  0  0  0
   -0.5149   -6.3419    6.1845 H   0  0  0  0  0  0  0  0  0  0  0  0
   -1.2839   -5.3599    4.2822 H   0  0  0  0  0  0  0  0  0  0  0  0
   -6.8773   -3.1881    3.0776 H   0  0  0  0  0  0  0  0  0  0  0  0
   -6.7561   -3.7301    4.7595 H   0  0  0  0  0  0  0  0  0  0  0  0
   -6.4840   -1.3806    5.5180 H   0  0  0  0  0  0  0  0  0  0  0  0
   -7.9837   -1.5802    4.6097 H   0  0  0  0  0  0  0  0  0  0  0  0
   -6.5838   -0.8161    3.8499 H   0  0  0  0  0  0  0  0  0  0  0  0
    5.9336   -2.6142   -1.9971 H   0  0  0  0  0  0  0  0  0  0  0  0
    5.6242   -3.8946   -3.1780 H   0  0  0  0  0  0  0  0  0  0  0  0
    3.9084   -2.4556   -4.2814 H   0  0  0  0  0  0  0  0  0  0  0  0
    5.4617   -1.6203   -4.2091 H   0  0  0  0  0  0  0  0  0  0  0  0
    4.1776   -1.1954   -3.0747 H   0  0  0  0  0  0  0  0  0  0  0  0
    0.7226   -1.8009   -1.5567 H   0  0  0  0  0  0  0  0  0  0  0  0
   -3.6504   -0.0078   -1.5795 H   0  0  0  0  0  0  0  0  0  0  0  0
   -9.3146    1.2823   -1.0073 H   0  0  0  0  0  0  0  0  0  0  0  0
   -9.5017    2.5559   -2.2155 H   0  0  0  0  0  0  0  0  0  0  0  0
   -8.1380    4.1065   -0.8221 H   0  0  0  0  0  0  0  0  0  0  0  0
   -7.9494    2.8527    0.4029 H   0  0  0  0  0  0  0  0  0  0  0  0
   -9.5474    3.5209    0.0654 H   0  0  0  0  0  0  0  0  0  0  0  0
    2.9476    4.7816   -7.6557 H   0  0  0  0  0  0  0  0  0  0  0  0
    4.0637    3.4922   -7.1794 H   0  0  0  0  0  0  0  0  0  0  0  0
    4.1307    4.4098   -4.8607 H   0  0  0  0  0  0  0  0  0  0  0  0
    4.5776    5.6678   -6.0207 H   0  0  0  0  0  0  0  0  0  0  0  0
    2.9648    5.6584   -5.3133 H   0  0  0  0  0  0  0  0  0  0  0  0
   -1.6229    4.4682   -6.7308 H   0  0  0  0  0  0  0  0  0  0  0  0
   -2.8815    7.9846   -9.8762 H   0  0  0  0  0  0  0  0  0  0  0  0
   -6.9043    9.3949   -6.3646 H   0  0  0  0  0  0  0  0  0  0  0  0
   -7.6423    6.9316   -5.5836 H   0  0  0  0  0  0  0  0  0  0  0  0
   -7.0449    6.2275   -3.4475 H   0  0  0  0  0  0  0  0  0  0  0  0
   -5.4780    5.2471   -1.8339 H   0  0  0  0  0  0  0  0  0  0  0  0
   -5.7628    1.3079    2.7896 H   0  0  0  0  0  0  0  0  0  0  0  0
   -4.2375    0.5115    2.3495 H   0  0  0  0  0  0  0  0  0  0  0  0
   -6.7364    0.5983    0.5918 H   0  0  0  0  0  0  0  0  0  0  0  0
   -6.1473   -0.8032    1.4929 H   0  0  0  0  0  0  0  0  0  0  0  0
   -5.1995   -0.1577    0.1605 H   0  0  0  0  0  0  0  0  0  0  0  0
   -0.2066    9.0372   -7.8243 H   0  0  0  0  0  0  0  0  0  0  0  0
    1.5068    9.3192   -7.4641 H   0  0  0  0  0  0  0  0  0  0  0  0
    2.0542    7.0209   -8.2292 H   0  0  0  0  0  0  0  0  0  0  0  0
    1.2141    7.9054   -9.5060 H   0  0  0  0  0  0  0  0  0  0  0  0
    0.3438    6.7020   -8.5457 H   0  0  0  0  0  0  0  0  0  0  0  0
    1.4611    4.6937   -3.1719 H   0  0  0  0  0  0  0  0  0  0  0  0
    1.7600    1.5893    0.4425 H   0  0  0  0  0  0  0  0  0  0  0  0
    1.2701   -1.0085    5.3367 H   0  0  0  0  0  0  0  0  0  0  0  0
    0.6487   -1.8502    3.9037 H   0  0  0  0  0  0  0  0  0  0  0  0
    1.4408   -3.5069    5.5565 H   0  0  0  0  0  0  0  0  0  0  0  0
    2.5144   -3.5384    4.1541 H   0  0  0  0  0  0  0  0  0  0  0  0
    3.0202   -2.7230    5.6327 H   0  0  0  0  0  0  0  0  0  0  0  0
    7.8461    1.7565   -7.5233 H   0  0  0  0  0  0  0  0  0  0  0  0
    6.0806    1.8690   -7.5636 H   0  0  0  0  0  0  0  0  0  0  0  0
    7.0847    3.8631   -8.6156 H   0  0  0  0  0  0  0  0  0  0  0  0
    8.0375    4.1910   -7.1672 H   0  0  0  0  0  0  0  0  0  0  0  0
    6.2831    4.3513   -7.1186 H   0  0  0  0  0  0  0  0  0  0  0  0
    8.0907   -0.3630   -2.2692 H   0  0  0  0  0  0  0  0  0  0  0  0
    8.6231   -1.9185   -0.2556 H   0  0  0  0  0  0  0  0  0  0  0  0
  1  2  2  0  0  0  0
  2  3  1  0  0  0  0
  3  4  2  0  0  0  0
  4  5  1  0  0  0  0
  5  6  1  0  0  0  0
  6  7  1  0  0  0  0
  7  8  1  0  0  0  0
  8  9  1  0  0  0  0
  7 10  2  0  0  0  0
 10 11  1  0  0  0  0
 10 12  1  0  0  0  0
 12 13  1  0  0  0  0
  4 14  1  0  0  0  0
 14 15  2  0  0  0  0
 15 16  1  0  0  0  0
 16 17  1  0  0  0  0
 17 18  1  0  0  0  0
 18 19  1  0  0  0  0
 19 20  1  0  0  0  0
 20 21  1  0  0  0  0
 19 22  2  0  0  0  0
 22 23  1  0  0  0  0
 23 24  1  0  0  0  0
 22 25  1  0  0  0  0
 16 26  2  0  0  0  0
 26 27  1  0  0  0  0
 15 28  1  0  0  0  0
 28 29  2  0  0  0  0
 29 30  1  0  0  0  0
 29 31  1  0  0  0  0
 31 32  2  0  0  0  0
 32 33  1  0  0  0  0
 33 34  2  0  0  0  0
 34 35  1  0  0  0  0
 35 36  1  0  0  0  0
 36 37  1  0  0  0  0
 37 38  1  0  0  0  0
 38 39  1  0  0  0  0
 37 40  2  0  0  0  0
 40 41  1  0  0  0  0
 40 42  1  0  0  0  0
 42 43  1  0  0  0  0
 34 44  1  0  0  0  0
 44 45  2  0  0  0  0
 45 46  1  0  0  0  0
 46 47  1  0  0  0  0
 47 48  1  0  0  0  0
 48 49  1  0  0  0  0
 49 50  1  0  0  0  0
 50 51  1  0  0  0  0
 49 52  2  0  0  0  0
 52 53  1  0  0  0  0
 53 54  1  0  0  0  0
 52 55  1  0  0  0  0
 46 56  2  0  0  0  0
 56 57  1  0  0  0  0
 45 58  1  0  0  0  0
 58 59  2  0  0  0  0
 59 60  1  0  0  0  0
 59 61  1  0  0  0  0
 61 62  2  0  0  0  0
 62 63  1  0  0  0  0
 63 64  2  0  0  0  0
 64 65  1  0  0  0  0
 65 66  1  0  0  0  0
 66 67  1  0  0  0  0
 67 68  1  0  0  0  0
 68 69  1  0  0  0  0
 67 70  2  0  0  0  0
 70 71  1  0  0  0  0
 70 72  1  0  0  0  0
 72 73  1  0  0  0  0
 64 74  1  0  0  0  0
 74 75  2  0  0  0  0
 75 76  1  0  0  0  0
 76 77  1  0  0  0  0
 77 78  1  0  0  0  0
 78 79  1  0  0  0  0
 79 80  1  0  0  0  0
 80 81  1  0  0  0  0
 79 82  2  0  0  0  0
 82 83  1  0  0  0  0
 83 84  1  0  0  0  0
 82 85  1  0  0  0  0
 76 86  2  0  0  0  0
 86 87  1  0  0  0  0
 75 88  1  0  0  0  0
 88 89  2  0  0  0  0
 89 90  1  0  0  0  0
 89 91  1  0  0  0  0
 91 92  1  0  0  0  0
 92 93  1  0  0  0  0
 93 94  2  0  0  0  0
 94 95  1  0  0  0  0
 95 96  1  0  0  0  0
 96 97  2  0  0  0  0
 97 98  1  0  0  0  0
 98 99  1  0  0  0  0
 96100  1  0  0  0  0
100101  2  0  0  0  0
101102  1  0  0  0  0
102103  2  0  0  0  0
103104  1  0  0  0  0
104105  2  0  0  0  0
105106  1  0  0  0  0
106107  1  0  0  0  0
107108  1  0  0  0  0
108109  1  0  0  0  0
109110  1  0  0  0  0
108111  2  0  0  0  0
111112  1  0  0  0  0
111113  1  0  0  0  0
113114  1  0  0  0  0
105115  1  0  0  0  0
115116  2  0  0  0  0
116117  1  0  0  0  0
117118  1  0  0  0  0
118119  1  0  0  0  0
119120  1  0  0  0  0
120121  1  0  0  0  0
121122  1  0  0  0  0
120123  2  0  0  0  0
123124  1  0  0  0  0
124125  1  0  0  0  0
123126  1  0  0  0  0
117127  2  0  0  0  0
127128  1  0  0  0  0
116129  1  0  0  0  0
129130  2  0  0  0  0
130131  1  0  0  0  0
130132  1  0  0  0  0
132133  2  0  0  0  0
133134  1  0  0  0  0
134135  2  0  0  0  0
135136  1  0  0  0  0
136137  1  0  0  0  0
137138  1  0  0  0  0
138139  1  0  0  0  0
139140  1  0  0  0  0
138141  2  0  0  0  0
141142  1  0  0  0  0
141143  1  0  0  0  0
143144  1  0  0  0  0
135145  1  0  0  0  0
145146  2  0  0  0  0
146147  1  0  0  0  0
147148  1  0  0  0  0
148149  1  0  0  0  0
149150  1  0  0  0  0
150151  1  0  0  0  0
151152  1  0  0  0  0
150153  2  0  0  0  0
153154  1  0  0  0  0
154155  1  0  0  0  0
153156  1  0  0  0  0
147157  2  0  0  0  0
157158  1  0  0  0  0
146159  1  0  0  0  0
159160  2  0  0  0  0
160161  1  0  0  0  0
 27  1  1  0  0  0  0
 57 31  1  0  0  0  0
 87 61  1  0  0  0  0
 95 91  2  0  0  0  0
128102  1  0  0  0  0
158132  1  0  0  0  0
 26  3  1  0  0  0  0
 56 33  1  0  0  0  0
 86 63  1  0  0  0  0
 98 94  1  0  0  0  0
127104  1  0  0  0  0
157134  1  0  0  0  0
 12  5  2  0  0  0  0
 30 14  1  0  0  0  0
 42 35  2  0  0  0  0
 60 44  1  0  0  0  0
 72 65  2  0  0  0  0
 90 74  1  0  0  0  0
113106  2  0  0  0  0
131115  1  0  0  0  0
143136  2  0  0  0  0
161145  1  0  0  0  0
 23 17  2  0  0  0  0
 53 47  2  0  0  0  0
 83 77  2  0  0  0  0
124118  2  0  0  0  0
154148  2  0  0  0  0
  1162  1  0  0  0  0
  2163  1  0  0  0  0
  8164  1  0  0  0  0
  8165  1  0  0  0  0
  9166  1  0  0  0  0
  9167  1  0  0  0  0
  9168  1  0  0  0  0
 20169  1  0  0  0  0
 20170  1  0  0  0  0
 21171  1  0  0  0  0
 21172  1  0  0  0  0
 21173  1  0  0  0  0
 28174  1  0  0  0  0
 32175  1  0  0  0  0
 38176  1  0  0  0  0
 38177  1  0  0  0  0
 39178  1  0  0  0  0
 39179  1  0  0  0  0
 39180  1  0  0  0  0
 50181  1  0  0  0  0
 50182  1  0  0  0  0
 51183  1  0  0  0  0
 51184  1  0  0  0  0
 51185  1  0  0  0  0
 58186  1  0  0  0  0
 62187  1  0  0  0  0
 68188  1  0  0  0  0
 68189  1  0  0  0  0
 69190  1  0  0  0  0
 69191  1  0  0  0  0
 69192  1  0  0  0  0
 80193  1  0  0  0  0
 80194  1  0  0  0  0
 81195  1  0  0  0  0
 81196  1  0  0  0  0
 81197  1  0  0  0  0
 88198  1  0  0  0  0
 93199  1  0  0  0  0
 97200  1  0  0  0  0
100201  1  0  0  0  0
101202  1  0  0  0  0
103203  1  0  0  0  0
109204  1  0  0  0  0
109205  1  0  0  0  0
110206  1  0  0  0  0
110207  1  0  0  0  0
110208  1  0  0  0  0
121209  1  0  0  0  0
121210  1  0  0  0  0
122211  1  0  0  0  0
122212  1  0  0  0  0
122213  1  0  0  0  0
129214  1  0  0  0  0
133215  1  0  0  0  0
139216  1  0  0  0  0
139217  1  0  0  0  0
140218  1  0  0  0  0
140219  1  0  0  0  0
140220  1  0  0  0  0
151221  1  0  0  0  0
151222  1  0  0  0  0
152223  1  0  0  0  0
152224  1  0  0  0  0
152225  1  0  0  0  0
159226  1  0  0  0  0
160227  1  0  0  0  0
M  END
