227

C          1.39740      -11.50420        9.97810
C          2.14020      -11.41370        8.85640
C          1.72890      -10.34760        8.00340
C          2.26630       -9.97100        6.76150
C          3.36200      -10.70740        6.15030
S          3.25100      -12.41930        5.86430
C          4.81740      -12.47900        5.13050
C          5.40190      -13.76620        4.66380
C          6.02860      -14.53680        5.82830
C          5.38450      -11.24010        5.12680
Cl         6.94350      -10.90280        4.49460
C          4.56030      -10.23170        5.69610
Cl         5.07850       -8.60660        5.86030
C          1.69500       -8.87110        6.13300
C          0.61810       -8.14830        6.70100
C          0.05540       -8.54510        7.92470
C         -1.10590       -7.84460        8.44830
S         -1.13670       -7.16830       10.04870
C         -2.72020       -6.50830        9.82380
C         -3.37500       -5.67660       10.87090
C         -3.11110       -4.18850       10.62550
C         -3.18650       -6.80600        8.57770
C         -2.27710       -7.56580        7.79680
Cl        -2.66820       -8.12960        6.22150
Cl        -4.72210       -6.31810        7.98950
C          0.64340       -9.62950        8.56060
S          0.15120      -10.30910       10.08550
C          0.22940       -7.05720        5.89110
C          0.91890       -6.97650        4.71680
S          2.13510       -8.22400        4.57660
C          0.67810       -5.99930        3.70380
C         -0.44350       -5.22520        3.62980
C         -0.41360       -4.28010        2.58130
C         -1.38550       -3.30940        2.27470
C         -2.57030       -3.15380        3.10250
S         -4.15720       -3.08220        2.38620
C         -4.94620       -3.03070        3.92500
C         -6.42990       -2.96720        4.04780
C         -6.89960       -1.59550        4.53760
C         -4.02260       -3.04400        4.92720
Cl        -4.41740       -3.02620        6.59620
C         -2.68090       -3.10620        4.46780
Cl        -1.37080       -3.03110        5.57490
C         -1.16170       -2.55370        1.13070
C         -0.00740       -2.70010        0.32170
C          0.97190       -3.65900        0.64170
C          2.11120       -3.87840       -0.23550
S          3.13120       -2.57280       -0.76890
C          4.07300       -3.61130       -1.78440
C          5.16860       -3.06690       -2.63210
C          4.64490       -2.01730       -3.61260
C          3.62010       -4.89310       -1.69470
C          2.51040       -5.04930       -0.82010
Cl         1.70820       -6.55140       -0.63450
Cl         4.29470       -6.21460       -2.55650
C          0.75030       -4.41960        1.78220
S          1.81210       -5.64250        2.42420
C         -0.04140       -1.83870       -0.80230
C         -1.16640       -1.07640       -0.86950
S         -2.23920       -1.34870        0.48600
C         -1.54490       -0.16520       -1.89730
C         -2.79850        0.29760       -2.15600
C         -2.85540        1.21310       -3.23290
C         -3.97720        1.92420       -3.69710
C         -5.29360        1.62490       -3.16320
S         -6.34350        2.86130       -2.54430
C         -7.56140        1.71890       -2.08730
C         -8.83230        2.15810       -1.44630
C         -8.60170        3.22680       -0.38160
C         -7.16640        0.45620       -2.41440
Cl        -8.10310       -0.95090       -2.11750
C         -5.88490        0.39830       -3.02530
Cl        -5.21070       -1.07330       -3.59780
C         -3.74300        2.89630       -4.66080
C         -2.46370        3.11070       -5.22980
C         -1.35930        2.32990       -4.83780
C         -0.05560        2.45410       -5.46530
S          0.70350        3.99840       -5.71310
C          2.12740        3.29310       -6.39390
C          3.26680        4.14630       -6.82460
C          3.76920        5.02580       -5.68050
C          2.00030        1.93830       -6.44220
C          0.76880        1.45890       -5.91930
Cl         0.35780       -0.20250       -5.97690
Cl         3.18550        0.88280       -7.08720
C         -1.57900        1.42250       -3.80870
S         -0.35800        0.47430       -3.00820
C         -2.49250        4.14370       -6.19160
C         -3.71150        4.74130       -6.34370
S         -4.93260        3.96850       -5.35610
C         -3.90950        5.86680       -7.21120
S         -2.76170        5.94250       -8.54120
C         -3.32690        7.48730       -9.03860
C         -4.32540        7.90650       -8.23770
C         -4.69690        6.99960       -7.19610
C         -5.78300        7.56460       -6.39940
C         -6.12720        8.79910       -6.80850
S         -5.27270        9.44740       -8.26290
O         -4.37320       10.52520       -7.84530
C         -6.58910        6.96500       -5.33110
C         -6.25500        6.59430       -4.09090
C         -4.95600        6.48570       -3.49990
C         -4.69950        5.71180       -2.40660
C         -3.32410        5.47160       -2.19020
C         -2.74830        4.57770       -1.26810
C         -3.55400        3.94730       -0.24150
S         -3.42820        2.24390        0.07860
C         -4.67000        2.28760        1.27990
C         -5.11110        1.03710        1.95690
C         -5.84950        0.11140        0.98850
C         -5.13370        3.56070        1.42970
Cl        -6.35690        4.01340        2.54720
C         -4.50260        4.50460        0.57560
Cl        -4.85280        6.18240        0.66140
C         -1.40240        4.28920       -1.45490
C         -0.59900        4.93990       -2.42470
C         -1.14540        5.95270       -3.23780
C         -0.33390        6.72790       -4.15360
S         -0.89320        7.09850       -5.75910
C          0.53820        7.98330       -6.14900
C          0.72330        8.56120       -7.50740
C          1.10840        7.47500       -8.51400
C          1.38840        7.99700       -5.08410
C          0.89580        7.29740       -3.94910
Cl         1.74650        7.28580       -2.45780
Cl         2.91370        8.78490       -5.08470
C         -2.52040        6.14000       -3.14370
S         -3.49000        7.11570       -4.21290
C          0.70190        4.38250       -2.47970
C          0.90650        3.37690       -1.58480
S         -0.49990        3.08070       -0.58450
C          2.08540        2.59100       -1.42520
C          2.40850        1.75730       -0.39850
C          3.68440        1.15560       -0.54000
C          4.35710        0.33020        0.37200
C          3.81850       -0.00080        1.68140
S          2.30740       -0.82780        1.90450
C          2.51170       -0.89770        3.62080
C          1.54700       -1.63230        4.48320
C          2.17060       -2.93480        4.99010
C          3.67300       -0.28560        3.98770
Cl         4.20150       -0.12560        5.61090
C          4.41760        0.22110        2.89070
Cl         5.88720        1.07860        3.09070
C          5.60740       -0.14330       -0.00890
C          6.23330        0.22000       -1.22310
C          5.60220        1.12680       -2.09190
C          6.27750        1.59020       -3.29120
S          5.52260        1.52840       -4.85460
C          6.93770        2.12710       -5.65100
C          6.98370        2.30210       -7.13080
C          7.10410        3.77340       -7.53270
C          7.92110        2.37890       -4.74000
C          7.55000        2.08140       -3.40240
Cl         8.58760        2.39260       -2.06960
Cl         9.48350        2.96170       -5.14540
C          4.32450        1.54460       -1.74300
S          3.33560        2.65260       -2.65220
C          7.46950       -0.46780       -1.39920
C          7.76150       -1.28990       -0.36940
S          6.56720       -1.29030        0.88060
H          1.49810      -12.21060       10.77860
H          2.95890      -12.07130        8.62980
H          4.62110      -14.37510        4.20460
H          6.16510      -13.55070        3.91400
H          6.81610      -13.94670        6.29010
H          5.27560      -14.76260        6.57980
H          6.45610      -15.46980        5.47140
H         -2.99100       -5.96070       11.85150
H         -4.45110       -5.86210       10.84760
H         -3.49920       -3.89190        9.65450
H         -2.04330       -3.98480       10.64950
H         -3.59820       -3.59160       11.39180
H         -0.51490       -6.34190        6.18450
H         -1.28390       -5.35990        4.28220
H         -6.87730       -3.18810        3.07760
H         -6.75610       -3.73010        4.75950
H         -6.48400       -1.38060        5.51800
H         -7.98370       -1.58020        4.60970
H         -6.58380       -0.81610        3.84990
H          5.93360       -2.61420       -1.99710
H          5.62420       -3.89460       -3.17800
H          3.90840       -2.45560       -4.28140
H          5.46170       -1.62030       -4.20910
H          4.17760       -1.19540       -3.07470
H          0.72260       -1.80090       -1.55670
H         -3.65040       -0.00780       -1.57950
H         -9.31460        1.28230       -1.00730
H         -9.50170        2.55590       -2.21550
H         -8.13800        4.10650       -0.82210
H         -7.94940        2.85270        0.40290
H         -9.54740        3.52090        0.06540
H          2.94760        4.78160       -7.65570
H          4.06370        3.49220       -7.17940
H          4.13070        4.40980       -4.86070
H          4.57760        5.66780       -6.02070
H          2.96480        5.65840       -5.31330
H         -1.62290        4.46820       -6.73080
H         -2.88150        7.98460       -9.87620
H         -6.90430        9.39490       -6.36460
H         -7.64230        6.93160       -5.58360
H         -7.04490        6.22750       -3.44750
H         -5.47800        5.24710       -1.83390
H         -5.76280        1.30790        2.78960
H         -4.23750        0.51150        2.34950
H         -6.73640        0.59830        0.59180
H         -6.14730       -0.80320        1.49290
H         -5.19950       -0.15770        0.16050
H         -0.20660        9.03720       -7.82430
H          1.50680        9.31920       -7.46410
H          2.05420        7.02090       -8.22920
H          1.21410        7.90540       -9.50600
H          0.34380        6.70200       -8.54570
H          1.46110        4.69370       -3.17190
H          1.76000        1.58930        0.44250
H          1.27010       -1.00850        5.33670
H          0.64870       -1.85020        3.90370
H          1.44080       -3.50690        5.55650
H          2.51440       -3.53840        4.15410
H          3.02020       -2.72300        5.63270
H          7.84610        1.75650       -7.52330
H          6.08060        1.86900       -7.56360
H          7.08470        3.86310       -8.61560
H          8.03750        4.19100       -7.16720
H          6.28310        4.35130       -7.11860
H          8.09070       -0.36300       -2.26920
H          8.62310       -1.91850       -0.25560
