
  xtb     03012217153D
 energy: -437.199379402410 gnorm: 0.000658540498 xtb: 6.4.1 (unknown)
220244  0     0  0            999 V2000
  -12.0533   -5.0581    5.6918 C   0  0  0  0  0  0  0  0  0  0  0  0
  -10.8487   -5.4984    5.2746 C   0  0  0  0  0  0  0  0  0  0  0  0
   -9.8535   -4.4780    5.2823 C   0  0  0  0  0  0  0  0  0  0  0  0
   -8.5125   -4.5690    4.8766 C   0  0  0  0  0  0  0  0  0  0  0  0
   -7.9563   -5.7993    4.3351 C   0  0  0  0  0  0  0  0  0  0  0  0
   -8.7062   -6.6142    2.9927 S   0  0  0  0  0  0  0  0  0  0  0  0
   -7.4908   -7.8470    2.9565 C   0  0  0  0  0  0  0  0  0  0  0  0
   -7.5270   -8.9400    1.9460 C   0  0  0  0  0  0  0  0  0  0  0  0
   -6.9321   -8.4830    0.6126 C   0  0  0  0  0  0  0  0  0  0  0  0
   -6.5590   -7.6175    3.9237 C   0  0  0  0  0  0  0  0  0  0  0  0
   -5.1963   -8.6236    4.1971 Cl  0  0  0  0  0  0  0  0  0  0  0  0
   -6.8203   -6.4615    4.7089 C   0  0  0  0  0  0  0  0  0  0  0  0
   -5.8406   -6.0215    6.0439 Cl  0  0  0  0  0  0  0  0  0  0  0  0
   -7.7451   -3.4142    4.9730 C   0  0  0  0  0  0  0  0  0  0  0  0
   -8.2642   -2.1867    5.4527 C   0  0  0  0  0  0  0  0  0  0  0  0
   -9.6076   -2.0923    5.8533 C   0  0  0  0  0  0  0  0  0  0  0  0
  -10.1672   -0.8207    6.2816 C   0  0  0  0  0  0  0  0  0  0  0  0
   -9.9964    0.6011    5.2897 S   0  0  0  0  0  0  0  0  0  0  0  0
  -10.8686    1.5887    6.4101 C   0  0  0  0  0  0  0  0  0  0  0  0
  -11.1307    3.0259    6.1239 C   0  0  0  0  0  0  0  0  0  0  0  0
  -12.3333    3.1895    5.1918 C   0  0  0  0  0  0  0  0  0  0  0  0
  -11.2725    0.8448    7.4782 C   0  0  0  0  0  0  0  0  0  0  0  0
  -10.8750   -0.5186    7.4114 C   0  0  0  0  0  0  0  0  0  0  0  0
  -11.1854   -1.6249    8.6825 Cl  0  0  0  0  0  0  0  0  0  0  0  0
  -12.1649    1.4761    8.8010 Cl  0  0  0  0  0  0  0  0  0  0  0  0
  -10.3720   -3.2497    5.7611 C   0  0  0  0  0  0  0  0  0  0  0  0
  -12.0660   -3.3879    6.1340 S   0  0  0  0  0  0  0  0  0  0  0  0
   -7.2942   -1.1565    5.4237 C   0  0  0  0  0  0  0  0  0  0  0  0
   -6.0975   -1.5507    4.9018 C   0  0  0  0  0  0  0  0  0  0  0  0
   -6.0932   -3.2416    4.4561 S   0  0  0  0  0  0  0  0  0  0  0  0
   -4.9770   -0.7158    4.6091 C   0  0  0  0  0  0  0  0  0  0  0  0
   -4.9456    0.6483    4.6471 C   0  0  0  0  0  0  0  0  0  0  0  0
   -3.7624    1.1992    4.1022 C   0  0  0  0  0  0  0  0  0  0  0  0
   -3.4490    2.5608    3.9388 C   0  0  0  0  0  0  0  0  0  0  0  0
   -4.4081    3.5908    4.2992 C   0  0  0  0  0  0  0  0  0  0  0  0
   -3.9725    4.9046    5.3518 S   0  0  0  0  0  0  0  0  0  0  0  0
   -5.5682    5.5718    5.3101 C   0  0  0  0  0  0  0  0  0  0  0  0
   -5.9264    6.7729    6.1135 C   0  0  0  0  0  0  0  0  0  0  0  0
   -6.3518    6.3756    7.5293 C   0  0  0  0  0  0  0  0  0  0  0  0
   -6.3787    4.8093    4.5231 C   0  0  0  0  0  0  0  0  0  0  0  0
   -8.0383    5.1468    4.2495 Cl  0  0  0  0  0  0  0  0  0  0  0  0
   -5.7248    3.6923    3.9391 C   0  0  0  0  0  0  0  0  0  0  0  0
   -6.5164    2.6461    2.8284 Cl  0  0  0  0  0  0  0  0  0  0  0  0
   -2.1988    2.8555    3.4125 C   0  0  0  0  0  0  0  0  0  0  0  0
   -1.2786    1.8515    3.0248 C   0  0  0  0  0  0  0  0  0  0  0  0
   -1.6109    0.4873    3.1294 C   0  0  0  0  0  0  0  0  0  0  0  0
   -0.7027   -0.5458    2.6622 C   0  0  0  0  0  0  0  0  0  0  0  0
    0.9952   -0.5160    3.0540 S   0  0  0  0  0  0  0  0  0  0  0  0
    1.3136   -1.9777    2.1869 C   0  0  0  0  0  0  0  0  0  0  0  0
    2.6903   -2.5288    2.0768 C   0  0  0  0  0  0  0  0  0  0  0  0
    3.3559   -2.7041    3.4393 C   0  0  0  0  0  0  0  0  0  0  0  0
    0.1608   -2.4613    1.6453 C   0  0  0  0  0  0  0  0  0  0  0  0
   -0.9763   -1.6469    1.8952 C   0  0  0  0  0  0  0  0  0  0  0  0
   -2.4907   -1.9746    1.1748 Cl  0  0  0  0  0  0  0  0  0  0  0  0
    0.0650   -3.9324    0.7616 Cl  0  0  0  0  0  0  0  0  0  0  0  0
   -2.8546    0.1942    3.6794 C   0  0  0  0  0  0  0  0  0  0  0  0
   -3.4984   -1.3928    3.9766 S   0  0  0  0  0  0  0  0  0  0  0  0
   -0.1056    2.4140    2.4694 C   0  0  0  0  0  0  0  0  0  0  0  0
   -0.1162    3.7751    2.4189 C   0  0  0  0  0  0  0  0  0  0  0  0
   -1.5908    4.4534    3.0614 S   0  0  0  0  0  0  0  0  0  0  0  0
    0.9571    4.5111    1.8117 C   0  0  0  0  0  0  0  0  0  0  0  0
    2.2666    4.1506    1.9039 C   0  0  0  0  0  0  0  0  0  0  0  0
    3.0906    4.7693    0.9330 C   0  0  0  0  0  0  0  0  0  0  0  0
    4.4211    4.4584    0.6218 C   0  0  0  0  0  0  0  0  0  0  0  0
    5.1579    3.4002    1.3038 C   0  0  0  0  0  0  0  0  0  0  0  0
    6.7330    3.6600    1.9821 S   0  0  0  0  0  0  0  0  0  0  0  0
    6.9489    1.9767    2.3212 C   0  0  0  0  0  0  0  0  0  0  0  0
    8.2262    1.4618    2.8866 C   0  0  0  0  0  0  0  0  0  0  0  0
    9.1933    1.0719    1.7653 C   0  0  0  0  0  0  0  0  0  0  0  0
    5.8552    1.2682    1.9229 C   0  0  0  0  0  0  0  0  0  0  0  0
    5.7245   -0.4380    2.0470 Cl  0  0  0  0  0  0  0  0  0  0  0  0
    4.8325    2.0727    1.3509 C   0  0  0  0  0  0  0  0  0  0  0  0
    3.3862    1.4034    0.6987 Cl  0  0  0  0  0  0  0  0  0  0  0  0
    4.9402    5.0101   -0.5381 C   0  0  0  0  0  0  0  0  0  0  0  0
    4.1774    5.8068   -1.4272 C   0  0  0  0  0  0  0  0  0  0  0  0
    2.8696    6.1754   -1.0757 C   0  0  0  0  0  0  0  0  0  0  0  0
    2.0183    6.9188   -2.0003 C   0  0  0  0  0  0  0  0  0  0  0  0
    1.4618    8.5248   -1.6524 S   0  0  0  0  0  0  0  0  0  0  0  0
    0.5711    8.6154   -3.1341 C   0  0  0  0  0  0  0  0  0  0  0  0
   -0.1583    9.8535   -3.5233 C   0  0  0  0  0  0  0  0  0  0  0  0
    0.7612   10.8137   -4.2818 C   0  0  0  0  0  0  0  0  0  0  0  0
    0.7115    7.4608   -3.8441 C   0  0  0  0  0  0  0  0  0  0  0  0
    1.5280    6.4914   -3.2007 C   0  0  0  0  0  0  0  0  0  0  0  0
    1.8171    4.9268   -3.8481 Cl  0  0  0  0  0  0  0  0  0  0  0  0
   -0.0265    7.1769   -5.3664 Cl  0  0  0  0  0  0  0  0  0  0  0  0
    2.3579    5.6536    0.1042 C   0  0  0  0  0  0  0  0  0  0  0  0
    0.6874    5.7451    0.5964 S   0  0  0  0  0  0  0  0  0  0  0  0
    4.7789    5.8781   -2.7135 C   0  0  0  0  0  0  0  0  0  0  0  0
    5.9206    5.1424   -2.8187 C   0  0  0  0  0  0  0  0  0  0  0  0
    6.4471    4.5173   -1.2535 S   0  0  0  0  0  0  0  0  0  0  0  0
    6.3817    4.3829   -3.9454 C   0  0  0  0  0  0  0  0  0  0  0  0
    7.4890    3.5887   -4.0138 C   0  0  0  0  0  0  0  0  0  0  0  0
    7.2886    2.4031   -4.7687 C   0  0  0  0  0  0  0  0  0  0  0  0
    8.1105    1.2650   -4.8342 C   0  0  0  0  0  0  0  0  0  0  0  0
    9.4752    1.2487   -4.3299 C   0  0  0  0  0  0  0  0  0  0  0  0
    9.8785    1.7240   -2.7052 S   0  0  0  0  0  0  0  0  0  0  0  0
   11.5500    1.3295   -2.9155 C   0  0  0  0  0  0  0  0  0  0  0  0
   12.5139    1.4671   -1.7899 C   0  0  0  0  0  0  0  0  0  0  0  0
   12.3806    0.2974   -0.8120 C   0  0  0  0  0  0  0  0  0  0  0  0
   11.7679    0.8544   -4.1733 C   0  0  0  0  0  0  0  0  0  0  0  0
   13.3032    0.3623   -4.7609 Cl  0  0  0  0  0  0  0  0  0  0  0  0
   10.5953    0.8050   -4.9758 C   0  0  0  0  0  0  0  0  0  0  0  0
   10.6204    0.2985   -6.6134 Cl  0  0  0  0  0  0  0  0  0  0  0  0
    7.5256    0.0898   -5.2981 C   0  0  0  0  0  0  0  0  0  0  0  0
    6.1703    0.0109   -5.7008 C   0  0  0  0  0  0  0  0  0  0  0  0
    5.3755    1.1686   -5.7202 C   0  0  0  0  0  0  0  0  0  0  0  0
    3.9376    1.0859   -5.9506 C   0  0  0  0  0  0  0  0  0  0  0  0
    3.2574    0.5738   -7.4630 S   0  0  0  0  0  0  0  0  0  0  0  0
    1.6387    0.6670   -6.8565 C   0  0  0  0  0  0  0  0  0  0  0  0
    0.4654    0.3924   -7.7307 C   0  0  0  0  0  0  0  0  0  0  0  0
   -0.0035    1.6709   -8.4300 C   0  0  0  0  0  0  0  0  0  0  0  0
    1.6443    1.0736   -5.5561 C   0  0  0  0  0  0  0  0  0  0  0  0
    2.9450    1.3123   -5.0371 C   0  0  0  0  0  0  0  0  0  0  0  0
    3.2000    1.7788   -3.4076 Cl  0  0  0  0  0  0  0  0  0  0  0  0
    0.2298    1.2571   -4.6016 Cl  0  0  0  0  0  0  0  0  0  0  0  0
    5.9671    2.3401   -5.2840 C   0  0  0  0  0  0  0  0  0  0  0  0
    5.1074    3.8296   -5.0298 S   0  0  0  0  0  0  0  0  0  0  0  0
    5.7336   -1.3241   -5.8551 C   0  0  0  0  0  0  0  0  0  0  0  0
    6.7019   -2.2447   -5.5704 C   0  0  0  0  0  0  0  0  0  0  0  0
    8.2426   -1.4960   -5.1804 S   0  0  0  0  0  0  0  0  0  0  0  0
    6.4780   -3.6072   -5.4644 C   0  0  0  0  0  0  0  0  0  0  0  0
    6.1100   -4.7532   -5.2775 C   0  0  0  0  0  0  0  0  0  0  0  0
    5.5473   -5.9444   -5.0195 C   0  0  0  0  0  0  0  0  0  0  0  0
    4.8754   -6.9131   -4.7111 C   0  0  0  0  0  0  0  0  0  0  0  0
    4.0290   -7.9726   -4.4027 C   0  0  0  0  0  0  0  0  0  0  0  0
    2.8090   -7.8095   -3.8433 C   0  0  0  0  0  0  0  0  0  0  0  0
    2.2488   -6.5650   -3.4061 C   0  0  0  0  0  0  0  0  0  0  0  0
    2.8720   -5.4010   -3.0619 C   0  0  0  0  0  0  0  0  0  0  0  0
    1.9839   -4.3711   -2.6653 C   0  0  0  0  0  0  0  0  0  0  0  0
    2.3042   -3.0905   -2.1838 C   0  0  0  0  0  0  0  0  0  0  0  0
    3.6761   -2.7086   -1.8913 C   0  0  0  0  0  0  0  0  0  0  0  0
    4.3609   -1.2198   -2.4692 S   0  0  0  0  0  0  0  0  0  0  0  0
    5.8459   -1.4790   -1.6201 C   0  0  0  0  0  0  0  0  0  0  0  0
    6.9588   -0.4897   -1.6555 C   0  0  0  0  0  0  0  0  0  0  0  0
    6.4465    0.9401   -1.7609 C   0  0  0  0  0  0  0  0  0  0  0  0
    5.8006   -2.6612   -0.9434 C   0  0  0  0  0  0  0  0  0  0  0  0
    7.0852   -3.2520    0.0282 Cl  0  0  0  0  0  0  0  0  0  0  0  0
    4.5767   -3.3631   -1.0970 C   0  0  0  0  0  0  0  0  0  0  0  0
    4.2587   -4.8422   -0.2861 Cl  0  0  0  0  0  0  0  0  0  0  0  0
    1.2422   -2.2324   -1.9252 C   0  0  0  0  0  0  0  0  0  0  0  0
   -0.1108   -2.6155   -2.0781 C   0  0  0  0  0  0  0  0  0  0  0  0
   -0.4324   -3.9219   -2.4791 C   0  0  0  0  0  0  0  0  0  0  0  0
   -1.8086   -4.3967   -2.4829 C   0  0  0  0  0  0  0  0  0  0  0  0
   -2.7562   -4.3163   -1.0299 S   0  0  0  0  0  0  0  0  0  0  0  0
   -4.1117   -5.0829   -1.7703 C   0  0  0  0  0  0  0  0  0  0  0  0
   -5.3803   -5.3346   -1.0269 C   0  0  0  0  0  0  0  0  0  0  0  0
   -5.2461   -5.0834    0.4696 C   0  0  0  0  0  0  0  0  0  0  0  0
   -3.8315   -5.3790   -3.0723 C   0  0  0  0  0  0  0  0  0  0  0  0
   -2.5262   -4.9968   -3.4792 C   0  0  0  0  0  0  0  0  0  0  0  0
   -1.9563   -5.2083   -5.0825 Cl  0  0  0  0  0  0  0  0  0  0  0  0
   -4.9490   -6.1439   -4.1282 Cl  0  0  0  0  0  0  0  0  0  0  0  0
    0.6281   -4.7689   -2.7740 C   0  0  0  0  0  0  0  0  0  0  0  0
    0.5026   -6.4347   -3.2534 S   0  0  0  0  0  0  0  0  0  0  0  0
   -0.9988   -1.5553   -1.7322 C   0  0  0  0  0  0  0  0  0  0  0  0
   -0.3555   -0.4507   -1.3042 C   0  0  0  0  0  0  0  0  0  0  0  0
    1.3665   -0.6107   -1.3027 S   0  0  0  0  0  0  0  0  0  0  0  0
  -12.9639   -5.6178    5.7802 H   0  0  0  0  0  0  0  0  0  0  0  0
  -10.6582   -6.5111    4.9711 H   0  0  0  0  0  0  0  0  0  0  0  0
   -6.9554   -9.7865    2.3307 H   0  0  0  0  0  0  0  0  0  0  0  0
   -8.5603   -9.2563    1.7918 H   0  0  0  0  0  0  0  0  0  0  0  0
   -5.8975   -8.1792    0.7486 H   0  0  0  0  0  0  0  0  0  0  0  0
   -6.9661   -9.2951   -0.1086 H   0  0  0  0  0  0  0  0  0  0  0  0
   -7.4976   -7.6417    0.2186 H   0  0  0  0  0  0  0  0  0  0  0  0
  -10.2495    3.4693    5.6564 H   0  0  0  0  0  0  0  0  0  0  0  0
  -11.3241    3.5405    7.0669 H   0  0  0  0  0  0  0  0  0  0  0  0
  -13.2243    2.7637    5.6466 H   0  0  0  0  0  0  0  0  0  0  0  0
  -12.1487    2.6838    4.2470 H   0  0  0  0  0  0  0  0  0  0  0  0
  -12.5111    4.2431    4.9947 H   0  0  0  0  0  0  0  0  0  0  0  0
   -7.4786   -0.1586    5.7728 H   0  0  0  0  0  0  0  0  0  0  0  0
   -5.7514    1.2413    5.0344 H   0  0  0  0  0  0  0  0  0  0  0  0
   -6.7478    7.2951    5.6191 H   0  0  0  0  0  0  0  0  0  0  0  0
   -5.0663    7.4419    6.1662 H   0  0  0  0  0  0  0  0  0  0  0  0
   -6.6118    7.2610    8.1029 H   0  0  0  0  0  0  0  0  0  0  0  0
   -5.5409    5.8570    8.0349 H   0  0  0  0  0  0  0  0  0  0  0  0
   -7.2166    5.7178    7.4926 H   0  0  0  0  0  0  0  0  0  0  0  0
    2.6340   -3.4872    1.5588 H   0  0  0  0  0  0  0  0  0  0  0  0
    3.2941   -1.8509    1.4657 H   0  0  0  0  0  0  0  0  0  0  0  0
    3.4294   -1.7465    3.9504 H   0  0  0  0  0  0  0  0  0  0  0  0
    2.7790   -3.3865    4.0588 H   0  0  0  0  0  0  0  0  0  0  0  0
    4.3562   -3.1096    3.3127 H   0  0  0  0  0  0  0  0  0  0  0  0
    0.7071    1.8359    2.0731 H   0  0  0  0  0  0  0  0  0  0  0  0
    2.6270    3.4348    2.6194 H   0  0  0  0  0  0  0  0  0  0  0  0
    8.6818    2.2322    3.5100 H   0  0  0  0  0  0  0  0  0  0  0  0
    8.0156    0.5878    3.5061 H   0  0  0  0  0  0  0  0  0  0  0  0
   10.1339    0.7290    2.1880 H   0  0  0  0  0  0  0  0  0  0  0  0
    8.7678    0.2713    1.1659 H   0  0  0  0  0  0  0  0  0  0  0  0
    9.3861    1.9245    1.1183 H   0  0  0  0  0  0  0  0  0  0  0  0
   -0.5401   10.3456   -2.6275 H   0  0  0  0  0  0  0  0  0  0  0  0
   -1.0018    9.5781   -4.1593 H   0  0  0  0  0  0  0  0  0  0  0  0
    1.6059   11.0984   -3.6589 H   0  0  0  0  0  0  0  0  0  0  0  0
    0.2154   11.7106   -4.5616 H   0  0  0  0  0  0  0  0  0  0  0  0
    1.1382   10.3393   -5.1842 H   0  0  0  0  0  0  0  0  0  0  0  0
    4.3105    6.3489   -3.5589 H   0  0  0  0  0  0  0  0  0  0  0  0
    8.3723    3.7820   -3.4325 H   0  0  0  0  0  0  0  0  0  0  0  0
   12.3250    2.4036   -1.2615 H   0  0  0  0  0  0  0  0  0  0  0  0
   13.5255    1.4933   -2.1982 H   0  0  0  0  0  0  0  0  0  0  0  0
   11.3740    0.2617   -0.4020 H   0  0  0  0  0  0  0  0  0  0  0  0
   12.5836   -0.6425   -1.3190 H   0  0  0  0  0  0  0  0  0  0  0  0
   13.0878    0.4119    0.0049 H   0  0  0  0  0  0  0  0  0  0  0  0
   -0.3447   -0.0044   -7.1153 H   0  0  0  0  0  0  0  0  0  0  0  0
    0.7358   -0.3548   -8.4785 H   0  0  0  0  0  0  0  0  0  0  0  0
   -0.2803    2.4221   -7.6946 H   0  0  0  0  0  0  0  0  0  0  0  0
   -0.8670    1.4592   -9.0547 H   0  0  0  0  0  0  0  0  0  0  0  0
    0.7905    2.0727   -9.0552 H   0  0  0  0  0  0  0  0  0  0  0  0
    4.7283   -1.6002   -6.1161 H   0  0  0  0  0  0  0  0  0  0  0  0
    4.3669   -8.9641   -4.6751 H   0  0  0  0  0  0  0  0  0  0  0  0
    2.1726   -8.6763   -3.7273 H   0  0  0  0  0  0  0  0  0  0  0  0
    3.9379   -5.2792   -3.0754 H   0  0  0  0  0  0  0  0  0  0  0  0
    7.6166   -0.7074   -2.5022 H   0  0  0  0  0  0  0  0  0  0  0  0
    7.5496   -0.6133   -0.7452 H   0  0  0  0  0  0  0  0  0  0  0  0
    5.7781    1.1652   -0.9357 H   0  0  0  0  0  0  0  0  0  0  0  0
    5.8979    1.0767   -2.6894 H   0  0  0  0  0  0  0  0  0  0  0  0
    7.2745    1.6434   -1.7373 H   0  0  0  0  0  0  0  0  0  0  0  0
   -5.6887   -6.3674   -1.2125 H   0  0  0  0  0  0  0  0  0  0  0  0
   -6.1622   -4.6881   -1.4393 H   0  0  0  0  0  0  0  0  0  0  0  0
   -4.9607   -4.0512    0.6598 H   0  0  0  0  0  0  0  0  0  0  0  0
   -6.1901   -5.2762    0.9730 H   0  0  0  0  0  0  0  0  0  0  0  0
   -4.4848   -5.7294    0.9004 H   0  0  0  0  0  0  0  0  0  0  0  0
   -2.0680   -1.6302   -1.8088 H   0  0  0  0  0  0  0  0  0  0  0  0
   -0.7835    0.4789   -0.9818 H   0  0  0  0  0  0  0  0  0  0  0  0
  1  2  2  0  0  0  0
  2  3  1  0  0  0  0
  3  4  2  0  0  0  0
  4  5  1  0  0  0  0
  5  6  1  0  0  0  0
  6  7  1  0  0  0  0
  7  8  1  0  0  0  0
  8  9  1  0  0  0  0
  7 10  2  0  0  0  0
 10 11  1  0  0  0  0
 10 12  1  0  0  0  0
 12 13  1  0  0  0  0
  4 14  1  0  0  0  0
 14 15  2  0  0  0  0
 15 16  1  0  0  0  0
 16 17  1  0  0  0  0
 17 18  1  0  0  0  0
 18 19  1  0  0  0  0
 19 20  1  0  0  0  0
 20 21  1  0  0  0  0
 19 22  2  0  0  0  0
 22 23  1  0  0  0  0
 23 24  1  0  0  0  0
 22 25  1  0  0  0  0
 16 26  2  0  0  0  0
 26 27  1  0  0  0  0
 15 28  1  0  0  0  0
 28 29  2  0  0  0  0
 29 30  1  0  0  0  0
 29 31  1  0  0  0  0
 31 32  2  0  0  0  0
 32 33  1  0  0  0  0
 33 34  2  0  0  0  0
 34 35  1  0  0  0  0
 35 36  1  0  0  0  0
 36 37  1  0  0  0  0
 37 38  1  0  0  0  0
 38 39  1  0  0  0  0
 37 40  2  0  0  0  0
 40 41  1  0  0  0  0
 40 42  1  0  0  0  0
 42 43  1  0  0  0  0
 34 44  1  0  0  0  0
 44 45  2  0  0  0  0
 45 46  1  0  0  0  0
 46 47  1  0  0  0  0
 47 48  1  0  0  0  0
 48 49  1  0  0  0  0
 49 50  1  0  0  0  0
 50 51  1  0  0  0  0
 49 52  2  0  0  0  0
 52 53  1  0  0  0  0
 53 54  1  0  0  0  0
 52 55  1  0  0  0  0
 46 56  2  0  0  0  0
 56 57  1  0  0  0  0
 45 58  1  0  0  0  0
 58 59  2  0  0  0  0
 59 60  1  0  0  0  0
 59 61  1  0  0  0  0
 61 62  2  0  0  0  0
 62 63  1  0  0  0  0
 63 64  2  0  0  0  0
 64 65  1  0  0  0  0
 65 66  1  0  0  0  0
 66 67  1  0  0  0  0
 67 68  1  0  0  0  0
 68 69  1  0  0  0  0
 67 70  2  0  0  0  0
 70 71  1  0  0  0  0
 70 72  1  0  0  0  0
 72 73  1  0  0  0  0
 64 74  1  0  0  0  0
 74 75  2  0  0  0  0
 75 76  1  0  0  0  0
 76 77  1  0  0  0  0
 77 78  1  0  0  0  0
 78 79  1  0  0  0  0
 79 80  1  0  0  0  0
 80 81  1  0  0  0  0
 79 82  2  0  0  0  0
 82 83  1  0  0  0  0
 83 84  1  0  0  0  0
 82 85  1  0  0  0  0
 76 86  2  0  0  0  0
 86 87  1  0  0  0  0
 75 88  1  0  0  0  0
 88 89  2  0  0  0  0
 89 90  1  0  0  0  0
 89 91  1  0  0  0  0
 91 92  2  0  0  0  0
 92 93  1  0  0  0  0
 93 94  2  0  0  0  0
 94 95  1  0  0  0  0
 95 96  1  0  0  0  0
 96 97  1  0  0  0  0
 97 98  1  0  0  0  0
 98 99  1  0  0  0  0
 97100  2  0  0  0  0
100101  1  0  0  0  0
100102  1  0  0  0  0
102103  1  0  0  0  0
 94104  1  0  0  0  0
104105  2  0  0  0  0
105106  1  0  0  0  0
106107  1  0  0  0  0
107108  1  0  0  0  0
108109  1  0  0  0  0
109110  1  0  0  0  0
110111  1  0  0  0  0
109112  2  0  0  0  0
112113  1  0  0  0  0
113114  1  0  0  0  0
112115  1  0  0  0  0
106116  2  0  0  0  0
116117  1  0  0  0  0
105118  1  0  0  0  0
118119  2  0  0  0  0
119120  1  0  0  0  0
119121  1  0  0  0  0
121122  3  0  0  0  0
122123  1  0  0  0  0
123124  3  0  0  0  0
124125  1  0  0  0  0
125126  2  0  0  0  0
126127  1  0  0  0  0
127128  2  0  0  0  0
128129  1  0  0  0  0
129130  2  0  0  0  0
130131  1  0  0  0  0
131132  1  0  0  0  0
132133  1  0  0  0  0
133134  1  0  0  0  0
134135  1  0  0  0  0
133136  2  0  0  0  0
136137  1  0  0  0  0
136138  1  0  0  0  0
138139  1  0  0  0  0
130140  1  0  0  0  0
140141  2  0  0  0  0
141142  1  0  0  0  0
142143  1  0  0  0  0
143144  1  0  0  0  0
144145  1  0  0  0  0
145146  1  0  0  0  0
146147  1  0  0  0  0
145148  2  0  0  0  0
148149  1  0  0  0  0
149150  1  0  0  0  0
148151  1  0  0  0  0
142152  2  0  0  0  0
152153  1  0  0  0  0
141154  1  0  0  0  0
154155  2  0  0  0  0
155156  1  0  0  0  0
 27  1  1  0  0  0  0
 57 31  1  0  0  0  0
 87 61  1  0  0  0  0
117 91  1  0  0  0  0
153127  1  0  0  0  0
 26  3  1  0  0  0  0
 56 33  1  0  0  0  0
 86 63  1  0  0  0  0
116 93  1  0  0  0  0
152129  1  0  0  0  0
 12  5  2  0  0  0  0
 30 14  1  0  0  0  0
 42 35  2  0  0  0  0
 60 44  1  0  0  0  0
 72 65  2  0  0  0  0
 90 74  1  0  0  0  0
102 95  2  0  0  0  0
120104  1  0  0  0  0
138131  2  0  0  0  0
156140  1  0  0  0  0
 23 17  2  0  0  0  0
 53 47  2  0  0  0  0
 83 77  2  0  0  0  0
113107  2  0  0  0  0
149143  2  0  0  0  0
  1157  1  0  0  0  0
  2158  1  0  0  0  0
  8159  1  0  0  0  0
  8160  1  0  0  0  0
  9161  1  0  0  0  0
  9162  1  0  0  0  0
  9163  1  0  0  0  0
 20164  1  0  0  0  0
 20165  1  0  0  0  0
 21166  1  0  0  0  0
 21167  1  0  0  0  0
 21168  1  0  0  0  0
 28169  1  0  0  0  0
 32170  1  0  0  0  0
 38171  1  0  0  0  0
 38172  1  0  0  0  0
 39173  1  0  0  0  0
 39174  1  0  0  0  0
 39175  1  0  0  0  0
 50176  1  0  0  0  0
 50177  1  0  0  0  0
 51178  1  0  0  0  0
 51179  1  0  0  0  0
 51180  1  0  0  0  0
 58181  1  0  0  0  0
 62182  1  0  0  0  0
 68183  1  0  0  0  0
 68184  1  0  0  0  0
 69185  1  0  0  0  0
 69186  1  0  0  0  0
 69187  1  0  0  0  0
 80188  1  0  0  0  0
 80189  1  0  0  0  0
 81190  1  0  0  0  0
 81191  1  0  0  0  0
 81192  1  0  0  0  0
 88193  1  0  0  0  0
 92194  1  0  0  0  0
 98195  1  0  0  0  0
 98196  1  0  0  0  0
 99197  1  0  0  0  0
 99198  1  0  0  0  0
 99199  1  0  0  0  0
110200  1  0  0  0  0
110201  1  0  0  0  0
111202  1  0  0  0  0
111203  1  0  0  0  0
111204  1  0  0  0  0
118205  1  0  0  0  0
125206  1  0  0  0  0
126207  1  0  0  0  0
128208  1  0  0  0  0
134209  1  0  0  0  0
134210  1  0  0  0  0
135211  1  0  0  0  0
135212  1  0  0  0  0
135213  1  0  0  0  0
146214  1  0  0  0  0
146215  1  0  0  0  0
147216  1  0  0  0  0
147217  1  0  0  0  0
147218  1  0  0  0  0
154219  1  0  0  0  0
155220  1  0  0  0  0
M  END
