220

C        -12.05330       -5.05810        5.69180
C        -10.84870       -5.49840        5.27460
C         -9.85350       -4.47800        5.28230
C         -8.51250       -4.56900        4.87660
C         -7.95630       -5.79930        4.33510
S         -8.70620       -6.61420        2.99270
C         -7.49080       -7.84700        2.95650
C         -7.52700       -8.94000        1.94600
C         -6.93210       -8.48300        0.61260
C         -6.55900       -7.61750        3.92370
Cl        -5.19630       -8.62360        4.19710
C         -6.82030       -6.46150        4.70890
Cl        -5.84060       -6.02150        6.04390
C         -7.74510       -3.41420        4.97300
C         -8.26420       -2.18670        5.45270
C         -9.60760       -2.09230        5.85330
C        -10.16720       -0.82070        6.28160
S         -9.99640        0.60110        5.28970
C        -10.86860        1.58870        6.41010
C        -11.13070        3.02590        6.12390
C        -12.33330        3.18950        5.19180
C        -11.27250        0.84480        7.47820
C        -10.87500       -0.51860        7.41140
Cl       -11.18540       -1.62490        8.68250
Cl       -12.16490        1.47610        8.80100
C        -10.37200       -3.24970        5.76110
S        -12.06600       -3.38790        6.13400
C         -7.29420       -1.15650        5.42370
C         -6.09750       -1.55070        4.90180
S         -6.09320       -3.24160        4.45610
C         -4.97700       -0.71580        4.60910
C         -4.94560        0.64830        4.64710
C         -3.76240        1.19920        4.10220
C         -3.44900        2.56080        3.93880
C         -4.40810        3.59080        4.29920
S         -3.97250        4.90460        5.35180
C         -5.56820        5.57180        5.31010
C         -5.92640        6.77290        6.11350
C         -6.35180        6.37560        7.52930
C         -6.37870        4.80930        4.52310
Cl        -8.03830        5.14680        4.24950
C         -5.72480        3.69230        3.93910
Cl        -6.51640        2.64610        2.82840
C         -2.19880        2.85550        3.41250
C         -1.27860        1.85150        3.02480
C         -1.61090        0.48730        3.12940
C         -0.70270       -0.54580        2.66220
S          0.99520       -0.51600        3.05400
C          1.31360       -1.97770        2.18690
C          2.69030       -2.52880        2.07680
C          3.35590       -2.70410        3.43930
C          0.16080       -2.46130        1.64530
C         -0.97630       -1.64690        1.89520
Cl        -2.49070       -1.97460        1.17480
Cl         0.06500       -3.93240        0.76160
C         -2.85460        0.19420        3.67940
S         -3.49840       -1.39280        3.97660
C         -0.10560        2.41400        2.46940
C         -0.11620        3.77510        2.41890
S         -1.59080        4.45340        3.06140
C          0.95710        4.51110        1.81170
C          2.26660        4.15060        1.90390
C          3.09060        4.76930        0.93300
C          4.42110        4.45840        0.62180
C          5.15790        3.40020        1.30380
S          6.73300        3.66000        1.98210
C          6.94890        1.97670        2.32120
C          8.22620        1.46180        2.88660
C          9.19330        1.07190        1.76530
C          5.85520        1.26820        1.92290
Cl         5.72450       -0.43800        2.04700
C          4.83250        2.07270        1.35090
Cl         3.38620        1.40340        0.69870
C          4.94020        5.01010       -0.53810
C          4.17740        5.80680       -1.42720
C          2.86960        6.17540       -1.07570
C          2.01830        6.91880       -2.00030
S          1.46180        8.52480       -1.65240
C          0.57110        8.61540       -3.13410
C         -0.15830        9.85350       -3.52330
C          0.76120       10.81370       -4.28180
C          0.71150        7.46080       -3.84410
C          1.52800        6.49140       -3.20070
Cl         1.81710        4.92680       -3.84810
Cl        -0.02650        7.17690       -5.36640
C          2.35790        5.65360        0.10420
S          0.68740        5.74510        0.59640
C          4.77890        5.87810       -2.71350
C          5.92060        5.14240       -2.81870
S          6.44710        4.51730       -1.25350
C          6.38170        4.38290       -3.94540
C          7.48900        3.58870       -4.01380
C          7.28860        2.40310       -4.76870
C          8.11050        1.26500       -4.83420
C          9.47520        1.24870       -4.32990
S          9.87850        1.72400       -2.70520
C         11.55000        1.32950       -2.91550
C         12.51390        1.46710       -1.78990
C         12.38060        0.29740       -0.81200
C         11.76790        0.85440       -4.17330
Cl        13.30320        0.36230       -4.76090
C         10.59530        0.80500       -4.97580
Cl        10.62040        0.29850       -6.61340
C          7.52560        0.08980       -5.29810
C          6.17030        0.01090       -5.70080
C          5.37550        1.16860       -5.72020
C          3.93760        1.08590       -5.95060
S          3.25740        0.57380       -7.46300
C          1.63870        0.66700       -6.85650
C          0.46540        0.39240       -7.73070
C         -0.00350        1.67090       -8.43000
C          1.64430        1.07360       -5.55610
C          2.94500        1.31230       -5.03710
Cl         3.20000        1.77880       -3.40760
Cl         0.22980        1.25710       -4.60160
C          5.96710        2.34010       -5.28400
S          5.10740        3.82960       -5.02980
C          5.73360       -1.32410       -5.85510
C          6.70190       -2.24470       -5.57040
S          8.24260       -1.49600       -5.18040
C          6.47800       -3.60720       -5.46440
C          6.11000       -4.75320       -5.27750
C          5.54730       -5.94440       -5.01950
C          4.87540       -6.91310       -4.71110
C          4.02900       -7.97260       -4.40270
C          2.80900       -7.80950       -3.84330
C          2.24880       -6.56500       -3.40610
C          2.87200       -5.40100       -3.06190
C          1.98390       -4.37110       -2.66530
C          2.30420       -3.09050       -2.18380
C          3.67610       -2.70860       -1.89130
S          4.36090       -1.21980       -2.46920
C          5.84590       -1.47900       -1.62010
C          6.95880       -0.48970       -1.65550
C          6.44650        0.94010       -1.76090
C          5.80060       -2.66120       -0.94340
Cl         7.08520       -3.25200        0.02820
C          4.57670       -3.36310       -1.09700
Cl         4.25870       -4.84220       -0.28610
C          1.24220       -2.23240       -1.92520
C         -0.11080       -2.61550       -2.07810
C         -0.43240       -3.92190       -2.47910
C         -1.80860       -4.39670       -2.48290
S         -2.75620       -4.31630       -1.02990
C         -4.11170       -5.08290       -1.77030
C         -5.38030       -5.33460       -1.02690
C         -5.24610       -5.08340        0.46960
C         -3.83150       -5.37900       -3.07230
C         -2.52620       -4.99680       -3.47920
Cl        -1.95630       -5.20830       -5.08250
Cl        -4.94900       -6.14390       -4.12820
C          0.62810       -4.76890       -2.77400
S          0.50260       -6.43470       -3.25340
C         -0.99880       -1.55530       -1.73220
C         -0.35550       -0.45070       -1.30420
S          1.36650       -0.61070       -1.30270
H        -12.96390       -5.61780        5.78020
H        -10.65820       -6.51110        4.97110
H         -6.95540       -9.78650        2.33070
H         -8.56030       -9.25630        1.79180
H         -5.89750       -8.17920        0.74860
H         -6.96610       -9.29510       -0.10860
H         -7.49760       -7.64170        0.21860
H        -10.24950        3.46930        5.65640
H        -11.32410        3.54050        7.06690
H        -13.22430        2.76370        5.64660
H        -12.14870        2.68380        4.24700
H        -12.51110        4.24310        4.99470
H         -7.47860       -0.15860        5.77280
H         -5.75140        1.24130        5.03440
H         -6.74780        7.29510        5.61910
H         -5.06630        7.44190        6.16620
H         -6.61180        7.26100        8.10290
H         -5.54090        5.85700        8.03490
H         -7.21660        5.71780        7.49260
H          2.63400       -3.48720        1.55880
H          3.29410       -1.85090        1.46570
H          3.42940       -1.74650        3.95040
H          2.77900       -3.38650        4.05880
H          4.35620       -3.10960        3.31270
H          0.70710        1.83590        2.07310
H          2.62700        3.43480        2.61940
H          8.68180        2.23220        3.51000
H          8.01560        0.58780        3.50610
H         10.13390        0.72900        2.18800
H          8.76780        0.27130        1.16590
H          9.38610        1.92450        1.11830
H         -0.54010       10.34560       -2.62750
H         -1.00180        9.57810       -4.15930
H          1.60590       11.09840       -3.65890
H          0.21540       11.71060       -4.56160
H          1.13820       10.33930       -5.18420
H          4.31050        6.34890       -3.55890
H          8.37230        3.78200       -3.43250
H         12.32500        2.40360       -1.26150
H         13.52550        1.49330       -2.19820
H         11.37400        0.26170       -0.40200
H         12.58360       -0.64250       -1.31900
H         13.08780        0.41190        0.00490
H         -0.34470       -0.00440       -7.11530
H          0.73580       -0.35480       -8.47850
H         -0.28030        2.42210       -7.69460
H         -0.86700        1.45920       -9.05470
H          0.79050        2.07270       -9.05520
H          4.72830       -1.60020       -6.11610
H          4.36690       -8.96410       -4.67510
H          2.17260       -8.67630       -3.72730
H          3.93790       -5.27920       -3.07540
H          7.61660       -0.70740       -2.50220
H          7.54960       -0.61330       -0.74520
H          5.77810        1.16520       -0.93570
H          5.89790        1.07670       -2.68940
H          7.27450        1.64340       -1.73730
H         -5.68870       -6.36740       -1.21250
H         -6.16220       -4.68810       -1.43930
H         -4.96070       -4.05120        0.65980
H         -6.19010       -5.27620        0.97300
H         -4.48480       -5.72940        0.90040
H         -2.06800       -1.63020       -1.80880
H         -0.78350        0.47890       -0.98180
