220

C          5.54360       -4.97800       11.14410
C          5.42340       -3.63580       11.09760
C          4.69090       -3.18510        9.96050
C          4.38330       -1.86570        9.59120
C          4.84850       -0.72860       10.37070
S          6.53940       -0.49730       10.70460
C          6.24990        0.97650       11.56400
C          7.37330        1.78370       12.11460
C          7.90420        2.76510       11.06670
C          4.91740        1.26150       11.57730
Cl         4.24360        2.64200       12.34140
C          4.11970        0.29710       10.90410
Cl         2.40960        0.39180       10.85180
C          3.63540       -1.69200        8.43390
C          3.19020       -2.77850        7.64080
C          3.52070       -4.09670        7.99350
C          3.12330       -5.21550        7.15470
S          2.26770       -6.57740        7.81560
C          2.16970       -7.36230        6.27760
C          1.44820       -8.65370        6.10950
C         -0.02730       -8.41410        5.77950
C          2.76690       -6.60110        5.31760
C          3.31340       -5.38580        5.81000
Cl         4.18740       -4.30250        4.80300
Cl         2.86730       -7.05610        3.66840
C          4.25030       -4.26780        9.16350
S          4.77910       -5.79030        9.82210
C          2.44020       -2.34030        6.52410
C          2.35660       -0.98400        6.42020
S          3.16950       -0.16520        7.73580
C          1.75360       -0.26310        5.34840
C          1.58850        1.07980        5.19170
C          1.04030        1.43610        3.93270
C          0.74010        2.72060        3.44480
C          1.05800        3.91430        4.20800
S         -0.12460        5.16150        4.47140
C          0.99270        6.14410        5.35410
C          0.57130        7.43680        5.96010
C         -0.11570        7.21160        7.30910
C          2.20550        5.52760        5.43280
Cl         3.57020        6.19810        6.22890
C          2.25000        4.26600        4.78110
Cl         3.69590        3.34830        4.67120
C          0.16320        2.79420        2.18270
C         -0.05060        1.65850        1.36370
C          0.20670        0.36910        1.86270
C         -0.14090       -0.84010        1.13830
S          0.92610       -2.21800        1.12900
C         -0.22000       -3.20710        0.29200
C          0.05460       -4.64430        0.02190
C          0.09580       -5.44940        1.32180
C         -1.34960       -2.49400        0.02660
C         -1.31300       -1.15560        0.50210
Cl        -2.67770       -0.12450        0.36950
Cl        -2.71510       -3.13990       -0.78920
C          0.76450        0.29830        3.13490
S          1.19910       -1.17010        3.95580
C         -0.51390        2.02600        0.07630
C         -0.73510        3.36120       -0.06220
S         -0.32980        4.25930        1.37870
C         -1.29280        3.95110       -1.25010
C         -0.93330        3.63050       -2.52050
C         -1.82730        4.12290       -3.50280
C         -1.80230        3.87130       -4.88490
C         -0.68210        3.21510       -5.53400
S         -0.00300        1.73660       -4.92680
C          1.19260        1.67590       -6.17300
C          2.18930        0.57110       -6.20360
C          1.52200       -0.77010       -6.50550
C          1.03890        2.72750       -7.02560
Cl         2.03910        3.01210       -8.39110
C         -0.02740        3.59830       -6.67160
Cl        -0.38980        5.02470       -7.55030
C         -2.97580        4.14010       -5.57790
C         -4.10360        4.74990       -4.97940
C         -4.01440        5.25030       -3.66110
C         -5.07300        6.06540       -3.11070
S         -5.61360        5.92250       -1.46300
C         -6.78690        7.17720       -1.65200
C         -7.71120        7.53780       -0.54260
C         -8.91820        6.59680       -0.51340
C         -6.74890        7.67610       -2.92060
C         -5.77760        7.05670       -3.74780
Cl        -5.47460        7.59510       -5.34910
Cl        -7.76150        8.94490       -3.47990
C         -2.90220        4.84400       -2.92800
S         -2.70600        4.98810       -1.20020
C         -5.28150        4.54230       -5.74280
C         -5.06860        3.79030       -6.86100
S         -3.35780        3.45140       -7.12840
C         -5.97230        3.08010       -7.63680
C         -6.57920        2.20660       -8.23290
C         -7.16620        1.14260       -8.80650
C         -7.53730        0.05710       -9.21910
C         -7.86860       -1.19370       -9.73510
C         -7.26140       -2.34170       -9.36070
C         -6.27650       -2.44710       -8.32330
C         -6.10950       -1.65440       -7.22670
C         -4.99060       -1.99860       -6.43000
C         -4.52200       -1.34560       -5.27080
C         -5.39060       -0.40340       -4.58990
S         -7.07160       -0.82870       -4.37480
C         -7.43050        0.63420       -3.52870
C         -8.79070        0.91240       -2.99200
C         -8.94640        0.34900       -1.57730
C         -6.30430        1.39050       -3.41010
Cl        -6.25710        2.92590       -2.64600
C         -5.15110        0.80670       -3.99910
Cl        -3.65590        1.63240       -4.00130
C         -3.26090       -1.72250       -4.81380
C         -2.53600       -2.81000       -5.37280
C         -3.06950       -3.53610       -6.45210
C         -2.39200       -4.69410       -7.01610
S         -3.20360       -6.22830       -7.12700
C         -1.83940       -6.98550       -7.87410
C         -1.84820       -8.43360       -8.22060
C         -1.35380       -9.28220       -7.04670
C         -0.82110       -6.09100       -8.01610
C         -1.13240       -4.79040       -7.53670
Cl        -0.04680       -3.46950       -7.68430
Cl         0.69720       -6.47360       -8.71910
C         -4.27540       -3.09010       -6.97500
S         -5.06220       -3.71460       -8.39640
C         -1.29990       -3.02360       -4.71180
C         -1.05090       -2.11450       -3.72700
S         -2.37250       -0.99650       -3.50950
C          0.15280       -1.93970       -2.97120
C          1.10930       -2.85990       -2.67000
C          2.20820       -2.32010       -1.95170
C          3.31320       -2.99630       -1.40950
C          3.42960       -4.44450       -1.43610
S          3.31470       -5.37480       -2.90000
C          3.53970       -6.87160       -2.05970
C          3.60660       -8.16600       -2.79170
C          5.03570       -8.45590       -3.25720
C          3.69610       -6.64630       -0.72470
Cl         3.92340       -7.88810        0.43660
C          3.63450       -5.27330       -0.36510
Cl         3.71190       -4.74190        1.26140
C          4.28980       -2.21900       -0.79620
C          4.18680       -0.81550       -0.65920
C          3.02210       -0.15450       -1.08620
C          2.87400        1.27490       -0.87060
S          2.50350        2.36660       -2.17280
C          2.68680        3.76840       -1.17120
C          2.62690        5.13770       -1.76090
C          1.54490        6.03080       -1.15520
C          2.98090        3.39200        0.10620
C          3.09000        1.98550        0.27840
Cl         3.44460        1.27700        1.79970
Cl         3.25890        4.48200        1.40210
C          2.07110       -0.92500       -1.74340
S          0.56050       -0.34360       -2.37760
C          5.37850       -0.25600       -0.11230
C          6.31310       -1.18640        0.16960
S          5.81950       -2.79870       -0.20390
H          6.04140       -5.56860       11.88790
H          5.83140       -2.97460       11.83960
H          8.17790        1.11720       12.42970
H          7.01460        2.33760       12.98430
H          8.72350        3.34640       11.48090
H          8.26390        2.22640       10.19330
H          7.11600        3.44540       10.75480
H          1.52760       -9.23480        7.02940
H          1.91570       -9.21470        5.29780
H         -0.54220       -9.36340        5.65970
H         -0.11880       -7.84790        4.85610
H         -0.50630       -7.85510        6.57970
H          1.97210       -3.00140        5.81800
H          1.84740        1.78680        5.95850
H         -0.11650        7.94650        5.28320
H          1.45510        8.06220        6.09910
H          0.56150        6.71380        7.99860
H         -1.00050        6.59230        7.18220
H         -0.41370        8.16360        7.73990
H         -0.72840       -5.02960       -0.63360
H          1.01470       -4.74390       -0.48610
H          0.86710       -5.05790        1.98010
H         -0.86100       -5.39320        1.83540
H          0.31860       -6.49150        1.10770
H         -0.69310        1.32890       -0.71970
H         -0.07750        3.02130       -2.74080
H          2.68870        0.51500       -5.23250
H          2.93640        0.79600       -6.96620
H          1.04130       -0.73880       -7.48030
H          0.76740       -0.99540       -5.75500
H          2.26050       -1.56760       -6.50480
H         -8.05050        8.56520       -0.68690
H         -7.17790        7.47340        0.40740
H         -9.46860        6.66120       -1.44880
H         -8.59000        5.56970       -0.37250
H         -9.58370        6.86700        0.30200
H         -6.26330        4.83290       -5.41500
H         -8.61650       -1.21360      -10.51780
H         -7.49270       -3.25340       -9.89400
H         -6.76370       -0.83300       -7.00740
H         -8.94440        1.99310       -2.97290
H         -9.53740        0.46230       -3.64800
H         -8.21410        0.79750       -0.91100
H         -9.94170        0.56330       -1.19770
H         -8.79830       -0.72820       -1.58210
H         -2.86240       -8.73490       -8.48670
H         -1.19740       -8.59140       -9.08290
H         -1.99600       -9.13950       -6.18100
H         -0.33930       -8.99830       -6.77860
H         -1.36120      -10.33430       -7.31810
H         -0.60380       -3.79340       -4.98760
H          1.02840       -3.89410       -2.94760
H          2.94260       -8.12900       -3.65700
H          3.27180       -8.96260       -2.12460
H          5.70710       -8.50220       -2.40370
H          5.07180       -9.40690       -3.78150
H          5.38030       -7.67320       -3.92890
H          3.60010        5.61400       -1.60590
H          2.46360        5.04390       -2.83610
H          1.67300        6.12010       -0.08100
H          0.55780        5.62590       -1.35520
H          1.60680        7.02260       -1.59530
H          5.53040        0.79710        0.03370
H          7.29060       -1.03280        0.58330
