
  xtb     03032209293D
 energy: -402.621348519626 gnorm: 0.000354839061 xtb: 6.4.1 (unknown)
230253  0     0  0            999 V2000
    1.3036    3.1606   10.7624 C   0  0  0  0  0  0  0  0  0  0  0  0
    1.7919    2.1878   11.5584 C   0  0  0  0  0  0  0  0  0  0  0  0
    1.3365    0.8880   11.1878 C   0  0  0  0  0  0  0  0  0  0  0  0
    1.6212   -0.3433   11.7986 C   0  0  0  0  0  0  0  0  0  0  0  0
    2.5633   -0.4509   12.9194 C   0  0  0  0  0  0  0  0  0  0  0  0
    2.2145   -1.1171   14.0931 C   0  0  0  0  0  0  0  0  0  0  0  0
    3.1153   -1.2329   15.1286 C   0  0  0  0  0  0  0  0  0  0  0  0
    4.3977   -0.6893   15.0440 C   0  0  0  0  0  0  0  0  0  0  0  0
    5.4346   -0.8828   16.4585 S   0  0  0  0  0  0  0  0  0  0  0  0
    7.1448   -0.8662   15.7861 C   0  0  0  0  0  0  0  0  0  0  0  0
    8.0649   -1.5419   16.7838 C   0  0  0  0  0  0  0  0  0  0  0  0
    4.7235   -0.0073   13.8755 C   0  0  0  0  0  0  0  0  0  0  0  0
    5.9326    0.5822   13.7238 F   0  0  0  0  0  0  0  0  0  0  0  0
    3.8349    0.1040   12.8251 C   0  0  0  0  0  0  0  0  0  0  0  0
    0.9823   -1.4551   11.2758 C   0  0  0  0  0  0  0  0  0  0  0  0
    0.0888   -1.4080   10.1756 C   0  0  0  0  0  0  0  0  0  0  0  0
   -0.1734   -0.1785    9.5494 C   0  0  0  0  0  0  0  0  0  0  0  0
   -1.0598   -0.0541    8.3843 C   0  0  0  0  0  0  0  0  0  0  0  0
   -2.3765   -0.5101    8.4065 C   0  0  0  0  0  0  0  0  0  0  0  0
   -3.1877   -0.3535    7.3057 C   0  0  0  0  0  0  0  0  0  0  0  0
   -2.7322    0.2486    6.1286 C   0  0  0  0  0  0  0  0  0  0  0  0
   -3.9257    0.3227    4.8303 S   0  0  0  0  0  0  0  0  0  0  0  0
   -3.2048    1.2201    3.4071 C   0  0  0  0  0  0  0  0  0  0  0  0
   -2.3439    0.3404    2.5231 C   0  0  0  0  0  0  0  0  0  0  0  0
   -1.4194    0.7043    6.1288 C   0  0  0  0  0  0  0  0  0  0  0  0
   -0.5978    0.5644    7.2293 C   0  0  0  0  0  0  0  0  0  0  0  0
   -0.8754    1.3130    5.0469 F   0  0  0  0  0  0  0  0  0  0  0  0
    0.4648    0.9374   10.0756 C   0  0  0  0  0  0  0  0  0  0  0  0
    0.2615    2.5767    9.5108 S   0  0  0  0  0  0  0  0  0  0  0  0
   -0.3745   -2.6980    9.8096 C   0  0  0  0  0  0  0  0  0  0  0  0
    0.1457   -3.7070   10.5697 C   0  0  0  0  0  0  0  0  0  0  0  0
    1.2265   -3.0961   11.8193 S   0  0  0  0  0  0  0  0  0  0  0  0
   -0.0429   -5.1051   10.4421 C   0  0  0  0  0  0  0  0  0  0  0  0
   -1.1130   -5.7870    9.2285 S   0  0  0  0  0  0  0  0  0  0  0  0
   -0.7182   -7.4544    9.6239 C   0  0  0  0  0  0  0  0  0  0  0  0
    0.1956   -7.4509   10.6673 C   0  0  0  0  0  0  0  0  0  0  0  0
    0.5539   -6.1481   11.1198 C   0  0  0  0  0  0  0  0  0  0  0  0
    1.4521   -6.3554   12.1318 N   0  0  0  0  0  0  0  0  0  0  0  0
    1.5902   -7.7141   12.2389 C   0  0  0  0  0  0  0  0  0  0  0  0
    0.8724   -8.3924   11.3988 N   0  0  0  0  0  0  0  0  0  0  0  0
   -1.2325   -8.5347    8.8743 C   0  0  0  0  0  0  0  0  0  0  0  0
   -2.1760   -8.3364    7.9162 C   0  0  0  0  0  0  0  0  0  0  0  0
   -2.6395   -9.1940    6.9005 C   0  0  0  0  0  0  0  0  0  0  0  0
   -3.6978   -8.4407    5.7202 S   0  0  0  0  0  0  0  0  0  0  0  0
   -3.6012   -9.7530    4.5583 C   0  0  0  0  0  0  0  0  0  0  0  0
   -2.8609  -10.7743    5.1403 C   0  0  0  0  0  0  0  0  0  0  0  0
   -2.3386  -10.4614    6.4348 C   0  0  0  0  0  0  0  0  0  0  0  0
   -1.5995  -11.5573    6.7919 N   0  0  0  0  0  0  0  0  0  0  0  0
   -1.7060  -12.4418    5.7515 C   0  0  0  0  0  0  0  0  0  0  0  0
   -2.4310  -12.0192    4.7642 N   0  0  0  0  0  0  0  0  0  0  0  0
   -3.9868   -9.5007    3.2135 C   0  0  0  0  0  0  0  0  0  0  0  0
   -4.5245   -8.2903    2.9316 C   0  0  0  0  0  0  0  0  0  0  0  0
   -4.4751   -7.4425    1.7881 C   0  0  0  0  0  0  0  0  0  0  0  0
   -4.2076   -6.1199    2.0176 C   0  0  0  0  0  0  0  0  0  0  0  0
   -3.9221   -5.3729    0.8606 C   0  0  0  0  0  0  0  0  0  0  0  0
   -3.3829   -4.0773    0.8180 C   0  0  0  0  0  0  0  0  0  0  0  0
   -2.9294   -3.4698    2.0776 C   0  0  0  0  0  0  0  0  0  0  0  0
   -3.7677   -3.3225    3.1828 C   0  0  0  0  0  0  0  0  0  0  0  0
   -3.2417   -3.0659    4.4297 C   0  0  0  0  0  0  0  0  0  0  0  0
   -1.8664   -2.9331    4.6243 C   0  0  0  0  0  0  0  0  0  0  0  0
   -1.3167   -2.8141    6.2976 S   0  0  0  0  0  0  0  0  0  0  0  0
    0.3617   -3.5556    6.3314 C   0  0  0  0  0  0  0  0  0  0  0  0
    1.4427   -2.5016    6.4629 C   0  0  0  0  0  0  0  0  0  0  0  0
   -1.0633   -2.9249    3.4896 C   0  0  0  0  0  0  0  0  0  0  0  0
    0.2649   -2.6810    3.5759 F   0  0  0  0  0  0  0  0  0  0  0  0
   -1.5732   -3.2072    2.2378 C   0  0  0  0  0  0  0  0  0  0  0  0
   -3.1304   -3.5640   -0.4380 C   0  0  0  0  0  0  0  0  0  0  0  0
   -3.3766   -4.2809   -1.6381 C   0  0  0  0  0  0  0  0  0  0  0  0
   -3.8278   -5.6161   -1.5813 C   0  0  0  0  0  0  0  0  0  0  0  0
   -3.9827   -6.4250   -2.7950 C   0  0  0  0  0  0  0  0  0  0  0  0
   -5.1421   -7.1670   -3.0165 C   0  0  0  0  0  0  0  0  0  0  0  0
   -5.2778   -7.9350   -4.1521 C   0  0  0  0  0  0  0  0  0  0  0  0
   -4.2715   -7.9953   -5.1154 C   0  0  0  0  0  0  0  0  0  0  0  0
   -4.5932   -8.9762   -6.5503 S   0  0  0  0  0  0  0  0  0  0  0  0
   -2.9794   -9.7371   -6.9607 C   0  0  0  0  0  0  0  0  0  0  0  0
   -2.4249  -10.5510   -5.8090 C   0  0  0  0  0  0  0  0  0  0  0  0
   -3.1275   -7.2360   -4.8893 C   0  0  0  0  0  0  0  0  0  0  0  0
   -2.9711   -6.4749   -3.7488 C   0  0  0  0  0  0  0  0  0  0  0  0
   -2.1160   -7.2138   -5.7870 F   0  0  0  0  0  0  0  0  0  0  0  0
   -4.0846   -6.1373   -0.3203 C   0  0  0  0  0  0  0  0  0  0  0  0
   -4.4903   -7.8028    0.0742 S   0  0  0  0  0  0  0  0  0  0  0  0
   -3.0767   -3.4915   -2.7801 C   0  0  0  0  0  0  0  0  0  0  0  0
   -2.5972   -2.2499   -2.4755 C   0  0  0  0  0  0  0  0  0  0  0  0
   -2.5000   -1.9765   -0.7479 S   0  0  0  0  0  0  0  0  0  0  0  0
   -2.1607   -1.1926   -3.3306 C   0  0  0  0  0  0  0  0  0  0  0  0
   -2.0284   -1.1482   -4.6878 C   0  0  0  0  0  0  0  0  0  0  0  0
   -1.5242    0.0914   -5.1638 C   0  0  0  0  0  0  0  0  0  0  0  0
   -1.2025    0.4589   -6.4814 C   0  0  0  0  0  0  0  0  0  0  0  0
   -1.4667   -0.4250   -7.6227 C   0  0  0  0  0  0  0  0  0  0  0  0
   -2.7255   -0.9918   -7.8173 C   0  0  0  0  0  0  0  0  0  0  0  0
   -2.9812   -1.7677   -8.9275 C   0  0  0  0  0  0  0  0  0  0  0  0
   -1.9934   -2.0249   -9.8767 C   0  0  0  0  0  0  0  0  0  0  0  0
   -2.4319   -3.0461  -11.2519 S   0  0  0  0  0  0  0  0  0  0  0  0
   -1.5722   -2.2706  -12.6713 C   0  0  0  0  0  0  0  0  0  0  0  0
   -1.9500   -0.8129  -12.8412 C   0  0  0  0  0  0  0  0  0  0  0  0
   -0.7295   -1.4910   -9.6447 C   0  0  0  0  0  0  0  0  0  0  0  0
    0.2951   -1.7437  -10.4884 F   0  0  0  0  0  0  0  0  0  0  0  0
   -0.4669   -0.6898   -8.5527 C   0  0  0  0  0  0  0  0  0  0  0  0
   -0.6283    1.7099   -6.6578 C   0  0  0  0  0  0  0  0  0  0  0  0
   -0.3769    2.6167   -5.5966 C   0  0  0  0  0  0  0  0  0  0  0  0
   -0.7002    2.2531   -4.2808 C   0  0  0  0  0  0  0  0  0  0  0  0
   -0.4073    3.0877   -3.1099 C   0  0  0  0  0  0  0  0  0  0  0  0
    0.8638    3.6188   -2.8948 C   0  0  0  0  0  0  0  0  0  0  0  0
    1.1640    4.2646   -1.7141 C   0  0  0  0  0  0  0  0  0  0  0  0
    0.2127    4.4115   -0.7062 C   0  0  0  0  0  0  0  0  0  0  0  0
    0.6978    5.1876    0.8027 S   0  0  0  0  0  0  0  0  0  0  0  0
   -0.1981    4.1894    2.0639 C   0  0  0  0  0  0  0  0  0  0  0  0
    0.5990    4.1797    3.3522 C   0  0  0  0  0  0  0  0  0  0  0  0
   -1.0716    3.9408   -0.9646 C   0  0  0  0  0  0  0  0  0  0  0  0
   -1.3817    3.2807   -2.1345 C   0  0  0  0  0  0  0  0  0  0  0  0
   -2.0640    4.1135   -0.0635 F   0  0  0  0  0  0  0  0  0  0  0  0
   -1.2706    1.0007   -4.1072 C   0  0  0  0  0  0  0  0  0  0  0  0
   -1.6795    0.3077   -2.5663 S   0  0  0  0  0  0  0  0  0  0  0  0
    0.1720    3.8389   -6.0586 C   0  0  0  0  0  0  0  0  0  0  0  0
    0.3538    3.8773   -7.4104 C   0  0  0  0  0  0  0  0  0  0  0  0
   -0.1618    2.3967   -8.1905 S   0  0  0  0  0  0  0  0  0  0  0  0
    0.9131    4.9334   -8.1933 C   0  0  0  0  0  0  0  0  0  0  0  0
    1.3431    6.1564   -7.7692 C   0  0  0  0  0  0  0  0  0  0  0  0
    1.8708    6.9634   -8.8101 C   0  0  0  0  0  0  0  0  0  0  0  0
    2.4084    8.2570   -8.7157 C   0  0  0  0  0  0  0  0  0  0  0  0
    2.5495    8.9338   -7.4210 C   0  0  0  0  0  0  0  0  0  0  0  0
    3.1770    8.2999   -6.3489 C   0  0  0  0  0  0  0  0  0  0  0  0
    3.3323    8.9485   -5.1433 C   0  0  0  0  0  0  0  0  0  0  0  0
    2.8572   10.2449   -4.9483 C   0  0  0  0  0  0  0  0  0  0  0  0
    3.0747   10.9440   -3.3395 S   0  0  0  0  0  0  0  0  0  0  0  0
    3.4306   12.7123   -3.6520 C   0  0  0  0  0  0  0  0  0  0  0  0
    4.6446   12.9000   -4.5393 C   0  0  0  0  0  0  0  0  0  0  0  0
    2.2086   10.8536   -6.0185 C   0  0  0  0  0  0  0  0  0  0  0  0
    1.6785   12.0905   -5.8966 F   0  0  0  0  0  0  0  0  0  0  0  0
    2.0697   10.2261   -7.2400 C   0  0  0  0  0  0  0  0  0  0  0  0
    2.8199    8.8480   -9.9021 C   0  0  0  0  0  0  0  0  0  0  0  0
    2.7618    8.1939  -11.1565 C   0  0  0  0  0  0  0  0  0  0  0  0
    2.2527    6.8910  -11.2471 C   0  0  0  0  0  0  0  0  0  0  0  0
    2.2292    6.1459  -12.5121 C   0  0  0  0  0  0  0  0  0  0  0  0
    3.3795    6.0173  -13.2896 C   0  0  0  0  0  0  0  0  0  0  0  0
    3.3668    5.2614  -14.4416 C   0  0  0  0  0  0  0  0  0  0  0  0
    2.2088    4.6152  -14.8731 C   0  0  0  0  0  0  0  0  0  0  0  0
    2.3060    3.6856  -16.3701 S   0  0  0  0  0  0  0  0  0  0  0  0
    1.1379    2.2934  -16.0903 C   0  0  0  0  0  0  0  0  0  0  0  0
    1.5597    1.1200  -16.9524 C   0  0  0  0  0  0  0  0  0  0  0  0
    1.0587    4.7853  -14.1082 C   0  0  0  0  0  0  0  0  0  0  0  0
    1.0635    5.5202  -12.9403 C   0  0  0  0  0  0  0  0  0  0  0  0
   -0.1163    4.2381  -14.4925 F   0  0  0  0  0  0  0  0  0  0  0  0
    1.7981    6.3171  -10.0685 C   0  0  0  0  0  0  0  0  0  0  0  0
    1.1265    4.7164   -9.9179 S   0  0  0  0  0  0  0  0  0  0  0  0
    3.2508    9.0270  -12.2071 C   0  0  0  0  0  0  0  0  0  0  0  0
    3.6793   10.2273  -11.7686 C   0  0  0  0  0  0  0  0  0  0  0  0
    3.5163   10.4410  -10.0589 S   0  0  0  0  0  0  0  0  0  0  0  0
    1.4875    4.2155   10.8235 H   0  0  0  0  0  0  0  0  0  0  0  0
    2.4388    2.3719   12.3969 H   0  0  0  0  0  0  0  0  0  0  0  0
    1.2255   -1.5361   14.1967 H   0  0  0  0  0  0  0  0  0  0  0  0
    2.8414   -1.7488   16.0357 H   0  0  0  0  0  0  0  0  0  0  0  0
    7.1265   -1.4047   14.8399 H   0  0  0  0  0  0  0  0  0  0  0  0
    7.4394    0.1684   15.6177 H   0  0  0  0  0  0  0  0  0  0  0  0
    9.0838   -1.5386   16.4026 H   0  0  0  0  0  0  0  0  0  0  0  0
    7.7568   -2.5713   16.9528 H   0  0  0  0  0  0  0  0  0  0  0  0
    8.0471   -1.0163   17.7358 H   0  0  0  0  0  0  0  0  0  0  0  0
    4.1512    0.6206   11.9320 H   0  0  0  0  0  0  0  0  0  0  0  0
   -2.7665   -0.9757    9.2984 H   0  0  0  0  0  0  0  0  0  0  0  0
   -4.2082   -0.7032    7.3293 H   0  0  0  0  0  0  0  0  0  0  0  0
   -2.6671    2.0883    3.7793 H   0  0  0  0  0  0  0  0  0  0  0  0
   -4.0873    1.5605    2.8643 H   0  0  0  0  0  0  0  0  0  0  0  0
   -1.4489    0.0144    3.0457 H   0  0  0  0  0  0  0  0  0  0  0  0
   -2.8985   -0.5391    2.2032 H   0  0  0  0  0  0  0  0  0  0  0  0
   -2.0423    0.8982    1.6388 H   0  0  0  0  0  0  0  0  0  0  0  0
    0.4160    0.9278    7.1579 H   0  0  0  0  0  0  0  0  0  0  0  0
   -1.0544   -2.8743    8.9956 H   0  0  0  0  0  0  0  0  0  0  0  0
    1.9149   -5.6484   12.6774 H   0  0  0  0  0  0  0  0  0  0  0  0
    2.2420   -8.1625   12.9635 H   0  0  0  0  0  0  0  0  0  0  0  0
   -0.8027   -9.5039    9.0813 H   0  0  0  0  0  0  0  0  0  0  0  0
   -2.5810   -7.3327    7.8415 H   0  0  0  0  0  0  0  0  0  0  0  0
   -1.0868  -11.6883    7.6467 H   0  0  0  0  0  0  0  0  0  0  0  0
   -1.2230  -13.3997    5.7694 H   0  0  0  0  0  0  0  0  0  0  0  0
   -3.7006  -10.2224    2.4635 H   0  0  0  0  0  0  0  0  0  0  0  0
   -4.8009   -7.7048    3.8052 H   0  0  0  0  0  0  0  0  0  0  0  0
   -4.1281   -5.7181    3.0105 H   0  0  0  0  0  0  0  0  0  0  0  0
   -4.8342   -3.4381    3.0642 H   0  0  0  0  0  0  0  0  0  0  0  0
   -3.8852   -3.0021    5.2930 H   0  0  0  0  0  0  0  0  0  0  0  0
    0.3470   -4.2106    7.2033 H   0  0  0  0  0  0  0  0  0  0  0  0
    0.4818   -4.1621    5.4377 H   0  0  0  0  0  0  0  0  0  0  0  0
    2.4177   -2.9814    6.5213 H   0  0  0  0  0  0  0  0  0  0  0  0
    1.2865   -1.9136    7.3650 H   0  0  0  0  0  0  0  0  0  0  0  0
    1.4362   -1.8349    5.6049 H   0  0  0  0  0  0  0  0  0  0  0  0
   -0.8935   -3.2585    1.4016 H   0  0  0  0  0  0  0  0  0  0  0  0
   -5.9447   -7.1320   -2.2964 H   0  0  0  0  0  0  0  0  0  0  0  0
   -6.1764   -8.5081   -4.3189 H   0  0  0  0  0  0  0  0  0  0  0  0
   -2.2905   -8.9591   -7.2815 H   0  0  0  0  0  0  0  0  0  0  0  0
   -3.2173  -10.3737   -7.8131 H   0  0  0  0  0  0  0  0  0  0  0  0
   -3.1468  -11.2986   -5.4867 H   0  0  0  0  0  0  0  0  0  0  0  0
   -2.1870   -9.9127   -4.9602 H   0  0  0  0  0  0  0  0  0  0  0  0
   -1.5140  -11.0562   -6.1237 H   0  0  0  0  0  0  0  0  0  0  0  0
   -2.0476   -5.9339   -3.6105 H   0  0  0  0  0  0  0  0  0  0  0  0
   -3.2296   -3.8260   -3.7899 H   0  0  0  0  0  0  0  0  0  0  0  0
   -2.2528   -1.9798   -5.3306 H   0  0  0  0  0  0  0  0  0  0  0  0
   -3.5170   -0.7879   -7.1123 H   0  0  0  0  0  0  0  0  0  0  0  0
   -3.9625   -2.1868   -9.0870 H   0  0  0  0  0  0  0  0  0  0  0  0
   -0.4991   -2.4032  -12.5520 H   0  0  0  0  0  0  0  0  0  0  0  0
   -1.9114   -2.8662  -13.5190 H   0  0  0  0  0  0  0  0  0  0  0  0
   -1.6024   -0.2185  -11.9983 H   0  0  0  0  0  0  0  0  0  0  0  0
   -3.0299   -0.7044  -12.9184 H   0  0  0  0  0  0  0  0  0  0  0  0
   -1.4940   -0.4195  -13.7477 H   0  0  0  0  0  0  0  0  0  0  0  0
    0.5322   -0.3036   -8.4242 H   0  0  0  0  0  0  0  0  0  0  0  0
    1.6341    3.4767   -3.6376 H   0  0  0  0  0  0  0  0  0  0  0  0
    2.1571    4.6476   -1.5377 H   0  0  0  0  0  0  0  0  0  0  0  0
   -1.1845    4.6273    2.2106 H   0  0  0  0  0  0  0  0  0  0  0  0
   -0.2968    3.1829    1.6602 H   0  0  0  0  0  0  0  0  0  0  0  0
    0.6871    5.1850    3.7575 H   0  0  0  0  0  0  0  0  0  0  0  0
    1.5985    3.7879    3.1778 H   0  0  0  0  0  0  0  0  0  0  0  0
    0.1014    3.5468    4.0830 H   0  0  0  0  0  0  0  0  0  0  0  0
   -2.3940    2.9378   -2.2804 H   0  0  0  0  0  0  0  0  0  0  0  0
    0.4084    4.6595   -5.4067 H   0  0  0  0  0  0  0  0  0  0  0  0
    1.2723    6.4853   -6.7488 H   0  0  0  0  0  0  0  0  0  0  0  0
    3.5752    7.3049   -6.4773 H   0  0  0  0  0  0  0  0  0  0  0  0
    3.8317    8.4609   -4.3205 H   0  0  0  0  0  0  0  0  0  0  0  0
    2.5438   13.1860   -4.0669 H   0  0  0  0  0  0  0  0  0  0  0  0
    3.6093   13.1079   -2.6520 H   0  0  0  0  0  0  0  0  0  0  0  0
    4.8658   13.9610   -4.6357 H   0  0  0  0  0  0  0  0  0  0  0  0
    5.5108   12.3988   -4.1125 H   0  0  0  0  0  0  0  0  0  0  0  0
    4.4662   12.4956   -5.5340 H   0  0  0  0  0  0  0  0  0  0  0  0
    1.5539   10.7462   -8.0319 H   0  0  0  0  0  0  0  0  0  0  0  0
    4.2972    6.4839  -12.9654 H   0  0  0  0  0  0  0  0  0  0  0  0
    4.2635    5.1478  -15.0309 H   0  0  0  0  0  0  0  0  0  0  0  0
    0.1340    2.6297  -16.3456 H   0  0  0  0  0  0  0  0  0  0  0  0
    1.1861    2.0422  -15.0318 H   0  0  0  0  0  0  0  0  0  0  0  0
    2.5664    0.7988  -16.6949 H   0  0  0  0  0  0  0  0  0  0  0  0
    0.8763    0.2874  -16.7992 H   0  0  0  0  0  0  0  0  0  0  0  0
    1.5440    1.3945  -18.0047 H   0  0  0  0  0  0  0  0  0  0  0  0
    0.1411    5.6195  -12.3898 H   0  0  0  0  0  0  0  0  0  0  0  0
    3.2596    8.7295  -13.2399 H   0  0  0  0  0  0  0  0  0  0  0  0
    4.0869   11.0336  -12.3465 H   0  0  0  0  0  0  0  0  0  0  0  0
  1  2  2  0  0  0  0
  2  3  1  0  0  0  0
  3  4  2  0  0  0  0
  4  5  1  0  0  0  0
  5  6  2  0  0  0  0
  6  7  1  0  0  0  0
  7  8  2  0  0  0  0
  8  9  1  0  0  0  0
  9 10  1  0  0  0  0
 10 11  1  0  0  0  0
  8 12  1  0  0  0  0
 12 13  1  0  0  0  0
 12 14  2  0  0  0  0
  4 15  1  0  0  0  0
 15 16  2  0  0  0  0
 16 17  1  0  0  0  0
 17 18  1  0  0  0  0
 18 19  2  0  0  0  0
 19 20  1  0  0  0  0
 20 21  2  0  0  0  0
 21 22  1  0  0  0  0
 22 23  1  0  0  0  0
 23 24  1  0  0  0  0
 21 25  1  0  0  0  0
 25 26  2  0  0  0  0
 25 27  1  0  0  0  0
 17 28  2  0  0  0  0
 28 29  1  0  0  0  0
 16 30  1  0  0  0  0
 30 31  2  0  0  0  0
 31 32  1  0  0  0  0
 31 33  1  0  0  0  0
 33 34  1  0  0  0  0
 34 35  1  0  0  0  0
 35 36  2  0  0  0  0
 36 37  1  0  0  0  0
 37 38  1  0  0  0  0
 38 39  1  0  0  0  0
 39 40  2  0  0  0  0
 35 41  1  0  0  0  0
 41 42  2  0  0  0  0
 42 43  1  0  0  0  0
 43 44  1  0  0  0  0
 44 45  1  0  0  0  0
 45 46  2  0  0  0  0
 46 47  1  0  0  0  0
 47 48  1  0  0  0  0
 48 49  1  0  0  0  0
 49 50  2  0  0  0  0
 45 51  1  0  0  0  0
 51 52  2  0  0  0  0
 52 53  1  0  0  0  0
 53 54  2  0  0  0  0
 54 55  1  0  0  0  0
 55 56  2  0  0  0  0
 56 57  1  0  0  0  0
 57 58  2  0  0  0  0
 58 59  1  0  0  0  0
 59 60  2  0  0  0  0
 60 61  1  0  0  0  0
 61 62  1  0  0  0  0
 62 63  1  0  0  0  0
 60 64  1  0  0  0  0
 64 65  1  0  0  0  0
 64 66  2  0  0  0  0
 56 67  1  0  0  0  0
 67 68  2  0  0  0  0
 68 69  1  0  0  0  0
 69 70  1  0  0  0  0
 70 71  2  0  0  0  0
 71 72  1  0  0  0  0
 72 73  2  0  0  0  0
 73 74  1  0  0  0  0
 74 75  1  0  0  0  0
 75 76  1  0  0  0  0
 73 77  1  0  0  0  0
 77 78  2  0  0  0  0
 77 79  1  0  0  0  0
 69 80  2  0  0  0  0
 80 81  1  0  0  0  0
 68 82  1  0  0  0  0
 82 83  2  0  0  0  0
 83 84  1  0  0  0  0
 83 85  1  0  0  0  0
 85 86  2  0  0  0  0
 86 87  1  0  0  0  0
 87 88  2  0  0  0  0
 88 89  1  0  0  0  0
 89 90  2  0  0  0  0
 90 91  1  0  0  0  0
 91 92  2  0  0  0  0
 92 93  1  0  0  0  0
 93 94  1  0  0  0  0
 94 95  1  0  0  0  0
 92 96  1  0  0  0  0
 96 97  1  0  0  0  0
 96 98  2  0  0  0  0
 88 99  1  0  0  0  0
 99100  2  0  0  0  0
100101  1  0  0  0  0
101102  1  0  0  0  0
102103  2  0  0  0  0
103104  1  0  0  0  0
104105  2  0  0  0  0
105106  1  0  0  0  0
106107  1  0  0  0  0
107108  1  0  0  0  0
105109  1  0  0  0  0
109110  2  0  0  0  0
109111  1  0  0  0  0
101112  2  0  0  0  0
112113  1  0  0  0  0
100114  1  0  0  0  0
114115  2  0  0  0  0
115116  1  0  0  0  0
115117  1  0  0  0  0
117118  2  0  0  0  0
118119  1  0  0  0  0
119120  2  0  0  0  0
120121  1  0  0  0  0
121122  2  0  0  0  0
122123  1  0  0  0  0
123124  2  0  0  0  0
124125  1  0  0  0  0
125126  1  0  0  0  0
126127  1  0  0  0  0
124128  1  0  0  0  0
128129  1  0  0  0  0
128130  2  0  0  0  0
120131  1  0  0  0  0
131132  2  0  0  0  0
132133  1  0  0  0  0
133134  1  0  0  0  0
134135  2  0  0  0  0
135136  1  0  0  0  0
136137  2  0  0  0  0
137138  1  0  0  0  0
138139  1  0  0  0  0
139140  1  0  0  0  0
137141  1  0  0  0  0
141142  2  0  0  0  0
141143  1  0  0  0  0
133144  2  0  0  0  0
144145  1  0  0  0  0
132146  1  0  0  0  0
146147  2  0  0  0  0
147148  1  0  0  0  0
 29  1  1  0  0  0  0
 37 33  2  0  0  0  0
 47 43  2  0  0  0  0
 81 53  1  0  0  0  0
113 85  1  0  0  0  0
145117  1  0  0  0  0
 28  3  1  0  0  0  0
 40 36  1  0  0  0  0
 50 46  1  0  0  0  0
 80 55  1  0  0  0  0
112 87  1  0  0  0  0
144119  1  0  0  0  0
 14  5  1  0  0  0  0
 32 15  1  0  0  0  0
 66 57  1  0  0  0  0
 84 67  1  0  0  0  0
 98 89  1  0  0  0  0
116 99  1  0  0  0  0
130121  1  0  0  0  0
148131  1  0  0  0  0
 26 18  1  0  0  0  0
 78 70  1  0  0  0  0
110102  1  0  0  0  0
142134  1  0  0  0  0
  1149  1  0  0  0  0
  2150  1  0  0  0  0
  6151  1  0  0  0  0
  7152  1  0  0  0  0
 10153  1  0  0  0  0
 10154  1  0  0  0  0
 11155  1  0  0  0  0
 11156  1  0  0  0  0
 11157  1  0  0  0  0
 14158  1  0  0  0  0
 19159  1  0  0  0  0
 20160  1  0  0  0  0
 23161  1  0  0  0  0
 23162  1  0  0  0  0
 24163  1  0  0  0  0
 24164  1  0  0  0  0
 24165  1  0  0  0  0
 26166  1  0  0  0  0
 30167  1  0  0  0  0
 38168  1  0  0  0  0
 39169  1  0  0  0  0
 41170  1  0  0  0  0
 42171  1  0  0  0  0
 48172  1  0  0  0  0
 49173  1  0  0  0  0
 51174  1  0  0  0  0
 52175  1  0  0  0  0
 54176  1  0  0  0  0
 58177  1  0  0  0  0
 59178  1  0  0  0  0
 62179  1  0  0  0  0
 62180  1  0  0  0  0
 63181  1  0  0  0  0
 63182  1  0  0  0  0
 63183  1  0  0  0  0
 66184  1  0  0  0  0
 71185  1  0  0  0  0
 72186  1  0  0  0  0
 75187  1  0  0  0  0
 75188  1  0  0  0  0
 76189  1  0  0  0  0
 76190  1  0  0  0  0
 76191  1  0  0  0  0
 78192  1  0  0  0  0
 82193  1  0  0  0  0
 86194  1  0  0  0  0
 90195  1  0  0  0  0
 91196  1  0  0  0  0
 94197  1  0  0  0  0
 94198  1  0  0  0  0
 95199  1  0  0  0  0
 95200  1  0  0  0  0
 95201  1  0  0  0  0
 98202  1  0  0  0  0
103203  1  0  0  0  0
104204  1  0  0  0  0
107205  1  0  0  0  0
107206  1  0  0  0  0
108207  1  0  0  0  0
108208  1  0  0  0  0
108209  1  0  0  0  0
110210  1  0  0  0  0
114211  1  0  0  0  0
118212  1  0  0  0  0
122213  1  0  0  0  0
123214  1  0  0  0  0
126215  1  0  0  0  0
126216  1  0  0  0  0
127217  1  0  0  0  0
127218  1  0  0  0  0
127219  1  0  0  0  0
130220  1  0  0  0  0
135221  1  0  0  0  0
136222  1  0  0  0  0
139223  1  0  0  0  0
139224  1  0  0  0  0
140225  1  0  0  0  0
140226  1  0  0  0  0
140227  1  0  0  0  0
142228  1  0  0  0  0
146229  1  0  0  0  0
147230  1  0  0  0  0
M  END
