86

C          2.35770        2.61570        4.25290
S          0.68910        2.29540        4.08430
C          0.93400        0.57760        3.99200
C          2.29910        0.27550        4.10820
C          3.09940        1.45890        4.25100
C          4.51520        1.33340        4.38160
C          5.30300        2.49650        4.47710
N          5.93790        3.45130        4.53780
C          5.08230        0.08060        4.40140
C          4.28490       -1.06900        4.28370
C          2.92690       -0.98320        4.12830
C         -0.17600       -0.26060        3.77350
S         -0.04660       -1.97590        3.42320
C         -1.75940       -2.20520        3.14170
C         -2.39450       -0.98810        3.37060
C         -1.51540        0.08080        3.68870
N         -2.32060        1.17820        3.82350
C         -3.59420        0.74150        3.58140
N         -3.68230       -0.52650        3.31940
C         -2.40230       -3.43200        2.86590
C         -1.90610       -4.60490        2.38330
C         -0.65270       -4.88210        1.78430
S          0.37650       -3.68560        1.01770
C          1.58250       -4.84010        0.48810
C          1.15920       -6.11020        0.86150
C         -0.08550       -6.12320        1.54910
N         -0.31710       -7.44250        1.84040
C          0.75140       -8.13330        1.33210
N          1.63970       -7.38830        0.75180
C          2.85040       -4.47720       -0.02080
C          3.28840       -3.23720       -0.34850
C          2.49060       -2.06740       -0.56220
S          1.08550       -2.11240       -1.57280
C          0.84250       -0.39580       -1.49230
C          1.83990        0.20480       -0.71490
C          2.77200       -0.75080       -0.19490
C          3.84350       -0.29260        0.62020
C          4.79420       -1.18250        1.15980
N          5.60640       -1.85800        1.60900
C          3.98190        1.05650        0.86740
C          3.09900        1.98530        0.29770
C          2.05610        1.57920       -0.48830
C         -0.17890        0.18780       -2.29250
S         -0.45890       -0.48490       -3.87210
C         -1.65240        0.70210       -4.27150
C         -1.81410        1.60950       -3.22500
C         -1.01840        1.28160       -2.07930
C         -1.23950        2.02390       -0.88570
C         -0.70460        1.61900        0.35040
N         -0.33300        1.32280        1.39510
C         -2.06840        3.12530       -0.90630
C         -2.70760        3.52830       -2.08870
C         -2.60920        2.77550       -3.22350
C         -2.31120        0.69510       -5.53750
S         -1.39950        0.48770       -7.00130
C         -2.77700        0.69310       -7.98210
C         -3.92020        0.89790       -7.24030
C         -3.66060        0.87440       -5.82620
C         -4.77140        0.93320       -4.93500
C         -4.63430        0.72280       -3.54610
N         -4.59740        0.51220       -2.41860
C         -6.03810        1.11310       -5.44420
C         -6.26360        1.22020       -6.82960
C         -5.23720        1.09600       -7.71840
H          2.70670        3.62410        4.35150
H          6.15240       -0.02120        4.50250
H          4.76400       -2.03470        4.30180
H          2.33630       -1.87940        4.03000
H         -2.02120        2.12220        3.99650
H         -4.43920        1.40170        3.61790
H         -3.45930       -3.40480        3.10250
H         -2.57340       -5.45970        2.41420
H         -1.10920       -7.82730        2.32530
H          0.82920       -9.20000        1.41630
H          3.55760       -5.29600       -0.03840
H          4.35300       -3.09980       -0.48870
H          4.79720        1.40360        1.48510
H          3.26110        3.03630        0.48200
H          1.40650        2.30560       -0.95180
H         -2.23040        3.68100        0.00560
H         -3.31000        4.42340       -2.07920
H         -3.13100        3.06040       -4.12460
H         -2.68710        0.65130       -9.04880
H         -6.87680        1.15340       -4.76490
H         -7.27300        1.37350       -7.17950
H         -5.40670        1.13500       -8.78350
