
  xtb     03032214423D
 energy: -341.407985822560 gnorm: 0.000247659120 xtb: 6.4.1 (unknown)
194214  0     0  0            999 V2000
    6.8127    0.8242    3.0914 C   0  0  0  0  0  0  0  0  0  0  0  0
    5.9726    1.0297    4.5937 S   0  0  0  0  0  0  0  0  0  0  0  0
    4.4962    0.2871    4.0092 C   0  0  0  0  0  0  0  0  0  0  0  0
    4.6964   -0.1033    2.6986 C   0  0  0  0  0  0  0  0  0  0  0  0
    5.9952    0.2184    2.1872 C   0  0  0  0  0  0  0  0  0  0  0  0
    5.9823   -0.2240    0.8874 N   0  0  0  0  0  0  0  0  0  0  0  0
    4.7358   -0.7536    0.6852 C   0  0  0  0  0  0  0  0  0  0  0  0
    3.9556   -0.7162    1.7207 N   0  0  0  0  0  0  0  0  0  0  0  0
    3.3011    0.1638    4.7486 C   0  0  0  0  0  0  0  0  0  0  0  0
    3.0708    0.6017    6.0103 C   0  0  0  0  0  0  0  0  0  0  0  0
    1.8182    0.4430    6.6493 C   0  0  0  0  0  0  0  0  0  0  0  0
    0.4581   -0.2622    5.7965 S   0  0  0  0  0  0  0  0  0  0  0  0
   -0.6081   -0.2482    7.1806 C   0  0  0  0  0  0  0  0  0  0  0  0
    0.0659    0.3460    8.2382 C   0  0  0  0  0  0  0  0  0  0  0  0
    1.4105    0.7127    7.9404 C   0  0  0  0  0  0  0  0  0  0  0  0
    1.9030    1.2355    9.1082 N   0  0  0  0  0  0  0  0  0  0  0  0
    0.8760    1.1690   10.0127 C   0  0  0  0  0  0  0  0  0  0  0  0
   -0.2162    0.6526    9.5443 N   0  0  0  0  0  0  0  0  0  0  0  0
   -1.9582   -0.6952    7.1654 C   0  0  0  0  0  0  0  0  0  0  0  0
   -2.5795   -1.4500    6.2339 C   0  0  0  0  0  0  0  0  0  0  0  0
   -1.9526   -2.1179    5.1189 C   0  0  0  0  0  0  0  0  0  0  0  0
   -2.3723   -2.1572    3.8244 C   0  0  0  0  0  0  0  0  0  0  0  0
   -1.5003   -2.8640    2.9502 C   0  0  0  0  0  0  0  0  0  0  0  0
   -1.5823   -3.0200    1.5530 C   0  0  0  0  0  0  0  0  0  0  0  0
   -2.7594   -2.5523    0.8126 C   0  0  0  0  0  0  0  0  0  0  0  0
   -4.0454   -2.7839    1.3034 C   0  0  0  0  0  0  0  0  0  0  0  0
   -5.1560   -2.3056    0.6387 C   0  0  0  0  0  0  0  0  0  0  0  0
   -5.0250   -1.6001   -0.5510 C   0  0  0  0  0  0  0  0  0  0  0  0
   -6.4611   -0.9294   -1.3528 S   0  0  0  0  0  0  0  0  0  0  0  0
   -6.3786   -1.8004   -2.9606 C   0  0  0  0  0  0  0  0  0  0  0  0
   -6.6346   -3.2837   -2.7919 C   0  0  0  0  0  0  0  0  0  0  0  0
   -3.7429   -1.4059   -1.0497 C   0  0  0  0  0  0  0  0  0  0  0  0
   -3.5708   -0.7431   -2.2112 F   0  0  0  0  0  0  0  0  0  0  0  0
   -2.6218   -1.8629   -0.3899 C   0  0  0  0  0  0  0  0  0  0  0  0
   -0.5018   -3.6348    0.9302 C   0  0  0  0  0  0  0  0  0  0  0  0
    0.6524   -4.0624    1.6305 C   0  0  0  0  0  0  0  0  0  0  0  0
    0.7340   -3.8998    3.0203 C   0  0  0  0  0  0  0  0  0  0  0  0
    1.9783   -4.1419    3.7626 C   0  0  0  0  0  0  0  0  0  0  0  0
    3.1167   -3.4197    3.4105 C   0  0  0  0  0  0  0  0  0  0  0  0
    4.2773   -3.5336    4.1479 C   0  0  0  0  0  0  0  0  0  0  0  0
    4.3415   -4.3745    5.2527 C   0  0  0  0  0  0  0  0  0  0  0  0
    5.7966   -4.5811    6.2371 S   0  0  0  0  0  0  0  0  0  0  0  0
    6.5087   -2.8971    6.2458 C   0  0  0  0  0  0  0  0  0  0  0  0
    5.5808   -1.8959    6.9034 C   0  0  0  0  0  0  0  0  0  0  0  0
    3.2028   -5.1107    5.5746 C   0  0  0  0  0  0  0  0  0  0  0  0
    2.0293   -4.9963    4.8580 C   0  0  0  0  0  0  0  0  0  0  0  0
    3.2353   -5.9550    6.6238 F   0  0  0  0  0  0  0  0  0  0  0  0
   -0.3721   -3.3586    3.6494 C   0  0  0  0  0  0  0  0  0  0  0  0
   -0.4996   -3.0750    5.3601 S   0  0  0  0  0  0  0  0  0  0  0  0
    1.6040   -4.6841    0.7858 C   0  0  0  0  0  0  0  0  0  0  0  0
    1.2113   -4.7559   -0.5199 C   0  0  0  0  0  0  0  0  0  0  0  0
   -0.3580   -4.0092   -0.7714 S   0  0  0  0  0  0  0  0  0  0  0  0
    1.9021   -5.3463   -1.6137 C   0  0  0  0  0  0  0  0  0  0  0  0
    1.3642   -5.0930   -3.2595 S   0  0  0  0  0  0  0  0  0  0  0  0
    2.6425   -6.0477   -3.9769 C   0  0  0  0  0  0  0  0  0  0  0  0
    3.4245   -6.5566   -2.9568 C   0  0  0  0  0  0  0  0  0  0  0  0
    3.0206   -6.1492   -1.6474 C   0  0  0  0  0  0  0  0  0  0  0  0
    3.9242   -6.7374   -0.7993 N   0  0  0  0  0  0  0  0  0  0  0  0
    4.7866   -7.4433   -1.5980 C   0  0  0  0  0  0  0  0  0  0  0  0
    4.5358   -7.3573   -2.8651 N   0  0  0  0  0  0  0  0  0  0  0  0
    2.7515   -6.3006   -5.3831 C   0  0  0  0  0  0  0  0  0  0  0  0
    2.2405   -5.5362   -6.3640 C   0  0  0  0  0  0  0  0  0  0  0  0
    1.6572   -4.2418   -6.0623 C   0  0  0  0  0  0  0  0  0  0  0  0
    2.3045   -3.2323   -5.4263 C   0  0  0  0  0  0  0  0  0  0  0  0
    1.4534   -2.1798   -4.9991 C   0  0  0  0  0  0  0  0  0  0  0  0
    1.7887   -1.0682   -4.2094 C   0  0  0  0  0  0  0  0  0  0  0  0
    3.1502   -0.9146   -3.6832 C   0  0  0  0  0  0  0  0  0  0  0  0
    3.7788   -1.9902   -3.0571 C   0  0  0  0  0  0  0  0  0  0  0  0
    5.0722   -1.8876   -2.5861 C   0  0  0  0  0  0  0  0  0  0  0  0
    5.7816   -0.6994   -2.7200 C   0  0  0  0  0  0  0  0  0  0  0  0
    7.4334   -0.4546   -2.1270 S   0  0  0  0  0  0  0  0  0  0  0  0
    8.1605   -2.1317   -2.1821 C   0  0  0  0  0  0  0  0  0  0  0  0
    8.2411   -2.6732   -3.5952 C   0  0  0  0  0  0  0  0  0  0  0  0
    5.1296    0.3822   -3.3088 C   0  0  0  0  0  0  0  0  0  0  0  0
    5.7821    1.5538   -3.4258 F   0  0  0  0  0  0  0  0  0  0  0  0
    3.8399    0.2898   -3.7883 C   0  0  0  0  0  0  0  0  0  0  0  0
    0.7587   -0.1939   -3.8974 C   0  0  0  0  0  0  0  0  0  0  0  0
   -0.5799   -0.4065   -4.3140 C   0  0  0  0  0  0  0  0  0  0  0  0
   -0.9197   -1.5372   -5.0730 C   0  0  0  0  0  0  0  0  0  0  0  0
   -2.3116   -1.8223   -5.4398 C   0  0  0  0  0  0  0  0  0  0  0  0
   -3.1121   -0.8688   -6.0665 C   0  0  0  0  0  0  0  0  0  0  0  0
   -4.4147   -1.1616   -6.4097 C   0  0  0  0  0  0  0  0  0  0  0  0
   -4.9697   -2.4110   -6.1398 C   0  0  0  0  0  0  0  0  0  0  0  0
   -6.6604   -2.6746   -6.5815 S   0  0  0  0  0  0  0  0  0  0  0  0
   -6.6803   -4.4291   -7.1347 C   0  0  0  0  0  0  0  0  0  0  0  0
   -7.7852   -4.6105   -8.1562 C   0  0  0  0  0  0  0  0  0  0  0  0
   -4.1657   -3.3453   -5.4938 C   0  0  0  0  0  0  0  0  0  0  0  0
   -2.8584   -3.0691   -5.1533 C   0  0  0  0  0  0  0  0  0  0  0  0
   -4.6536   -4.5634   -5.1639 F   0  0  0  0  0  0  0  0  0  0  0  0
    0.1144   -2.4018   -5.3979 C   0  0  0  0  0  0  0  0  0  0  0  0
   -0.0431   -3.8929   -6.2930 S   0  0  0  0  0  0  0  0  0  0  0  0
   -1.4601    0.5625   -3.7714 C   0  0  0  0  0  0  0  0  0  0  0  0
   -0.8478    1.4704   -2.9642 C   0  0  0  0  0  0  0  0  0  0  0  0
    0.8851    1.2073   -2.8625 S   0  0  0  0  0  0  0  0  0  0  0  0
   -1.4791    2.5102   -2.2183 C   0  0  0  0  0  0  0  0  0  0  0  0
   -0.9002    3.5331   -1.5305 C   0  0  0  0  0  0  0  0  0  0  0  0
   -1.8366    4.3763   -0.8768 C   0  0  0  0  0  0  0  0  0  0  0  0
   -1.5803    5.5020   -0.0790 C   0  0  0  0  0  0  0  0  0  0  0  0
   -0.2214    6.0282    0.0944 C   0  0  0  0  0  0  0  0  0  0  0  0
    0.5912    6.2828   -1.0098 C   0  0  0  0  0  0  0  0  0  0  0  0
    1.8497    6.8205   -0.8462 C   0  0  0  0  0  0  0  0  0  0  0  0
    2.3538    7.1100    0.4198 C   0  0  0  0  0  0  0  0  0  0  0  0
    3.9927    7.7709    0.5202 S   0  0  0  0  0  0  0  0  0  0  0  0
    3.8391    9.0962    1.7751 C   0  0  0  0  0  0  0  0  0  0  0  0
    2.7909   10.1211    1.3913 C   0  0  0  0  0  0  0  0  0  0  0  0
    1.5463    6.8169    1.5142 C   0  0  0  0  0  0  0  0  0  0  0  0
    1.9892    7.0243    2.7739 F   0  0  0  0  0  0  0  0  0  0  0  0
    0.2740    6.3041    1.3643 C   0  0  0  0  0  0  0  0  0  0  0  0
   -2.6797    6.1099    0.5117 C   0  0  0  0  0  0  0  0  0  0  0  0
   -4.0070    5.6503    0.3376 C   0  0  0  0  0  0  0  0  0  0  0  0
   -4.2635    4.5287   -0.4634 C   0  0  0  0  0  0  0  0  0  0  0  0
   -5.6277    4.0059   -0.6319 C   0  0  0  0  0  0  0  0  0  0  0  0
   -6.4028    3.6957    0.4835 C   0  0  0  0  0  0  0  0  0  0  0  0
   -7.6926    3.2282    0.3317 C   0  0  0  0  0  0  0  0  0  0  0  0
   -8.2469    3.0628   -0.9299 C   0  0  0  0  0  0  0  0  0  0  0  0
   -9.9543    2.5594   -1.0690 S   0  0  0  0  0  0  0  0  0  0  0  0
   -9.7589    0.7532   -1.3137 C   0  0  0  0  0  0  0  0  0  0  0  0
   -9.5155    0.3850   -2.7623 C   0  0  0  0  0  0  0  0  0  0  0  0
   -7.4624    3.3627   -2.0354 C   0  0  0  0  0  0  0  0  0  0  0  0
   -6.1640    3.8172   -1.9003 C   0  0  0  0  0  0  0  0  0  0  0  0
   -7.9596    3.2315   -3.2782 F   0  0  0  0  0  0  0  0  0  0  0  0
   -3.1685    3.9299   -1.0672 C   0  0  0  0  0  0  0  0  0  0  0  0
   -3.2280    2.5197   -2.0874 S   0  0  0  0  0  0  0  0  0  0  0  0
   -4.9474    6.4905    1.0061 C   0  0  0  0  0  0  0  0  0  0  0  0
   -4.3649    7.5211    1.6501 C   0  0  0  0  0  0  0  0  0  0  0  0
   -2.6406    7.5489    1.4994 S   0  0  0  0  0  0  0  0  0  0  0  0
    7.8191    1.1756    2.9961 H   0  0  0  0  0  0  0  0  0  0  0  0
    6.6969   -0.1061    0.1837 H   0  0  0  0  0  0  0  0  0  0  0  0
    4.4420   -1.1677   -0.2603 H   0  0  0  0  0  0  0  0  0  0  0  0
    2.5004   -0.3242    4.2067 H   0  0  0  0  0  0  0  0  0  0  0  0
    3.8609    1.0832    6.5726 H   0  0  0  0  0  0  0  0  0  0  0  0
    2.8257    1.6013    9.2669 H   0  0  0  0  0  0  0  0  0  0  0  0
    0.9854    1.5203   11.0207 H   0  0  0  0  0  0  0  0  0  0  0  0
   -2.5339   -0.3355    8.0088 H   0  0  0  0  0  0  0  0  0  0  0  0
   -3.6508   -1.5835    6.3137 H   0  0  0  0  0  0  0  0  0  0  0  0
   -3.2393   -1.6181    3.4861 H   0  0  0  0  0  0  0  0  0  0  0  0
   -4.1734   -3.3629    2.2051 H   0  0  0  0  0  0  0  0  0  0  0  0
   -6.1461   -2.4763    1.0321 H   0  0  0  0  0  0  0  0  0  0  0  0
   -7.1506   -1.3325   -3.5693 H   0  0  0  0  0  0  0  0  0  0  0  0
   -5.4078   -1.5995   -3.4092 H   0  0  0  0  0  0  0  0  0  0  0  0
   -7.5802   -3.4501   -2.2800 H   0  0  0  0  0  0  0  0  0  0  0  0
   -6.6817   -3.7625   -3.7662 H   0  0  0  0  0  0  0  0  0  0  0  0
   -5.8390   -3.7519   -2.2142 H   0  0  0  0  0  0  0  0  0  0  0  0
   -1.6508   -1.6456   -0.8066 H   0  0  0  0  0  0  0  0  0  0  0  0
    3.0832   -2.7315    2.5779 H   0  0  0  0  0  0  0  0  0  0  0  0
    5.1387   -2.9517    3.8597 H   0  0  0  0  0  0  0  0  0  0  0  0
    7.4309   -3.0133    6.8148 H   0  0  0  0  0  0  0  0  0  0  0  0
    6.7618   -2.6095    5.2262 H   0  0  0  0  0  0  0  0  0  0  0  0
    5.3478   -2.2090    7.9186 H   0  0  0  0  0  0  0  0  0  0  0  0
    4.6502   -1.8074    6.3453 H   0  0  0  0  0  0  0  0  0  0  0  0
    6.0575   -0.9180    6.9350 H   0  0  0  0  0  0  0  0  0  0  0  0
    1.1677   -5.5712    5.1593 H   0  0  0  0  0  0  0  0  0  0  0  0
    2.5393   -5.0659    1.1535 H   0  0  0  0  0  0  0  0  0  0  0  0
    3.9226   -6.7078    0.2055 H   0  0  0  0  0  0  0  0  0  0  0  0
    5.6003   -8.0101   -1.1880 H   0  0  0  0  0  0  0  0  0  0  0  0
    3.2884   -7.2074   -5.6274 H   0  0  0  0  0  0  0  0  0  0  0  0
    2.2699   -5.8665   -7.3918 H   0  0  0  0  0  0  0  0  0  0  0  0
    3.3634   -3.2586   -5.2432 H   0  0  0  0  0  0  0  0  0  0  0  0
    3.2382   -2.9131   -2.9143 H   0  0  0  0  0  0  0  0  0  0  0  0
    5.5249   -2.7426   -2.1077 H   0  0  0  0  0  0  0  0  0  0  0  0
    9.1555   -1.9883   -1.7607 H   0  0  0  0  0  0  0  0  0  0  0  0
    7.5931   -2.7855   -1.5202 H   0  0  0  0  0  0  0  0  0  0  0  0
    8.8204   -2.0011   -4.2242 H   0  0  0  0  0  0  0  0  0  0  0  0
    8.7243   -3.6481   -3.5889 H   0  0  0  0  0  0  0  0  0  0  0  0
    7.2486   -2.7824   -4.0283 H   0  0  0  0  0  0  0  0  0  0  0  0
    3.3926    1.1513   -4.2577 H   0  0  0  0  0  0  0  0  0  0  0  0
   -2.6995    0.0977   -6.3117 H   0  0  0  0  0  0  0  0  0  0  0  0
   -5.0310   -0.4241   -6.8995 H   0  0  0  0  0  0  0  0  0  0  0  0
   -5.7038   -4.6387   -7.5683 H   0  0  0  0  0  0  0  0  0  0  0  0
   -6.8400   -5.0651   -6.2648 H   0  0  0  0  0  0  0  0  0  0  0  0
   -7.8106   -5.6460   -8.4890 H   0  0  0  0  0  0  0  0  0  0  0  0
   -7.6174   -3.9688   -9.0182 H   0  0  0  0  0  0  0  0  0  0  0  0
   -8.7506   -4.3595   -7.7226 H   0  0  0  0  0  0  0  0  0  0  0  0
   -2.2876   -3.8230   -4.6341 H   0  0  0  0  0  0  0  0  0  0  0  0
   -2.5198    0.5677   -3.9443 H   0  0  0  0  0  0  0  0  0  0  0  0
    0.1655    3.6694   -1.4777 H   0  0  0  0  0  0  0  0  0  0  0  0
    0.2160    6.0899   -2.0033 H   0  0  0  0  0  0  0  0  0  0  0  0
    2.4695    7.0331   -1.7033 H   0  0  0  0  0  0  0  0  0  0  0  0
    4.8349    9.5392    1.7937 H   0  0  0  0  0  0  0  0  0  0  0  0
    3.6333    8.6451    2.7433 H   0  0  0  0  0  0  0  0  0  0  0  0
    2.7872   10.9309    2.1182 H   0  0  0  0  0  0  0  0  0  0  0  0
    3.0034   10.5347    0.4077 H   0  0  0  0  0  0  0  0  0  0  0  0
    1.7987    9.6733    1.3711 H   0  0  0  0  0  0  0  0  0  0  0  0
   -0.3081    6.0949    2.2481 H   0  0  0  0  0  0  0  0  0  0  0  0
   -5.9848    3.8142    1.4720 H   0  0  0  0  0  0  0  0  0  0  0  0
   -8.2963    2.9959    1.1956 H   0  0  0  0  0  0  0  0  0  0  0  0
  -10.6991    0.3344   -0.9555 H   0  0  0  0  0  0  0  0  0  0  0  0
   -8.9435    0.4232   -0.6712 H   0  0  0  0  0  0  0  0  0  0  0  0
   -8.5605    0.7757   -3.1034 H   0  0  0  0  0  0  0  0  0  0  0  0
  -10.3012    0.7908   -3.3954 H   0  0  0  0  0  0  0  0  0  0  0  0
   -9.5054   -0.6984   -2.8659 H   0  0  0  0  0  0  0  0  0  0  0  0
   -5.5949    4.0512   -2.7866 H   0  0  0  0  0  0  0  0  0  0  0  0
   -6.0091    6.3251    0.9781 H   0  0  0  0  0  0  0  0  0  0  0  0
   -4.8389    8.2946    2.2223 H   0  0  0  0  0  0  0  0  0  0  0  0
  1  2  1  0  0  0  0
  2  3  1  0  0  0  0
  3  4  2  0  0  0  0
  4  5  1  0  0  0  0
  5  6  1  0  0  0  0
  6  7  1  0  0  0  0
  7  8  2  0  0  0  0
  3  9  1  0  0  0  0
  9 10  2  0  0  0  0
 10 11  1  0  0  0  0
 11 12  1  0  0  0  0
 12 13  1  0  0  0  0
 13 14  2  0  0  0  0
 14 15  1  0  0  0  0
 15 16  1  0  0  0  0
 16 17  1  0  0  0  0
 17 18  2  0  0  0  0
 13 19  1  0  0  0  0
 19 20  2  0  0  0  0
 20 21  1  0  0  0  0
 21 22  2  0  0  0  0
 22 23  1  0  0  0  0
 23 24  2  0  0  0  0
 24 25  1  0  0  0  0
 25 26  2  0  0  0  0
 26 27  1  0  0  0  0
 27 28  2  0  0  0  0
 28 29  1  0  0  0  0
 29 30  1  0  0  0  0
 30 31  1  0  0  0  0
 28 32  1  0  0  0  0
 32 33  1  0  0  0  0
 32 34  2  0  0  0  0
 24 35  1  0  0  0  0
 35 36  2  0  0  0  0
 36 37  1  0  0  0  0
 37 38  1  0  0  0  0
 38 39  2  0  0  0  0
 39 40  1  0  0  0  0
 40 41  2  0  0  0  0
 41 42  1  0  0  0  0
 42 43  1  0  0  0  0
 43 44  1  0  0  0  0
 41 45  1  0  0  0  0
 45 46  2  0  0  0  0
 45 47  1  0  0  0  0
 37 48  2  0  0  0  0
 48 49  1  0  0  0  0
 36 50  1  0  0  0  0
 50 51  2  0  0  0  0
 51 52  1  0  0  0  0
 51 53  1  0  0  0  0
 53 54  1  0  0  0  0
 54 55  1  0  0  0  0
 55 56  2  0  0  0  0
 56 57  1  0  0  0  0
 57 58  1  0  0  0  0
 58 59  1  0  0  0  0
 59 60  2  0  0  0  0
 55 61  1  0  0  0  0
 61 62  2  0  0  0  0
 62 63  1  0  0  0  0
 63 64  2  0  0  0  0
 64 65  1  0  0  0  0
 65 66  2  0  0  0  0
 66 67  1  0  0  0  0
 67 68  2  0  0  0  0
 68 69  1  0  0  0  0
 69 70  2  0  0  0  0
 70 71  1  0  0  0  0
 71 72  1  0  0  0  0
 72 73  1  0  0  0  0
 70 74  1  0  0  0  0
 74 75  1  0  0  0  0
 74 76  2  0  0  0  0
 66 77  1  0  0  0  0
 77 78  2  0  0  0  0
 78 79  1  0  0  0  0
 79 80  1  0  0  0  0
 80 81  2  0  0  0  0
 81 82  1  0  0  0  0
 82 83  2  0  0  0  0
 83 84  1  0  0  0  0
 84 85  1  0  0  0  0
 85 86  1  0  0  0  0
 83 87  1  0  0  0  0
 87 88  2  0  0  0  0
 87 89  1  0  0  0  0
 79 90  2  0  0  0  0
 90 91  1  0  0  0  0
 78 92  1  0  0  0  0
 92 93  2  0  0  0  0
 93 94  1  0  0  0  0
 93 95  1  0  0  0  0
 95 96  2  0  0  0  0
 96 97  1  0  0  0  0
 97 98  2  0  0  0  0
 98 99  1  0  0  0  0
 99100  2  0  0  0  0
100101  1  0  0  0  0
101102  2  0  0  0  0
102103  1  0  0  0  0
103104  1  0  0  0  0
104105  1  0  0  0  0
102106  1  0  0  0  0
106107  1  0  0  0  0
106108  2  0  0  0  0
 98109  1  0  0  0  0
109110  2  0  0  0  0
110111  1  0  0  0  0
111112  1  0  0  0  0
112113  2  0  0  0  0
113114  1  0  0  0  0
114115  2  0  0  0  0
115116  1  0  0  0  0
116117  1  0  0  0  0
117118  1  0  0  0  0
115119  1  0  0  0  0
119120  2  0  0  0  0
119121  1  0  0  0  0
111122  2  0  0  0  0
122123  1  0  0  0  0
110124  1  0  0  0  0
124125  2  0  0  0  0
125126  1  0  0  0  0
  5  1  2  0  0  0  0
 15 11  2  0  0  0  0
 49 21  1  0  0  0  0
 57 53  2  0  0  0  0
 91 63  1  0  0  0  0
123 95  1  0  0  0  0
  8  4  1  0  0  0  0
 18 14  1  0  0  0  0
 48 23  1  0  0  0  0
 60 56  1  0  0  0  0
 90 65  1  0  0  0  0
122 97  1  0  0  0  0
 34 25  1  0  0  0  0
 52 35  1  0  0  0  0
 76 67  1  0  0  0  0
 94 77  1  0  0  0  0
108 99  1  0  0  0  0
126109  1  0  0  0  0
 46 38  1  0  0  0  0
 88 80  1  0  0  0  0
120112  1  0  0  0  0
  1127  1  0  0  0  0
  6128  1  0  0  0  0
  7129  1  0  0  0  0
  9130  1  0  0  0  0
 10131  1  0  0  0  0
 16132  1  0  0  0  0
 17133  1  0  0  0  0
 19134  1  0  0  0  0
 20135  1  0  0  0  0
 22136  1  0  0  0  0
 26137  1  0  0  0  0
 27138  1  0  0  0  0
 30139  1  0  0  0  0
 30140  1  0  0  0  0
 31141  1  0  0  0  0
 31142  1  0  0  0  0
 31143  1  0  0  0  0
 34144  1  0  0  0  0
 39145  1  0  0  0  0
 40146  1  0  0  0  0
 43147  1  0  0  0  0
 43148  1  0  0  0  0
 44149  1  0  0  0  0
 44150  1  0  0  0  0
 44151  1  0  0  0  0
 46152  1  0  0  0  0
 50153  1  0  0  0  0
 58154  1  0  0  0  0
 59155  1  0  0  0  0
 61156  1  0  0  0  0
 62157  1  0  0  0  0
 64158  1  0  0  0  0
 68159  1  0  0  0  0
 69160  1  0  0  0  0
 72161  1  0  0  0  0
 72162  1  0  0  0  0
 73163  1  0  0  0  0
 73164  1  0  0  0  0
 73165  1  0  0  0  0
 76166  1  0  0  0  0
 81167  1  0  0  0  0
 82168  1  0  0  0  0
 85169  1  0  0  0  0
 85170  1  0  0  0  0
 86171  1  0  0  0  0
 86172  1  0  0  0  0
 86173  1  0  0  0  0
 88174  1  0  0  0  0
 92175  1  0  0  0  0
 96176  1  0  0  0  0
100177  1  0  0  0  0
101178  1  0  0  0  0
104179  1  0  0  0  0
104180  1  0  0  0  0
105181  1  0  0  0  0
105182  1  0  0  0  0
105183  1  0  0  0  0
108184  1  0  0  0  0
113185  1  0  0  0  0
114186  1  0  0  0  0
117187  1  0  0  0  0
117188  1  0  0  0  0
118189  1  0  0  0  0
118190  1  0  0  0  0
118191  1  0  0  0  0
120192  1  0  0  0  0
124193  1  0  0  0  0
125194  1  0  0  0  0
M  END
