
  xtb     03012218153D
 energy: -449.612799786965 gnorm: 0.000297441014 xtb: 6.4.1 (unknown)
226252  0     0  0            999 V2000
    8.4801   -5.6068   -1.6001 C   0  0  0  0  0  0  0  0  0  0  0  0
    9.6150   -5.3431   -2.2803 C   0  0  0  0  0  0  0  0  0  0  0  0
   10.0270   -3.9843   -2.1601 C   0  0  0  0  0  0  0  0  0  0  0  0
   11.1787   -3.3674   -2.6759 C   0  0  0  0  0  0  0  0  0  0  0  0
   12.1315   -4.0955   -3.4995 C   0  0  0  0  0  0  0  0  0  0  0  0
   11.6248   -4.9276   -4.9397 S   0  0  0  0  0  0  0  0  0  0  0  0
   13.2385   -5.4309   -5.3140 C   0  0  0  0  0  0  0  0  0  0  0  0
   13.5222   -6.2880   -6.4977 C   0  0  0  0  0  0  0  0  0  0  0  0
   13.1850   -7.7525   -6.2082 C   0  0  0  0  0  0  0  0  0  0  0  0
   14.1049   -4.9819   -4.3632 C   0  0  0  0  0  0  0  0  0  0  0  0
   15.7942   -5.2881   -4.3826 Cl  0  0  0  0  0  0  0  0  0  0  0  0
   13.4828   -4.2195   -3.3378 C   0  0  0  0  0  0  0  0  0  0  0  0
   14.3556   -3.6012   -1.9981 Cl  0  0  0  0  0  0  0  0  0  0  0  0
   11.3600   -2.0244   -2.3784 C   0  0  0  0  0  0  0  0  0  0  0  0
   10.4539   -1.2697   -1.5916 C   0  0  0  0  0  0  0  0  0  0  0  0
    9.3246   -1.8983   -1.0472 C   0  0  0  0  0  0  0  0  0  0  0  0
    8.3922   -1.2148   -0.1603 C   0  0  0  0  0  0  0  0  0  0  0  0
    8.8904   -0.6594    1.4092 S   0  0  0  0  0  0  0  0  0  0  0  0
    7.2823   -0.1893    1.8465 C   0  0  0  0  0  0  0  0  0  0  0  0
    6.9842    0.3666    3.1943 C   0  0  0  0  0  0  0  0  0  0  0  0
    7.6495   -0.4426    4.3034 C   0  0  0  0  0  0  0  0  0  0  0  0
    6.4276   -0.4384    0.8154 C   0  0  0  0  0  0  0  0  0  0  0  0
    7.0500   -1.0290   -0.3182 C   0  0  0  0  0  0  0  0  0  0  0  0
    6.1892   -1.4284   -1.7459 Cl  0  0  0  0  0  0  0  0  0  0  0  0
    4.7458   -0.0978    0.8483 Cl  0  0  0  0  0  0  0  0  0  0  0  0
    9.1363   -3.2410   -1.3520 C   0  0  0  0  0  0  0  0  0  0  0  0
    7.8331   -4.2361   -0.7684 S   0  0  0  0  0  0  0  0  0  0  0  0
   10.8319    0.0931   -1.4976 C   0  0  0  0  0  0  0  0  0  0  0  0
   11.9881    0.3864   -2.1623 C   0  0  0  0  0  0  0  0  0  0  0  0
   12.6661   -1.0299   -2.9534 S   0  0  0  0  0  0  0  0  0  0  0  0
   12.6737    1.6236   -2.2623 C   0  0  0  0  0  0  0  0  0  0  0  0
   11.9600    3.1342   -1.7256 S   0  0  0  0  0  0  0  0  0  0  0  0
   13.3678    4.0953   -2.1221 C   0  0  0  0  0  0  0  0  0  0  0  0
   14.3331    3.2532   -2.6559 C   0  0  0  0  0  0  0  0  0  0  0  0
   13.9390    1.8865   -2.7397 C   0  0  0  0  0  0  0  0  0  0  0  0
   15.0138    1.2356   -3.2816 N   0  0  0  0  0  0  0  0  0  0  0  0
   15.9663    2.1976   -3.4931 C   0  0  0  0  0  0  0  0  0  0  0  0
   15.6075    3.3924   -3.1416 N   0  0  0  0  0  0  0  0  0  0  0  0
   13.4985    5.5089   -2.0383 C   0  0  0  0  0  0  0  0  0  0  0  0
   12.6097    6.4469   -1.6498 C   0  0  0  0  0  0  0  0  0  0  0  0
   11.3052    6.2179   -1.0900 C   0  0  0  0  0  0  0  0  0  0  0  0
   10.9296    5.3482   -0.1127 C   0  0  0  0  0  0  0  0  0  0  0  0
    9.5345    5.3331    0.1374 C   0  0  0  0  0  0  0  0  0  0  0  0
    8.8120    4.4831    0.9933 C   0  0  0  0  0  0  0  0  0  0  0  0
    9.4746    3.5295    1.8686 C   0  0  0  0  0  0  0  0  0  0  0  0
   10.6588    2.4071    1.2714 S   0  0  0  0  0  0  0  0  0  0  0  0
   10.9163    1.7114    2.8303 C   0  0  0  0  0  0  0  0  0  0  0  0
   11.8932    0.6079    3.0538 C   0  0  0  0  0  0  0  0  0  0  0  0
   12.5464    0.1308    1.7649 C   0  0  0  0  0  0  0  0  0  0  0  0
   10.1256    2.3277    3.7547 C   0  0  0  0  0  0  0  0  0  0  0  0
   10.1291    1.9208    5.4223 Cl  0  0  0  0  0  0  0  0  0  0  0  0
    9.3035    3.3523    3.2152 C   0  0  0  0  0  0  0  0  0  0  0  0
    8.2708    4.3086    4.1965 Cl  0  0  0  0  0  0  0  0  0  0  0  0
    7.4266    4.5750    0.9401 C   0  0  0  0  0  0  0  0  0  0  0  0
    6.7407    5.5262    0.1450 C   0  0  0  0  0  0  0  0  0  0  0  0
    7.4685    6.4352   -0.6425 C   0  0  0  0  0  0  0  0  0  0  0  0
    6.8054    7.4537   -1.4394 C   0  0  0  0  0  0  0  0  0  0  0  0
    5.5293    7.0589   -2.5533 S   0  0  0  0  0  0  0  0  0  0  0  0
    5.3342    8.7075   -3.0415 C   0  0  0  0  0  0  0  0  0  0  0  0
    4.2727    9.0995   -4.0086 C   0  0  0  0  0  0  0  0  0  0  0  0
    2.9047    9.1520   -3.3238 C   0  0  0  0  0  0  0  0  0  0  0  0
    6.2100    9.5055   -2.3687 C   0  0  0  0  0  0  0  0  0  0  0  0
    7.0504    8.7988   -1.4664 C   0  0  0  0  0  0  0  0  0  0  0  0
    8.1857    9.5928   -0.4589 Cl  0  0  0  0  0  0  0  0  0  0  0  0
    6.3107   11.2059   -2.5749 Cl  0  0  0  0  0  0  0  0  0  0  0  0
    8.8499    6.2896   -0.6527 C   0  0  0  0  0  0  0  0  0  0  0  0
    9.9484    7.1588   -1.6824 S   0  0  0  0  0  0  0  0  0  0  0  0
    5.3351    5.3794    0.2410 C   0  0  0  0  0  0  0  0  0  0  0  0
    4.9507    4.3298    1.0204 C   0  0  0  0  0  0  0  0  0  0  0  0
    6.3151    3.5009    1.7373 S   0  0  0  0  0  0  0  0  0  0  0  0
    3.6341    3.8308    1.2341 C   0  0  0  0  0  0  0  0  0  0  0  0
    3.2899    2.6967    1.9057 C   0  0  0  0  0  0  0  0  0  0  0  0
    1.9068    2.4043    1.8544 C   0  0  0  0  0  0  0  0  0  0  0  0
    1.2541    1.2537    2.3298 C   0  0  0  0  0  0  0  0  0  0  0  0
    2.0019    0.1993    2.9943 C   0  0  0  0  0  0  0  0  0  0  0  0
    1.9826   -1.4255    2.3761 S   0  0  0  0  0  0  0  0  0  0  0  0
    3.1268   -1.9687    3.5525 C   0  0  0  0  0  0  0  0  0  0  0  0
    3.6695   -3.3544    3.5183 C   0  0  0  0  0  0  0  0  0  0  0  0
    4.8351   -3.4507    2.5294 C   0  0  0  0  0  0  0  0  0  0  0  0
    3.4763   -0.9453    4.3828 C   0  0  0  0  0  0  0  0  0  0  0  0
    4.5580   -1.1110    5.7046 Cl  0  0  0  0  0  0  0  0  0  0  0  0
    2.8450    0.2870    4.0669 C   0  0  0  0  0  0  0  0  0  0  0  0
    3.0887    1.7156    4.9896 Cl  0  0  0  0  0  0  0  0  0  0  0  0
   -0.1020    1.1433    2.0585 C   0  0  0  0  0  0  0  0  0  0  0  0
   -0.8260    2.1334    1.3510 C   0  0  0  0  0  0  0  0  0  0  0  0
   -0.1737    3.2847    0.8707 C   0  0  0  0  0  0  0  0  0  0  0  0
   -0.8903    4.2818    0.0944 C   0  0  0  0  0  0  0  0  0  0  0  0
   -1.8729    3.8159   -1.2658 S   0  0  0  0  0  0  0  0  0  0  0  0
   -2.3178    5.4524   -1.6117 C   0  0  0  0  0  0  0  0  0  0  0  0
   -3.2754    5.7697   -2.7066 C   0  0  0  0  0  0  0  0  0  0  0  0
   -4.7096    5.4302   -2.2933 C   0  0  0  0  0  0  0  0  0  0  0  0
   -1.7320    6.2978   -0.7183 C   0  0  0  0  0  0  0  0  0  0  0  0
   -0.9188    5.6407    0.2457 C   0  0  0  0  0  0  0  0  0  0  0  0
   -0.1470    6.4903    1.5174 Cl  0  0  0  0  0  0  0  0  0  0  0  0
   -1.9380    8.0012   -0.7332 Cl  0  0  0  0  0  0  0  0  0  0  0  0
    1.1864    3.3889    1.1310 C   0  0  0  0  0  0  0  0  0  0  0  0
    2.2464    4.6316    0.5287 S   0  0  0  0  0  0  0  0  0  0  0  0
   -2.1918    1.7915    1.2226 C   0  0  0  0  0  0  0  0  0  0  0  0
   -2.5104    0.5889    1.7842 C   0  0  0  0  0  0  0  0  0  0  0  0
   -1.1297   -0.1788    2.5345 S   0  0  0  0  0  0  0  0  0  0  0  0
   -3.7944   -0.0359    1.7511 C   0  0  0  0  0  0  0  0  0  0  0  0
   -4.8309    0.3099    0.9329 C   0  0  0  0  0  0  0  0  0  0  0  0
   -5.9765   -0.5021    1.0973 C   0  0  0  0  0  0  0  0  0  0  0  0
   -7.2114   -0.3899    0.4355 C   0  0  0  0  0  0  0  0  0  0  0  0
   -7.4241    0.6135   -0.5950 C   0  0  0  0  0  0  0  0  0  0  0  0
   -6.3543    0.7424   -1.9616 S   0  0  0  0  0  0  0  0  0  0  0  0
   -7.2507    2.0567   -2.6414 C   0  0  0  0  0  0  0  0  0  0  0  0
   -6.8748    2.6566   -3.9513 C   0  0  0  0  0  0  0  0  0  0  0  0
   -7.5712    1.9284   -5.1034 C   0  0  0  0  0  0  0  0  0  0  0  0
   -8.3161    2.3623   -1.8484 C   0  0  0  0  0  0  0  0  0  0  0  0
   -9.4319    3.6188   -2.1935 Cl  0  0  0  0  0  0  0  0  0  0  0  0
   -8.4174    1.5490   -0.6874 C   0  0  0  0  0  0  0  0  0  0  0  0
   -9.6237    1.7970    0.5039 Cl  0  0  0  0  0  0  0  0  0  0  0  0
   -8.2071   -1.2826    0.8085 C   0  0  0  0  0  0  0  0  0  0  0  0
   -8.0243   -2.2604    1.8188 C   0  0  0  0  0  0  0  0  0  0  0  0
   -6.7855   -2.3763    2.4753 C   0  0  0  0  0  0  0  0  0  0  0  0
   -6.5758   -3.3700    3.5151 C   0  0  0  0  0  0  0  0  0  0  0  0
   -7.6553   -3.4819    4.8753 S   0  0  0  0  0  0  0  0  0  0  0  0
   -6.7558   -4.7792    5.5859 C   0  0  0  0  0  0  0  0  0  0  0  0
   -7.2089   -5.4246    6.8485 C   0  0  0  0  0  0  0  0  0  0  0  0
   -8.4257   -6.3189    6.6009 C   0  0  0  0  0  0  0  0  0  0  0  0
   -5.6906   -5.0999    4.7996 C   0  0  0  0  0  0  0  0  0  0  0  0
   -5.5805   -4.3003    3.6290 C   0  0  0  0  0  0  0  0  0  0  0  0
   -4.3640   -4.5658    2.4523 Cl  0  0  0  0  0  0  0  0  0  0  0  0
   -4.5693   -6.3461    5.1647 Cl  0  0  0  0  0  0  0  0  0  0  0  0
   -5.7841   -1.4928    2.0928 C   0  0  0  0  0  0  0  0  0  0  0  0
   -4.1885   -1.3917    2.7801 S   0  0  0  0  0  0  0  0  0  0  0  0
   -9.1775   -3.0642    1.9869 C   0  0  0  0  0  0  0  0  0  0  0  0
  -10.1997   -2.7333    1.1454 C   0  0  0  0  0  0  0  0  0  0  0  0
   -9.7859   -1.4021    0.0910 S   0  0  0  0  0  0  0  0  0  0  0  0
  -11.4874   -3.3482    1.0693 C   0  0  0  0  0  0  0  0  0  0  0  0
  -12.0487   -4.2009    1.9742 C   0  0  0  0  0  0  0  0  0  0  0  0
  -13.3370   -4.6549    1.5976 C   0  0  0  0  0  0  0  0  0  0  0  0
  -14.2019   -5.5026    2.3100 C   0  0  0  0  0  0  0  0  0  0  0  0
  -13.8402   -6.0485    3.6079 C   0  0  0  0  0  0  0  0  0  0  0  0
  -12.3675   -6.9431    3.8481 S   0  0  0  0  0  0  0  0  0  0  0  0
  -12.7206   -7.2331    5.5170 C   0  0  0  0  0  0  0  0  0  0  0  0
  -11.8243   -8.0600    6.3711 C   0  0  0  0  0  0  0  0  0  0  0  0
  -12.2807   -9.5210    6.3857 C   0  0  0  0  0  0  0  0  0  0  0  0
  -13.9124   -6.6643    5.8531 C   0  0  0  0  0  0  0  0  0  0  0  0
  -14.5915   -6.7345    7.4268 Cl  0  0  0  0  0  0  0  0  0  0  0  0
  -14.5487   -5.9905    4.7763 C   0  0  0  0  0  0  0  0  0  0  0  0
  -16.0151   -5.1264    4.9727 Cl  0  0  0  0  0  0  0  0  0  0  0  0
  -15.4210   -5.8045    1.7134 C   0  0  0  0  0  0  0  0  0  0  0  0
  -15.8192   -5.2759    0.4619 C   0  0  0  0  0  0  0  0  0  0  0  0
  -14.9802   -4.3817   -0.2205 C   0  0  0  0  0  0  0  0  0  0  0  0
  -15.3852   -3.7684   -1.4744 C   0  0  0  0  0  0  0  0  0  0  0  0
  -14.3721   -3.8324   -2.8852 S   0  0  0  0  0  0  0  0  0  0  0  0
  -15.5040   -2.9310   -3.8339 C   0  0  0  0  0  0  0  0  0  0  0  0
  -15.2016   -2.5610   -5.2438 C   0  0  0  0  0  0  0  0  0  0  0  0
  -14.3119   -1.3168   -5.2995 C   0  0  0  0  0  0  0  0  0  0  0  0
  -16.5917   -2.5961   -3.0838 C   0  0  0  0  0  0  0  0  0  0  0  0
  -16.5314   -3.0743   -1.7472 C   0  0  0  0  0  0  0  0  0  0  0  0
  -17.7490   -2.7314   -0.5869 Cl  0  0  0  0  0  0  0  0  0  0  0  0
  -17.9226   -1.6893   -3.6771 Cl  0  0  0  0  0  0  0  0  0  0  0  0
  -13.7464   -4.1094    0.3566 C   0  0  0  0  0  0  0  0  0  0  0  0
  -12.5359   -3.0457   -0.2984 S   0  0  0  0  0  0  0  0  0  0  0  0
  -17.0716   -5.8105    0.0408 C   0  0  0  0  0  0  0  0  0  0  0  0
  -17.5915   -6.6843    0.9266 C   0  0  0  0  0  0  0  0  0  0  0  0
  -16.6077   -6.9194    2.3283 S   0  0  0  0  0  0  0  0  0  0  0  0
    7.9610   -6.5423   -1.5263 H   0  0  0  0  0  0  0  0  0  0  0  0
   10.1541   -6.0792   -2.8475 H   0  0  0  0  0  0  0  0  0  0  0  0
   14.5805   -6.1972   -6.7482 H   0  0  0  0  0  0  0  0  0  0  0  0
   12.9304   -5.9419   -7.3472 H   0  0  0  0  0  0  0  0  0  0  0  0
   12.1295   -7.8558   -5.9675 H   0  0  0  0  0  0  0  0  0  0  0  0
   13.4060   -8.3651   -7.0778 H   0  0  0  0  0  0  0  0  0  0  0  0
   13.7713   -8.1159   -5.3679 H   0  0  0  0  0  0  0  0  0  0  0  0
    7.3339    1.4008    3.2483 H   0  0  0  0  0  0  0  0  0  0  0  0
    5.9014    0.3725    3.3305 H   0  0  0  0  0  0  0  0  0  0  0  0
    7.2982   -1.4717    4.2925 H   0  0  0  0  0  0  0  0  0  0  0  0
    8.7293   -0.4426    4.1748 H   0  0  0  0  0  0  0  0  0  0  0  0
    7.4158   -0.0072    5.2704 H   0  0  0  0  0  0  0  0  0  0  0  0
   10.2675    0.8341   -0.9618 H   0  0  0  0  0  0  0  0  0  0  0  0
   15.0847    0.2513   -3.4768 H   0  0  0  0  0  0  0  0  0  0  0  0
   16.9244    1.9639   -3.9155 H   0  0  0  0  0  0  0  0  0  0  0  0
   14.4542    5.8443   -2.4221 H   0  0  0  0  0  0  0  0  0  0  0  0
   12.8642    7.4846   -1.8208 H   0  0  0  0  0  0  0  0  0  0  0  0
   11.6361    4.7487    0.4299 H   0  0  0  0  0  0  0  0  0  0  0  0
   12.6590    0.9562    3.7541 H   0  0  0  0  0  0  0  0  0  0  0  0
   11.3730   -0.2257    3.5347 H   0  0  0  0  0  0  0  0  0  0  0  0
   13.2643   -0.6567    1.9774 H   0  0  0  0  0  0  0  0  0  0  0  0
   13.0659    0.9505    1.2729 H   0  0  0  0  0  0  0  0  0  0  0  0
   11.7948   -0.2593    1.0827 H   0  0  0  0  0  0  0  0  0  0  0  0
    4.2403    8.3771   -4.8266 H   0  0  0  0  0  0  0  0  0  0  0  0
    4.5183   10.0810   -4.4175 H   0  0  0  0  0  0  0  0  0  0  0  0
    2.1395    9.4411   -4.0390 H   0  0  0  0  0  0  0  0  0  0  0  0
    2.9161    9.8772   -2.5140 H   0  0  0  0  0  0  0  0  0  0  0  0
    2.6498    8.1773   -2.9141 H   0  0  0  0  0  0  0  0  0  0  0  0
    4.6262    6.0070   -0.2676 H   0  0  0  0  0  0  0  0  0  0  0  0
    4.0187    2.0791    2.3958 H   0  0  0  0  0  0  0  0  0  0  0  0
    4.0138   -3.6234    4.5187 H   0  0  0  0  0  0  0  0  0  0  0  0
    2.8813   -4.0472    3.2197 H   0  0  0  0  0  0  0  0  0  0  0  0
    5.6305   -2.7660    2.8131 H   0  0  0  0  0  0  0  0  0  0  0  0
    4.5032   -3.1937    1.5267 H   0  0  0  0  0  0  0  0  0  0  0  0
    5.2338   -4.4613    2.5157 H   0  0  0  0  0  0  0  0  0  0  0  0
   -3.2002    6.8334   -2.9372 H   0  0  0  0  0  0  0  0  0  0  0  0
   -3.0115    5.1984   -3.5988 H   0  0  0  0  0  0  0  0  0  0  0  0
   -4.9929    5.9996   -1.4119 H   0  0  0  0  0  0  0  0  0  0  0  0
   -5.3973    5.6727   -3.0986 H   0  0  0  0  0  0  0  0  0  0  0  0
   -4.7976    4.3703   -2.0655 H   0  0  0  0  0  0  0  0  0  0  0  0
   -2.9184    2.4215    0.7463 H   0  0  0  0  0  0  0  0  0  0  0  0
   -4.7719    1.1131    0.2233 H   0  0  0  0  0  0  0  0  0  0  0  0
   -5.7934    2.5952   -4.0819 H   0  0  0  0  0  0  0  0  0  0  0  0
   -7.1722    3.7069   -3.9531 H   0  0  0  0  0  0  0  0  0  0  0  0
   -7.2921    2.3784   -6.0522 H   0  0  0  0  0  0  0  0  0  0  0  0
   -8.6503    1.9920   -4.9908 H   0  0  0  0  0  0  0  0  0  0  0  0
   -7.2841    0.8798   -5.1157 H   0  0  0  0  0  0  0  0  0  0  0  0
   -7.4696   -4.6554    7.5783 H   0  0  0  0  0  0  0  0  0  0  0  0
   -6.3870   -6.0206    7.2480 H   0  0  0  0  0  0  0  0  0  0  0  0
   -8.7349   -6.7922    7.5289 H   0  0  0  0  0  0  0  0  0  0  0  0
   -8.1811   -7.0927    5.8772 H   0  0  0  0  0  0  0  0  0  0  0  0
   -9.2541   -5.7286    6.2156 H   0  0  0  0  0  0  0  0  0  0  0  0
   -9.2388   -3.8746    2.6885 H   0  0  0  0  0  0  0  0  0  0  0  0
  -11.5654   -4.4853    2.8899 H   0  0  0  0  0  0  0  0  0  0  0  0
  -11.8448   -7.6638    7.3884 H   0  0  0  0  0  0  0  0  0  0  0  0
  -10.8042   -7.9996    5.9905 H   0  0  0  0  0  0  0  0  0  0  0  0
  -13.2938   -9.5954    6.7718 H   0  0  0  0  0  0  0  0  0  0  0  0
  -11.6223  -10.1106    7.0180 H   0  0  0  0  0  0  0  0  0  0  0  0
  -12.2608   -9.9331    5.3797 H   0  0  0  0  0  0  0  0  0  0  0  0
  -14.6936   -3.3921   -5.7361 H   0  0  0  0  0  0  0  0  0  0  0  0
  -16.1405   -2.3654   -5.7645 H   0  0  0  0  0  0  0  0  0  0  0  0
  -13.3750   -1.5001   -4.7788 H   0  0  0  0  0  0  0  0  0  0  0  0
  -14.0946   -1.0592   -6.3325 H   0  0  0  0  0  0  0  0  0  0  0  0
  -14.8121   -0.4747   -4.8279 H   0  0  0  0  0  0  0  0  0  0  0  0
  -17.5404   -5.5579   -0.8920 H   0  0  0  0  0  0  0  0  0  0  0  0
  -18.5143   -7.2258    0.8530 H   0  0  0  0  0  0  0  0  0  0  0  0
  1  2  2  0  0  0  0
  2  3  1  0  0  0  0
  3  4  2  0  0  0  0
  4  5  1  0  0  0  0
  5  6  1  0  0  0  0
  6  7  1  0  0  0  0
  7  8  1  0  0  0  0
  8  9  1  0  0  0  0
  7 10  2  0  0  0  0
 10 11  1  0  0  0  0
 10 12  1  0  0  0  0
 12 13  1  0  0  0  0
  4 14  1  0  0  0  0
 14 15  2  0  0  0  0
 15 16  1  0  0  0  0
 16 17  1  0  0  0  0
 17 18  1  0  0  0  0
 18 19  1  0  0  0  0
 19 20  1  0  0  0  0
 20 21  1  0  0  0  0
 19 22  2  0  0  0  0
 22 23  1  0  0  0  0
 23 24  1  0  0  0  0
 22 25  1  0  0  0  0
 16 26  2  0  0  0  0
 26 27  1  0  0  0  0
 15 28  1  0  0  0  0
 28 29  2  0  0  0  0
 29 30  1  0  0  0  0
 29 31  1  0  0  0  0
 31 32  1  0  0  0  0
 32 33  1  0  0  0  0
 33 34  2  0  0  0  0
 34 35  1  0  0  0  0
 35 36  1  0  0  0  0
 36 37  1  0  0  0  0
 37 38  2  0  0  0  0
 33 39  1  0  0  0  0
 39 40  2  0  0  0  0
 40 41  1  0  0  0  0
 41 42  2  0  0  0  0
 42 43  1  0  0  0  0
 43 44  2  0  0  0  0
 44 45  1  0  0  0  0
 45 46  1  0  0  0  0
 46 47  1  0  0  0  0
 47 48  1  0  0  0  0
 48 49  1  0  0  0  0
 47 50  2  0  0  0  0
 50 51  1  0  0  0  0
 50 52  1  0  0  0  0
 52 53  1  0  0  0  0
 44 54  1  0  0  0  0
 54 55  2  0  0  0  0
 55 56  1  0  0  0  0
 56 57  1  0  0  0  0
 57 58  1  0  0  0  0
 58 59  1  0  0  0  0
 59 60  1  0  0  0  0
 60 61  1  0  0  0  0
 59 62  2  0  0  0  0
 62 63  1  0  0  0  0
 63 64  1  0  0  0  0
 62 65  1  0  0  0  0
 56 66  2  0  0  0  0
 66 67  1  0  0  0  0
 55 68  1  0  0  0  0
 68 69  2  0  0  0  0
 69 70  1  0  0  0  0
 69 71  1  0  0  0  0
 71 72  2  0  0  0  0
 72 73  1  0  0  0  0
 73 74  2  0  0  0  0
 74 75  1  0  0  0  0
 75 76  1  0  0  0  0
 76 77  1  0  0  0  0
 77 78  1  0  0  0  0
 78 79  1  0  0  0  0
 77 80  2  0  0  0  0
 80 81  1  0  0  0  0
 80 82  1  0  0  0  0
 82 83  1  0  0  0  0
 74 84  1  0  0  0  0
 84 85  2  0  0  0  0
 85 86  1  0  0  0  0
 86 87  1  0  0  0  0
 87 88  1  0  0  0  0
 88 89  1  0  0  0  0
 89 90  1  0  0  0  0
 90 91  1  0  0  0  0
 89 92  2  0  0  0  0
 92 93  1  0  0  0  0
 93 94  1  0  0  0  0
 92 95  1  0  0  0  0
 86 96  2  0  0  0  0
 96 97  1  0  0  0  0
 85 98  1  0  0  0  0
 98 99  2  0  0  0  0
 99100  1  0  0  0  0
 99101  1  0  0  0  0
101102  2  0  0  0  0
102103  1  0  0  0  0
103104  2  0  0  0  0
104105  1  0  0  0  0
105106  1  0  0  0  0
106107  1  0  0  0  0
107108  1  0  0  0  0
108109  1  0  0  0  0
107110  2  0  0  0  0
110111  1  0  0  0  0
110112  1  0  0  0  0
112113  1  0  0  0  0
104114  1  0  0  0  0
114115  2  0  0  0  0
115116  1  0  0  0  0
116117  1  0  0  0  0
117118  1  0  0  0  0
118119  1  0  0  0  0
119120  1  0  0  0  0
120121  1  0  0  0  0
119122  2  0  0  0  0
122123  1  0  0  0  0
123124  1  0  0  0  0
122125  1  0  0  0  0
116126  2  0  0  0  0
126127  1  0  0  0  0
115128  1  0  0  0  0
128129  2  0  0  0  0
129130  1  0  0  0  0
129131  1  0  0  0  0
131132  2  0  0  0  0
132133  1  0  0  0  0
133134  2  0  0  0  0
134135  1  0  0  0  0
135136  1  0  0  0  0
136137  1  0  0  0  0
137138  1  0  0  0  0
138139  1  0  0  0  0
137140  2  0  0  0  0
140141  1  0  0  0  0
140142  1  0  0  0  0
142143  1  0  0  0  0
134144  1  0  0  0  0
144145  2  0  0  0  0
145146  1  0  0  0  0
146147  1  0  0  0  0
147148  1  0  0  0  0
148149  1  0  0  0  0
149150  1  0  0  0  0
150151  1  0  0  0  0
149152  2  0  0  0  0
152153  1  0  0  0  0
153154  1  0  0  0  0
152155  1  0  0  0  0
146156  2  0  0  0  0
156157  1  0  0  0  0
145158  1  0  0  0  0
158159  2  0  0  0  0
159160  1  0  0  0  0
 27  1  1  0  0  0  0
 35 31  2  0  0  0  0
 67 41  1  0  0  0  0
 97 71  1  0  0  0  0
127101  1  0  0  0  0
157131  1  0  0  0  0
 26  3  1  0  0  0  0
 38 34  1  0  0  0  0
 66 43  1  0  0  0  0
 96 73  1  0  0  0  0
126103  1  0  0  0  0
156133  1  0  0  0  0
 12  5  2  0  0  0  0
 30 14  1  0  0  0  0
 52 45  2  0  0  0  0
 70 54  1  0  0  0  0
 82 75  2  0  0  0  0
100 84  1  0  0  0  0
112105  2  0  0  0  0
130114  1  0  0  0  0
142135  2  0  0  0  0
160144  1  0  0  0  0
 23 17  2  0  0  0  0
 63 57  2  0  0  0  0
 93 87  2  0  0  0  0
123117  2  0  0  0  0
153147  2  0  0  0  0
  1161  1  0  0  0  0
  2162  1  0  0  0  0
  8163  1  0  0  0  0
  8164  1  0  0  0  0
  9165  1  0  0  0  0
  9166  1  0  0  0  0
  9167  1  0  0  0  0
 20168  1  0  0  0  0
 20169  1  0  0  0  0
 21170  1  0  0  0  0
 21171  1  0  0  0  0
 21172  1  0  0  0  0
 28173  1  0  0  0  0
 36174  1  0  0  0  0
 37175  1  0  0  0  0
 39176  1  0  0  0  0
 40177  1  0  0  0  0
 42178  1  0  0  0  0
 48179  1  0  0  0  0
 48180  1  0  0  0  0
 49181  1  0  0  0  0
 49182  1  0  0  0  0
 49183  1  0  0  0  0
 60184  1  0  0  0  0
 60185  1  0  0  0  0
 61186  1  0  0  0  0
 61187  1  0  0  0  0
 61188  1  0  0  0  0
 68189  1  0  0  0  0
 72190  1  0  0  0  0
 78191  1  0  0  0  0
 78192  1  0  0  0  0
 79193  1  0  0  0  0
 79194  1  0  0  0  0
 79195  1  0  0  0  0
 90196  1  0  0  0  0
 90197  1  0  0  0  0
 91198  1  0  0  0  0
 91199  1  0  0  0  0
 91200  1  0  0  0  0
 98201  1  0  0  0  0
102202  1  0  0  0  0
108203  1  0  0  0  0
108204  1  0  0  0  0
109205  1  0  0  0  0
109206  1  0  0  0  0
109207  1  0  0  0  0
120208  1  0  0  0  0
120209  1  0  0  0  0
121210  1  0  0  0  0
121211  1  0  0  0  0
121212  1  0  0  0  0
128213  1  0  0  0  0
132214  1  0  0  0  0
138215  1  0  0  0  0
138216  1  0  0  0  0
139217  1  0  0  0  0
139218  1  0  0  0  0
139219  1  0  0  0  0
150220  1  0  0  0  0
150221  1  0  0  0  0
151222  1  0  0  0  0
151223  1  0  0  0  0
151224  1  0  0  0  0
158225  1  0  0  0  0
159226  1  0  0  0  0
M  END
