223

C         -0.10310      -12.80040        9.20560
C          0.84190      -11.92440        8.80670
C          0.56600      -11.35740        7.52860
C          1.30890      -10.39450        6.82700
C          2.53320       -9.82610        7.37030
S          2.56770       -9.06030        8.93120
C          4.24680       -8.66680        8.79000
C          4.95780       -7.90130        9.85090
C          4.86630       -6.39520        9.59380
C          4.73520       -9.10300        7.59490
Cl         6.36410       -8.89660        7.09690
C          3.76870       -9.76240        6.78850
Cl         4.16160      -10.47150        5.27860
C          0.81300       -9.99060        5.59360
C         -0.37420      -10.52490        5.03670
C         -1.11960      -11.48820        5.73660
C         -2.36410      -11.99600        5.18260
S         -3.60470      -10.89670        4.65010
C         -4.63510      -12.18370        4.12450
C         -5.93280      -11.89180        3.45580
C         -5.71210      -11.23150        2.09290
C         -4.04310      -13.38760        4.36380
C         -2.75970      -13.28640        4.96890
Cl        -1.78940      -14.66020        5.29430
Cl        -4.75240      -14.90160        3.97640
C         -0.62760      -11.88260        6.97460
S         -1.38120      -13.01190        8.06230
C         -0.66070       -9.96100        3.77140
C          0.22290       -8.99650        3.38990
S          1.49270       -8.75480        4.56980
C          0.14300       -8.21780        2.19900
C          0.88870       -7.13950        1.82550
C          0.46890       -6.56630        0.60040
C          1.02930       -5.47170       -0.07630
C          2.14470       -4.71440        0.47340
S          2.01010       -3.89530        2.00210
C          3.60800       -3.23600        1.87670
C          4.15670       -2.34510        2.93520
C          4.08070       -2.98770        4.31860
C          4.19900       -3.64950        0.72070
Cl         5.79690       -3.22910        0.25200
C          3.36740       -4.47570       -0.08440
Cl         3.88280       -5.14180       -1.57790
C          0.44290       -5.11070       -1.28020
C         -0.68420       -5.77500       -1.82430
C         -1.24610       -6.87670       -1.15080
C         -2.40450       -7.56700       -1.69030
S         -2.43770       -8.07940       -3.35480
C         -4.02410       -8.74620       -3.20730
C         -4.73420       -9.32040       -4.38220
C         -5.60290       -8.25770       -5.06280
C         -4.49000       -8.57630       -1.93700
C         -3.57850       -7.91150       -1.07470
Cl        -3.99830       -7.49990        0.53450
Cl        -6.03010       -9.11300       -1.40530
C         -0.64330       -7.25010        0.04400
S         -1.11120       -8.59510        1.03730
C         -1.16610       -5.12970       -2.98650
C         -0.44570       -4.01870       -3.32660
S          0.90270       -3.74260       -2.24880
C         -0.75030       -3.08250       -4.35300
S          0.10590       -1.57780       -4.53050
C         -0.96190       -1.00840       -5.77840
C         -1.91130       -1.97430       -6.04870
C         -1.79170       -3.13010       -5.26040
O         -2.66140       -4.17750       -5.39090
C         -3.66440       -4.09400       -6.28910
O         -4.42280       -5.01160       -6.41640
C         -3.81340       -2.81120       -7.12790
O         -4.71120       -2.68750       -7.90860
O         -2.90830       -1.82430       -6.97040
C         -0.89860        0.31170       -6.29680
C          0.03690        1.26960       -6.02260
C         -0.29510        2.53780       -6.55040
C          0.39840        3.75350       -6.37190
C          1.70450        3.78410       -5.74230
S          2.06610        4.88540       -4.44290
C          3.67360        4.27370       -4.26400
C          4.60810        4.86570       -3.26920
C          5.02030        6.28140       -3.67660
C          3.90540        3.27860       -5.16680
Cl         5.39030        2.42780       -5.30120
C          2.79210        2.99340       -6.00040
Cl         2.86740        1.83480       -7.26450
C         -0.29880        4.90820       -6.69310
C         -1.61080        4.90390       -7.22960
C         -2.21770        3.68570       -7.58760
C         -3.51660        3.66270       -8.22750
S         -4.78450        2.58810       -7.71500
C         -5.87410        3.16990       -8.92500
C         -7.22570        2.56820       -9.08570
C         -7.13980        1.23520       -9.83390
C         -5.27720        4.13820       -9.67740
C         -3.94620        4.42930       -9.27890
Cl        -2.96660        5.57240      -10.10150
Cl        -6.04180        4.94410      -10.98610
C         -1.55520        2.52600       -7.19830
S         -2.21810        0.91750       -7.27540
C         -2.26100        6.15330       -7.04730
C         -1.48830        7.07240       -6.40030
S          0.18170        6.51800       -6.23160
C         -1.89500        7.94480       -5.32820
C         -2.83410        7.48330       -4.44740
C         -2.52760        7.78950       -3.09980
C         -2.90330        6.99800       -2.00350
C         -3.75540        5.83010       -2.22640
S         -5.35360        5.64330       -1.58670
C         -5.56540        4.10680       -2.36060
C         -6.81390        3.31750       -2.17510
C         -6.78190        2.54600       -0.85370
C         -4.44370        3.76590       -3.05600
Cl        -4.26300        2.32310       -3.97150
C         -3.41510        4.74210       -2.98090
Cl        -1.88570        4.54030       -3.74510
C         -2.18520        7.16380       -0.83180
C         -1.15180        8.12270       -0.68900
C         -0.76220        8.89430       -1.79720
C          0.47920        9.66200       -1.77940
S          0.53410       11.37550       -2.03090
C          2.26390       11.40420       -1.95450
C          3.01680       12.68510       -2.04670
C          3.07390       13.38530       -0.68690
C          2.75250       10.14890       -1.74540
C          1.74130        9.15570       -1.65210
Cl         2.07560        7.48330       -1.45600
Cl         4.42200        9.77470       -1.62140
C         -1.43090        8.67800       -2.99100
S         -0.79740        9.08640       -4.57070
C         -0.41810        7.93060        0.51370
C         -0.78520        6.80880        1.18930
S         -2.19200        6.03120        0.48940
C          0.02270        6.06730        2.12070
C          0.38640        4.77580        1.89500
C          1.42740        4.32450        2.74290
C          2.16920        3.13510        2.63380
C          2.06470        2.31100        1.44440
S          2.00840        0.57260        1.50340
C          1.94970        0.43120       -0.21770
C          1.95030       -0.88880       -0.90130
C          3.31840       -1.16810       -1.52600
C          1.98000        1.66540       -0.79530
Cl         1.91570        1.92140       -2.49240
C          2.05600        2.73110        0.13760
Cl         2.23320        4.35930       -0.37840
C          3.06470        2.86960        3.66510
C          3.30870        3.78180        4.71890
C          2.68820        5.04260        4.72390
C          3.03960        6.05290        5.70740
S          1.82770        6.84730        6.66670
C          3.00390        7.80850        7.49500
C          2.59600        8.82160        8.50650
C          2.17870       10.12930        7.82930
C          4.25590        7.53040        7.03260
C          4.28140        6.53040        6.02390
Cl         5.72810        6.04420        5.23900
Cl         5.68090        8.29670        7.60500
C          1.74510        5.28220        3.73350
S          0.87330        6.77300        3.47420
C          4.24040        3.25700        5.66280
C          4.69890        2.03640        5.32230
S          4.03760        1.43700        3.83930
H         -0.13620      -13.36070       10.11950
H          1.71050      -11.67910        9.38940
H          4.51740       -8.13310       10.82190
H          6.00640       -8.20550        9.85920
H          3.82700       -6.07550        9.58590
H          5.39350       -5.85170       10.37310
H          5.31280       -6.14990        8.63370
H         -6.52620      -11.22500        4.08580
H         -6.47810      -12.82860        3.33220
H         -5.17630      -10.29210        2.20910
H         -6.66750      -11.02980        1.61630
H         -5.13180      -11.88350        1.44460
H         -1.49550      -10.24840        3.15890
H          1.70680       -6.76410        2.41320
H          5.19290       -2.11350        2.68450
H          3.59280       -1.40790        2.94370
H          4.65100       -3.91320        4.34150
H          4.48590       -2.31000        5.06470
H          3.04750       -3.21000        4.57480
H         -4.00350       -9.70620       -5.09440
H         -5.36590      -10.14510       -4.04490
H         -4.99740       -7.42620       -5.41460
H         -6.11890       -8.69250       -5.91400
H         -6.34450       -7.87570       -4.36590
H         -2.03240       -5.44910       -3.53250
H          0.90090        1.07590       -5.41310
H          5.48890        4.22590       -3.19310
H          4.12200        4.90310       -2.29230
H          5.69250        6.70150       -2.93320
H          4.14370        6.92080       -3.75430
H          5.52730        6.26840       -4.63860
H         -7.85650        3.26420       -9.64140
H         -7.66850        2.40170       -8.10190
H         -6.51570        0.53240       -9.28710
H         -6.71200        1.38430      -10.82200
H         -8.13190        0.80630       -9.94540
H         -3.30420        6.30520       -7.25770
H         -3.59290        6.77680       -4.72940
H         -7.67380        3.98960       -2.18100
H         -6.90960        2.61740       -3.00690
H         -5.93670        1.86270       -0.83700
H         -6.68900        3.23440       -0.01710
H         -7.69690        1.97230       -0.73470
H          4.03010       12.47100       -2.39140
H          2.53100       13.33990       -2.77200
H          3.56470       12.74840        0.04460
H          3.63050       14.31480       -0.76880
H          2.06930       13.60910       -0.33570
H          0.42060        8.53780        0.80310
H         -0.05890        4.17520        1.12290
H          1.19300       -0.88590       -1.68880
H          1.70320       -1.67030       -0.18230
H          3.55060       -0.41860       -2.27690
H          4.09290       -1.14780       -0.76420
H          3.31550       -2.14430       -2.00080
H          1.76060        8.43390        9.09200
H          3.43770        9.00730        9.17600
H          1.88100       10.85850        8.57770
H          3.00670       10.53710        7.25500
H          1.34190        9.95500        7.15710
H          4.53080        3.77610        6.55740
H          5.40010        1.42350        5.85390
