
  xtb     03012221273D
 energy: -455.807808907002 gnorm: 0.000403719241 xtb: 6.4.1 (unknown)
223249  0     0  0            999 V2000
   -0.1031  -12.8004    9.2056 C   0  0  0  0  0  0  0  0  0  0  0  0
    0.8419  -11.9244    8.8067 C   0  0  0  0  0  0  0  0  0  0  0  0
    0.5660  -11.3574    7.5286 C   0  0  0  0  0  0  0  0  0  0  0  0
    1.3089  -10.3945    6.8270 C   0  0  0  0  0  0  0  0  0  0  0  0
    2.5332   -9.8261    7.3703 C   0  0  0  0  0  0  0  0  0  0  0  0
    2.5677   -9.0603    8.9312 S   0  0  0  0  0  0  0  0  0  0  0  0
    4.2468   -8.6668    8.7900 C   0  0  0  0  0  0  0  0  0  0  0  0
    4.9578   -7.9013    9.8509 C   0  0  0  0  0  0  0  0  0  0  0  0
    4.8663   -6.3952    9.5938 C   0  0  0  0  0  0  0  0  0  0  0  0
    4.7352   -9.1030    7.5949 C   0  0  0  0  0  0  0  0  0  0  0  0
    6.3641   -8.8966    7.0969 Cl  0  0  0  0  0  0  0  0  0  0  0  0
    3.7687   -9.7624    6.7885 C   0  0  0  0  0  0  0  0  0  0  0  0
    4.1616  -10.4715    5.2786 Cl  0  0  0  0  0  0  0  0  0  0  0  0
    0.8130   -9.9906    5.5936 C   0  0  0  0  0  0  0  0  0  0  0  0
   -0.3742  -10.5249    5.0367 C   0  0  0  0  0  0  0  0  0  0  0  0
   -1.1196  -11.4882    5.7366 C   0  0  0  0  0  0  0  0  0  0  0  0
   -2.3641  -11.9960    5.1826 C   0  0  0  0  0  0  0  0  0  0  0  0
   -3.6047  -10.8967    4.6501 S   0  0  0  0  0  0  0  0  0  0  0  0
   -4.6351  -12.1837    4.1245 C   0  0  0  0  0  0  0  0  0  0  0  0
   -5.9328  -11.8918    3.4558 C   0  0  0  0  0  0  0  0  0  0  0  0
   -5.7121  -11.2315    2.0929 C   0  0  0  0  0  0  0  0  0  0  0  0
   -4.0431  -13.3876    4.3638 C   0  0  0  0  0  0  0  0  0  0  0  0
   -2.7597  -13.2864    4.9689 C   0  0  0  0  0  0  0  0  0  0  0  0
   -1.7894  -14.6602    5.2943 Cl  0  0  0  0  0  0  0  0  0  0  0  0
   -4.7524  -14.9016    3.9764 Cl  0  0  0  0  0  0  0  0  0  0  0  0
   -0.6276  -11.8826    6.9746 C   0  0  0  0  0  0  0  0  0  0  0  0
   -1.3812  -13.0119    8.0623 S   0  0  0  0  0  0  0  0  0  0  0  0
   -0.6607   -9.9610    3.7714 C   0  0  0  0  0  0  0  0  0  0  0  0
    0.2229   -8.9965    3.3899 C   0  0  0  0  0  0  0  0  0  0  0  0
    1.4927   -8.7548    4.5698 S   0  0  0  0  0  0  0  0  0  0  0  0
    0.1430   -8.2178    2.1990 C   0  0  0  0  0  0  0  0  0  0  0  0
    0.8887   -7.1395    1.8255 C   0  0  0  0  0  0  0  0  0  0  0  0
    0.4689   -6.5663    0.6004 C   0  0  0  0  0  0  0  0  0  0  0  0
    1.0293   -5.4717   -0.0763 C   0  0  0  0  0  0  0  0  0  0  0  0
    2.1447   -4.7144    0.4734 C   0  0  0  0  0  0  0  0  0  0  0  0
    2.0101   -3.8953    2.0021 S   0  0  0  0  0  0  0  0  0  0  0  0
    3.6080   -3.2360    1.8767 C   0  0  0  0  0  0  0  0  0  0  0  0
    4.1567   -2.3451    2.9352 C   0  0  0  0  0  0  0  0  0  0  0  0
    4.0807   -2.9877    4.3186 C   0  0  0  0  0  0  0  0  0  0  0  0
    4.1990   -3.6495    0.7207 C   0  0  0  0  0  0  0  0  0  0  0  0
    5.7969   -3.2291    0.2520 Cl  0  0  0  0  0  0  0  0  0  0  0  0
    3.3674   -4.4757   -0.0844 C   0  0  0  0  0  0  0  0  0  0  0  0
    3.8828   -5.1418   -1.5779 Cl  0  0  0  0  0  0  0  0  0  0  0  0
    0.4429   -5.1107   -1.2802 C   0  0  0  0  0  0  0  0  0  0  0  0
   -0.6842   -5.7750   -1.8243 C   0  0  0  0  0  0  0  0  0  0  0  0
   -1.2461   -6.8767   -1.1508 C   0  0  0  0  0  0  0  0  0  0  0  0
   -2.4045   -7.5670   -1.6903 C   0  0  0  0  0  0  0  0  0  0  0  0
   -2.4377   -8.0794   -3.3548 S   0  0  0  0  0  0  0  0  0  0  0  0
   -4.0241   -8.7462   -3.2073 C   0  0  0  0  0  0  0  0  0  0  0  0
   -4.7342   -9.3204   -4.3822 C   0  0  0  0  0  0  0  0  0  0  0  0
   -5.6029   -8.2577   -5.0628 C   0  0  0  0  0  0  0  0  0  0  0  0
   -4.4900   -8.5763   -1.9370 C   0  0  0  0  0  0  0  0  0  0  0  0
   -3.5785   -7.9115   -1.0747 C   0  0  0  0  0  0  0  0  0  0  0  0
   -3.9983   -7.4999    0.5345 Cl  0  0  0  0  0  0  0  0  0  0  0  0
   -6.0301   -9.1130   -1.4053 Cl  0  0  0  0  0  0  0  0  0  0  0  0
   -0.6433   -7.2501    0.0440 C   0  0  0  0  0  0  0  0  0  0  0  0
   -1.1112   -8.5951    1.0373 S   0  0  0  0  0  0  0  0  0  0  0  0
   -1.1661   -5.1297   -2.9865 C   0  0  0  0  0  0  0  0  0  0  0  0
   -0.4457   -4.0187   -3.3266 C   0  0  0  0  0  0  0  0  0  0  0  0
    0.9027   -3.7426   -2.2488 S   0  0  0  0  0  0  0  0  0  0  0  0
   -0.7503   -3.0825   -4.3530 C   0  0  0  0  0  0  0  0  0  0  0  0
    0.1059   -1.5778   -4.5305 S   0  0  0  0  0  0  0  0  0  0  0  0
   -0.9619   -1.0084   -5.7784 C   0  0  0  0  0  0  0  0  0  0  0  0
   -1.9113   -1.9743   -6.0487 C   0  0  0  0  0  0  0  0  0  0  0  0
   -1.7917   -3.1301   -5.2604 C   0  0  0  0  0  0  0  0  0  0  0  0
   -2.6614   -4.1775   -5.3909 O   0  0  0  0  0  0  0  0  0  0  0  0
   -3.6644   -4.0940   -6.2891 C   0  0  0  0  0  0  0  0  0  0  0  0
   -4.4228   -5.0116   -6.4164 O   0  0  0  0  0  0  0  0  0  0  0  0
   -3.8134   -2.8112   -7.1279 C   0  0  0  0  0  0  0  0  0  0  0  0
   -4.7112   -2.6875   -7.9086 O   0  0  0  0  0  0  0  0  0  0  0  0
   -2.9083   -1.8243   -6.9704 O   0  0  0  0  0  0  0  0  0  0  0  0
   -0.8986    0.3117   -6.2968 C   0  0  0  0  0  0  0  0  0  0  0  0
    0.0369    1.2696   -6.0226 C   0  0  0  0  0  0  0  0  0  0  0  0
   -0.2951    2.5378   -6.5504 C   0  0  0  0  0  0  0  0  0  0  0  0
    0.3984    3.7535   -6.3719 C   0  0  0  0  0  0  0  0  0  0  0  0
    1.7045    3.7841   -5.7423 C   0  0  0  0  0  0  0  0  0  0  0  0
    2.0661    4.8854   -4.4429 S   0  0  0  0  0  0  0  0  0  0  0  0
    3.6736    4.2737   -4.2640 C   0  0  0  0  0  0  0  0  0  0  0  0
    4.6081    4.8657   -3.2692 C   0  0  0  0  0  0  0  0  0  0  0  0
    5.0203    6.2814   -3.6766 C   0  0  0  0  0  0  0  0  0  0  0  0
    3.9054    3.2786   -5.1668 C   0  0  0  0  0  0  0  0  0  0  0  0
    5.3903    2.4278   -5.3012 Cl  0  0  0  0  0  0  0  0  0  0  0  0
    2.7921    2.9934   -6.0004 C   0  0  0  0  0  0  0  0  0  0  0  0
    2.8674    1.8348   -7.2645 Cl  0  0  0  0  0  0  0  0  0  0  0  0
   -0.2988    4.9082   -6.6931 C   0  0  0  0  0  0  0  0  0  0  0  0
   -1.6108    4.9039   -7.2296 C   0  0  0  0  0  0  0  0  0  0  0  0
   -2.2177    3.6857   -7.5876 C   0  0  0  0  0  0  0  0  0  0  0  0
   -3.5166    3.6627   -8.2275 C   0  0  0  0  0  0  0  0  0  0  0  0
   -4.7845    2.5881   -7.7150 S   0  0  0  0  0  0  0  0  0  0  0  0
   -5.8741    3.1699   -8.9250 C   0  0  0  0  0  0  0  0  0  0  0  0
   -7.2257    2.5682   -9.0857 C   0  0  0  0  0  0  0  0  0  0  0  0
   -7.1398    1.2352   -9.8339 C   0  0  0  0  0  0  0  0  0  0  0  0
   -5.2772    4.1382   -9.6774 C   0  0  0  0  0  0  0  0  0  0  0  0
   -3.9462    4.4293   -9.2789 C   0  0  0  0  0  0  0  0  0  0  0  0
   -2.9666    5.5724  -10.1015 Cl  0  0  0  0  0  0  0  0  0  0  0  0
   -6.0418    4.9441  -10.9861 Cl  0  0  0  0  0  0  0  0  0  0  0  0
   -1.5552    2.5260   -7.1983 C   0  0  0  0  0  0  0  0  0  0  0  0
   -2.2181    0.9175   -7.2754 S   0  0  0  0  0  0  0  0  0  0  0  0
   -2.2610    6.1533   -7.0473 C   0  0  0  0  0  0  0  0  0  0  0  0
   -1.4883    7.0724   -6.4003 C   0  0  0  0  0  0  0  0  0  0  0  0
    0.1817    6.5180   -6.2316 S   0  0  0  0  0  0  0  0  0  0  0  0
   -1.8950    7.9448   -5.3282 C   0  0  0  0  0  0  0  0  0  0  0  0
   -2.8341    7.4833   -4.4474 C   0  0  0  0  0  0  0  0  0  0  0  0
   -2.5276    7.7895   -3.0998 C   0  0  0  0  0  0  0  0  0  0  0  0
   -2.9033    6.9980   -2.0035 C   0  0  0  0  0  0  0  0  0  0  0  0
   -3.7554    5.8301   -2.2264 C   0  0  0  0  0  0  0  0  0  0  0  0
   -5.3536    5.6433   -1.5867 S   0  0  0  0  0  0  0  0  0  0  0  0
   -5.5654    4.1068   -2.3606 C   0  0  0  0  0  0  0  0  0  0  0  0
   -6.8139    3.3175   -2.1751 C   0  0  0  0  0  0  0  0  0  0  0  0
   -6.7819    2.5460   -0.8537 C   0  0  0  0  0  0  0  0  0  0  0  0
   -4.4437    3.7659   -3.0560 C   0  0  0  0  0  0  0  0  0  0  0  0
   -4.2630    2.3231   -3.9715 Cl  0  0  0  0  0  0  0  0  0  0  0  0
   -3.4151    4.7421   -2.9809 C   0  0  0  0  0  0  0  0  0  0  0  0
   -1.8857    4.5403   -3.7451 Cl  0  0  0  0  0  0  0  0  0  0  0  0
   -2.1852    7.1638   -0.8318 C   0  0  0  0  0  0  0  0  0  0  0  0
   -1.1518    8.1227   -0.6890 C   0  0  0  0  0  0  0  0  0  0  0  0
   -0.7622    8.8943   -1.7972 C   0  0  0  0  0  0  0  0  0  0  0  0
    0.4792    9.6620   -1.7794 C   0  0  0  0  0  0  0  0  0  0  0  0
    0.5341   11.3755   -2.0309 S   0  0  0  0  0  0  0  0  0  0  0  0
    2.2639   11.4042   -1.9545 C   0  0  0  0  0  0  0  0  0  0  0  0
    3.0168   12.6851   -2.0467 C   0  0  0  0  0  0  0  0  0  0  0  0
    3.0739   13.3853   -0.6869 C   0  0  0  0  0  0  0  0  0  0  0  0
    2.7525   10.1489   -1.7454 C   0  0  0  0  0  0  0  0  0  0  0  0
    1.7413    9.1557   -1.6521 C   0  0  0  0  0  0  0  0  0  0  0  0
    2.0756    7.4833   -1.4560 Cl  0  0  0  0  0  0  0  0  0  0  0  0
    4.4220    9.7747   -1.6214 Cl  0  0  0  0  0  0  0  0  0  0  0  0
   -1.4309    8.6780   -2.9910 C   0  0  0  0  0  0  0  0  0  0  0  0
   -0.7974    9.0864   -4.5707 S   0  0  0  0  0  0  0  0  0  0  0  0
   -0.4181    7.9306    0.5137 C   0  0  0  0  0  0  0  0  0  0  0  0
   -0.7852    6.8088    1.1893 C   0  0  0  0  0  0  0  0  0  0  0  0
   -2.1920    6.0312    0.4894 S   0  0  0  0  0  0  0  0  0  0  0  0
    0.0227    6.0673    2.1207 C   0  0  0  0  0  0  0  0  0  0  0  0
    0.3864    4.7758    1.8950 C   0  0  0  0  0  0  0  0  0  0  0  0
    1.4274    4.3245    2.7429 C   0  0  0  0  0  0  0  0  0  0  0  0
    2.1692    3.1351    2.6338 C   0  0  0  0  0  0  0  0  0  0  0  0
    2.0647    2.3110    1.4444 C   0  0  0  0  0  0  0  0  0  0  0  0
    2.0084    0.5726    1.5034 S   0  0  0  0  0  0  0  0  0  0  0  0
    1.9497    0.4312   -0.2177 C   0  0  0  0  0  0  0  0  0  0  0  0
    1.9503   -0.8888   -0.9013 C   0  0  0  0  0  0  0  0  0  0  0  0
    3.3184   -1.1681   -1.5260 C   0  0  0  0  0  0  0  0  0  0  0  0
    1.9800    1.6654   -0.7953 C   0  0  0  0  0  0  0  0  0  0  0  0
    1.9157    1.9214   -2.4924 Cl  0  0  0  0  0  0  0  0  0  0  0  0
    2.0560    2.7311    0.1376 C   0  0  0  0  0  0  0  0  0  0  0  0
    2.2332    4.3593   -0.3784 Cl  0  0  0  0  0  0  0  0  0  0  0  0
    3.0647    2.8696    3.6651 C   0  0  0  0  0  0  0  0  0  0  0  0
    3.3087    3.7818    4.7189 C   0  0  0  0  0  0  0  0  0  0  0  0
    2.6882    5.0426    4.7239 C   0  0  0  0  0  0  0  0  0  0  0  0
    3.0396    6.0529    5.7074 C   0  0  0  0  0  0  0  0  0  0  0  0
    1.8277    6.8473    6.6667 S   0  0  0  0  0  0  0  0  0  0  0  0
    3.0039    7.8085    7.4950 C   0  0  0  0  0  0  0  0  0  0  0  0
    2.5960    8.8216    8.5065 C   0  0  0  0  0  0  0  0  0  0  0  0
    2.1787   10.1293    7.8293 C   0  0  0  0  0  0  0  0  0  0  0  0
    4.2559    7.5304    7.0326 C   0  0  0  0  0  0  0  0  0  0  0  0
    4.2814    6.5304    6.0239 C   0  0  0  0  0  0  0  0  0  0  0  0
    5.7281    6.0442    5.2390 Cl  0  0  0  0  0  0  0  0  0  0  0  0
    5.6809    8.2967    7.6050 Cl  0  0  0  0  0  0  0  0  0  0  0  0
    1.7451    5.2822    3.7335 C   0  0  0  0  0  0  0  0  0  0  0  0
    0.8733    6.7730    3.4742 S   0  0  0  0  0  0  0  0  0  0  0  0
    4.2404    3.2570    5.6628 C   0  0  0  0  0  0  0  0  0  0  0  0
    4.6989    2.0364    5.3223 C   0  0  0  0  0  0  0  0  0  0  0  0
    4.0376    1.4370    3.8393 S   0  0  0  0  0  0  0  0  0  0  0  0
   -0.1362  -13.3607   10.1195 H   0  0  0  0  0  0  0  0  0  0  0  0
    1.7105  -11.6791    9.3894 H   0  0  0  0  0  0  0  0  0  0  0  0
    4.5174   -8.1331   10.8219 H   0  0  0  0  0  0  0  0  0  0  0  0
    6.0064   -8.2055    9.8592 H   0  0  0  0  0  0  0  0  0  0  0  0
    3.8270   -6.0755    9.5859 H   0  0  0  0  0  0  0  0  0  0  0  0
    5.3935   -5.8517   10.3731 H   0  0  0  0  0  0  0  0  0  0  0  0
    5.3128   -6.1499    8.6337 H   0  0  0  0  0  0  0  0  0  0  0  0
   -6.5262  -11.2250    4.0858 H   0  0  0  0  0  0  0  0  0  0  0  0
   -6.4781  -12.8286    3.3322 H   0  0  0  0  0  0  0  0  0  0  0  0
   -5.1763  -10.2921    2.2091 H   0  0  0  0  0  0  0  0  0  0  0  0
   -6.6675  -11.0298    1.6163 H   0  0  0  0  0  0  0  0  0  0  0  0
   -5.1318  -11.8835    1.4446 H   0  0  0  0  0  0  0  0  0  0  0  0
   -1.4955  -10.2484    3.1589 H   0  0  0  0  0  0  0  0  0  0  0  0
    1.7068   -6.7641    2.4132 H   0  0  0  0  0  0  0  0  0  0  0  0
    5.1929   -2.1135    2.6845 H   0  0  0  0  0  0  0  0  0  0  0  0
    3.5928   -1.4079    2.9437 H   0  0  0  0  0  0  0  0  0  0  0  0
    4.6510   -3.9132    4.3415 H   0  0  0  0  0  0  0  0  0  0  0  0
    4.4859   -2.3100    5.0647 H   0  0  0  0  0  0  0  0  0  0  0  0
    3.0475   -3.2100    4.5748 H   0  0  0  0  0  0  0  0  0  0  0  0
   -4.0035   -9.7062   -5.0944 H   0  0  0  0  0  0  0  0  0  0  0  0
   -5.3659  -10.1451   -4.0449 H   0  0  0  0  0  0  0  0  0  0  0  0
   -4.9974   -7.4262   -5.4146 H   0  0  0  0  0  0  0  0  0  0  0  0
   -6.1189   -8.6925   -5.9140 H   0  0  0  0  0  0  0  0  0  0  0  0
   -6.3445   -7.8757   -4.3659 H   0  0  0  0  0  0  0  0  0  0  0  0
   -2.0324   -5.4491   -3.5325 H   0  0  0  0  0  0  0  0  0  0  0  0
    0.9009    1.0759   -5.4131 H   0  0  0  0  0  0  0  0  0  0  0  0
    5.4889    4.2259   -3.1931 H   0  0  0  0  0  0  0  0  0  0  0  0
    4.1220    4.9031   -2.2923 H   0  0  0  0  0  0  0  0  0  0  0  0
    5.6925    6.7015   -2.9332 H   0  0  0  0  0  0  0  0  0  0  0  0
    4.1437    6.9208   -3.7543 H   0  0  0  0  0  0  0  0  0  0  0  0
    5.5273    6.2684   -4.6386 H   0  0  0  0  0  0  0  0  0  0  0  0
   -7.8565    3.2642   -9.6414 H   0  0  0  0  0  0  0  0  0  0  0  0
   -7.6685    2.4017   -8.1019 H   0  0  0  0  0  0  0  0  0  0  0  0
   -6.5157    0.5324   -9.2871 H   0  0  0  0  0  0  0  0  0  0  0  0
   -6.7120    1.3843  -10.8220 H   0  0  0  0  0  0  0  0  0  0  0  0
   -8.1319    0.8063   -9.9454 H   0  0  0  0  0  0  0  0  0  0  0  0
   -3.3042    6.3052   -7.2577 H   0  0  0  0  0  0  0  0  0  0  0  0
   -3.5929    6.7768   -4.7294 H   0  0  0  0  0  0  0  0  0  0  0  0
   -7.6738    3.9896   -2.1810 H   0  0  0  0  0  0  0  0  0  0  0  0
   -6.9096    2.6174   -3.0069 H   0  0  0  0  0  0  0  0  0  0  0  0
   -5.9367    1.8627   -0.8370 H   0  0  0  0  0  0  0  0  0  0  0  0
   -6.6890    3.2344   -0.0171 H   0  0  0  0  0  0  0  0  0  0  0  0
   -7.6969    1.9723   -0.7347 H   0  0  0  0  0  0  0  0  0  0  0  0
    4.0301   12.4710   -2.3914 H   0  0  0  0  0  0  0  0  0  0  0  0
    2.5310   13.3399   -2.7720 H   0  0  0  0  0  0  0  0  0  0  0  0
    3.5647   12.7484    0.0446 H   0  0  0  0  0  0  0  0  0  0  0  0
    3.6305   14.3148   -0.7688 H   0  0  0  0  0  0  0  0  0  0  0  0
    2.0693   13.6091   -0.3357 H   0  0  0  0  0  0  0  0  0  0  0  0
    0.4206    8.5378    0.8031 H   0  0  0  0  0  0  0  0  0  0  0  0
   -0.0589    4.1752    1.1229 H   0  0  0  0  0  0  0  0  0  0  0  0
    1.1930   -0.8859   -1.6888 H   0  0  0  0  0  0  0  0  0  0  0  0
    1.7032   -1.6703   -0.1823 H   0  0  0  0  0  0  0  0  0  0  0  0
    3.5506   -0.4186   -2.2769 H   0  0  0  0  0  0  0  0  0  0  0  0
    4.0929   -1.1478   -0.7642 H   0  0  0  0  0  0  0  0  0  0  0  0
    3.3155   -2.1443   -2.0008 H   0  0  0  0  0  0  0  0  0  0  0  0
    1.7606    8.4339    9.0920 H   0  0  0  0  0  0  0  0  0  0  0  0
    3.4377    9.0073    9.1760 H   0  0  0  0  0  0  0  0  0  0  0  0
    1.8810   10.8585    8.5777 H   0  0  0  0  0  0  0  0  0  0  0  0
    3.0067   10.5371    7.2550 H   0  0  0  0  0  0  0  0  0  0  0  0
    1.3419    9.9550    7.1571 H   0  0  0  0  0  0  0  0  0  0  0  0
    4.5308    3.7761    6.5574 H   0  0  0  0  0  0  0  0  0  0  0  0
    5.4001    1.4235    5.8539 H   0  0  0  0  0  0  0  0  0  0  0  0
  1  2  2  0  0  0  0
  2  3  1  0  0  0  0
  3  4  2  0  0  0  0
  4  5  1  0  0  0  0
  5  6  1  0  0  0  0
  6  7  1  0  0  0  0
  7  8  1  0  0  0  0
  8  9  1  0  0  0  0
  7 10  2  0  0  0  0
 10 11  1  0  0  0  0
 10 12  1  0  0  0  0
 12 13  1  0  0  0  0
  4 14  1  0  0  0  0
 14 15  2  0  0  0  0
 15 16  1  0  0  0  0
 16 17  1  0  0  0  0
 17 18  1  0  0  0  0
 18 19  1  0  0  0  0
 19 20  1  0  0  0  0
 20 21  1  0  0  0  0
 19 22  2  0  0  0  0
 22 23  1  0  0  0  0
 23 24  1  0  0  0  0
 22 25  1  0  0  0  0
 16 26  2  0  0  0  0
 26 27  1  0  0  0  0
 15 28  1  0  0  0  0
 28 29  2  0  0  0  0
 29 30  1  0  0  0  0
 29 31  1  0  0  0  0
 31 32  2  0  0  0  0
 32 33  1  0  0  0  0
 33 34  2  0  0  0  0
 34 35  1  0  0  0  0
 35 36  1  0  0  0  0
 36 37  1  0  0  0  0
 37 38  1  0  0  0  0
 38 39  1  0  0  0  0
 37 40  2  0  0  0  0
 40 41  1  0  0  0  0
 40 42  1  0  0  0  0
 42 43  1  0  0  0  0
 34 44  1  0  0  0  0
 44 45  2  0  0  0  0
 45 46  1  0  0  0  0
 46 47  1  0  0  0  0
 47 48  1  0  0  0  0
 48 49  1  0  0  0  0
 49 50  1  0  0  0  0
 50 51  1  0  0  0  0
 49 52  2  0  0  0  0
 52 53  1  0  0  0  0
 53 54  1  0  0  0  0
 52 55  1  0  0  0  0
 46 56  2  0  0  0  0
 56 57  1  0  0  0  0
 45 58  1  0  0  0  0
 58 59  2  0  0  0  0
 59 60  1  0  0  0  0
 59 61  1  0  0  0  0
 61 62  1  0  0  0  0
 62 63  1  0  0  0  0
 63 64  2  0  0  0  0
 64 65  1  0  0  0  0
 65 66  1  0  0  0  0
 66 67  1  0  0  0  0
 67 68  2  0  0  0  0
 67 69  1  0  0  0  0
 69 70  2  0  0  0  0
 69 71  1  0  0  0  0
 63 72  1  0  0  0  0
 72 73  2  0  0  0  0
 73 74  1  0  0  0  0
 74 75  2  0  0  0  0
 75 76  1  0  0  0  0
 76 77  1  0  0  0  0
 77 78  1  0  0  0  0
 78 79  1  0  0  0  0
 79 80  1  0  0  0  0
 78 81  2  0  0  0  0
 81 82  1  0  0  0  0
 81 83  1  0  0  0  0
 83 84  1  0  0  0  0
 75 85  1  0  0  0  0
 85 86  2  0  0  0  0
 86 87  1  0  0  0  0
 87 88  1  0  0  0  0
 88 89  1  0  0  0  0
 89 90  1  0  0  0  0
 90 91  1  0  0  0  0
 91 92  1  0  0  0  0
 90 93  2  0  0  0  0
 93 94  1  0  0  0  0
 94 95  1  0  0  0  0
 93 96  1  0  0  0  0
 87 97  2  0  0  0  0
 97 98  1  0  0  0  0
 86 99  1  0  0  0  0
 99100  2  0  0  0  0
100101  1  0  0  0  0
100102  1  0  0  0  0
102103  2  0  0  0  0
103104  1  0  0  0  0
104105  2  0  0  0  0
105106  1  0  0  0  0
106107  1  0  0  0  0
107108  1  0  0  0  0
108109  1  0  0  0  0
109110  1  0  0  0  0
108111  2  0  0  0  0
111112  1  0  0  0  0
111113  1  0  0  0  0
113114  1  0  0  0  0
105115  1  0  0  0  0
115116  2  0  0  0  0
116117  1  0  0  0  0
117118  1  0  0  0  0
118119  1  0  0  0  0
119120  1  0  0  0  0
120121  1  0  0  0  0
121122  1  0  0  0  0
120123  2  0  0  0  0
123124  1  0  0  0  0
124125  1  0  0  0  0
123126  1  0  0  0  0
117127  2  0  0  0  0
127128  1  0  0  0  0
116129  1  0  0  0  0
129130  2  0  0  0  0
130131  1  0  0  0  0
130132  1  0  0  0  0
132133  2  0  0  0  0
133134  1  0  0  0  0
134135  2  0  0  0  0
135136  1  0  0  0  0
136137  1  0  0  0  0
137138  1  0  0  0  0
138139  1  0  0  0  0
139140  1  0  0  0  0
138141  2  0  0  0  0
141142  1  0  0  0  0
141143  1  0  0  0  0
143144  1  0  0  0  0
135145  1  0  0  0  0
145146  2  0  0  0  0
146147  1  0  0  0  0
147148  1  0  0  0  0
148149  1  0  0  0  0
149150  1  0  0  0  0
150151  1  0  0  0  0
151152  1  0  0  0  0
150153  2  0  0  0  0
153154  1  0  0  0  0
154155  1  0  0  0  0
153156  1  0  0  0  0
147157  2  0  0  0  0
157158  1  0  0  0  0
146159  1  0  0  0  0
159160  2  0  0  0  0
160161  1  0  0  0  0
 27  1  1  0  0  0  0
 57 31  1  0  0  0  0
 65 61  2  0  0  0  0
 98 72  1  0  0  0  0
128102  1  0  0  0  0
158132  1  0  0  0  0
 26  3  1  0  0  0  0
 56 33  1  0  0  0  0
 71 64  1  0  0  0  0
 97 74  1  0  0  0  0
127104  1  0  0  0  0
157134  1  0  0  0  0
 12  5  2  0  0  0  0
 30 14  1  0  0  0  0
 42 35  2  0  0  0  0
 60 44  1  0  0  0  0
 83 76  2  0  0  0  0
101 85  1  0  0  0  0
113106  2  0  0  0  0
131115  1  0  0  0  0
143136  2  0  0  0  0
161145  1  0  0  0  0
 23 17  2  0  0  0  0
 53 47  2  0  0  0  0
 94 88  2  0  0  0  0
124118  2  0  0  0  0
154148  2  0  0  0  0
  1162  1  0  0  0  0
  2163  1  0  0  0  0
  8164  1  0  0  0  0
  8165  1  0  0  0  0
  9166  1  0  0  0  0
  9167  1  0  0  0  0
  9168  1  0  0  0  0
 20169  1  0  0  0  0
 20170  1  0  0  0  0
 21171  1  0  0  0  0
 21172  1  0  0  0  0
 21173  1  0  0  0  0
 28174  1  0  0  0  0
 32175  1  0  0  0  0
 38176  1  0  0  0  0
 38177  1  0  0  0  0
 39178  1  0  0  0  0
 39179  1  0  0  0  0
 39180  1  0  0  0  0
 50181  1  0  0  0  0
 50182  1  0  0  0  0
 51183  1  0  0  0  0
 51184  1  0  0  0  0
 51185  1  0  0  0  0
 58186  1  0  0  0  0
 73187  1  0  0  0  0
 79188  1  0  0  0  0
 79189  1  0  0  0  0
 80190  1  0  0  0  0
 80191  1  0  0  0  0
 80192  1  0  0  0  0
 91193  1  0  0  0  0
 91194  1  0  0  0  0
 92195  1  0  0  0  0
 92196  1  0  0  0  0
 92197  1  0  0  0  0
 99198  1  0  0  0  0
103199  1  0  0  0  0
109200  1  0  0  0  0
109201  1  0  0  0  0
110202  1  0  0  0  0
110203  1  0  0  0  0
110204  1  0  0  0  0
121205  1  0  0  0  0
121206  1  0  0  0  0
122207  1  0  0  0  0
122208  1  0  0  0  0
122209  1  0  0  0  0
129210  1  0  0  0  0
133211  1  0  0  0  0
139212  1  0  0  0  0
139213  1  0  0  0  0
140214  1  0  0  0  0
140215  1  0  0  0  0
140216  1  0  0  0  0
151217  1  0  0  0  0
151218  1  0  0  0  0
152219  1  0  0  0  0
152220  1  0  0  0  0
152221  1  0  0  0  0
159222  1  0  0  0  0
160223  1  0  0  0  0
M  END
