
  xtb     03022214533D
 energy: -451.503787573153 gnorm: 0.000542978899 xtb: 6.4.1 (unknown)
223248  0     0  0            999 V2000
    4.4870  -20.1628   -1.5718 C   0  0  0  0  0  0  0  0  0  0  0  0
    4.1370  -19.3988   -2.6264 C   0  0  0  0  0  0  0  0  0  0  0  0
    3.5083  -18.1786   -2.2413 C   0  0  0  0  0  0  0  0  0  0  0  0
    3.0629  -17.1306   -3.0630 C   0  0  0  0  0  0  0  0  0  0  0  0
    3.1723  -17.1921   -4.5121 C   0  0  0  0  0  0  0  0  0  0  0  0
    2.5004  -18.5182   -5.4150 S   0  0  0  0  0  0  0  0  0  0  0  0
    2.9761  -17.8328   -6.9310 C   0  0  0  0  0  0  0  0  0  0  0  0
    2.7296  -18.5449   -8.2150 C   0  0  0  0  0  0  0  0  0  0  0  0
    3.8786  -19.5040   -8.5363 C   0  0  0  0  0  0  0  0  0  0  0  0
    3.6272  -16.6527   -6.7312 C   0  0  0  0  0  0  0  0  0  0  0  0
    4.2579  -15.6835   -7.9986 Cl  0  0  0  0  0  0  0  0  0  0  0  0
    3.7355  -16.2824   -5.3635 C   0  0  0  0  0  0  0  0  0  0  0  0
    4.5714  -14.8737   -4.8593 Cl  0  0  0  0  0  0  0  0  0  0  0  0
    2.5004  -16.0287   -2.4304 C   0  0  0  0  0  0  0  0  0  0  0  0
    2.3807  -15.9276   -1.0225 C   0  0  0  0  0  0  0  0  0  0  0  0
    2.8763  -16.9515   -0.1988 C   0  0  0  0  0  0  0  0  0  0  0  0
    2.8499  -16.8260    1.2478 C   0  0  0  0  0  0  0  0  0  0  0  0
    2.1985  -18.0780    2.2623 S   0  0  0  0  0  0  0  0  0  0  0  0
    2.5379  -17.1911    3.7080 C   0  0  0  0  0  0  0  0  0  0  0  0
    2.2518  -17.7654    5.0513 C   0  0  0  0  0  0  0  0  0  0  0  0
    3.4246  -18.6219    5.5350 C   0  0  0  0  0  0  0  0  0  0  0  0
    3.1342  -16.0027    3.4071 C   0  0  0  0  0  0  0  0  0  0  0  0
    3.3083  -15.7886    2.0139 C   0  0  0  0  0  0  0  0  0  0  0  0
    4.0962  -14.3966    1.3898 Cl  0  0  0  0  0  0  0  0  0  0  0  0
    3.6281  -14.8549    4.5831 Cl  0  0  0  0  0  0  0  0  0  0  0  0
    3.4093  -18.0666   -0.8345 C   0  0  0  0  0  0  0  0  0  0  0  0
    4.0882  -19.4608   -0.0426 S   0  0  0  0  0  0  0  0  0  0  0  0
    1.7152  -14.7391   -0.6335 C   0  0  0  0  0  0  0  0  0  0  0  0
    1.3662  -13.9433   -1.6829 C   0  0  0  0  0  0  0  0  0  0  0  0
    1.8118  -14.6423   -3.2253 S   0  0  0  0  0  0  0  0  0  0  0  0
    0.7762  -12.6470   -1.6266 C   0  0  0  0  0  0  0  0  0  0  0  0
    0.5403  -11.7930   -2.6624 C   0  0  0  0  0  0  0  0  0  0  0  0
    0.0402  -10.5329   -2.2532 C   0  0  0  0  0  0  0  0  0  0  0  0
   -0.3096   -9.4371   -3.0609 C   0  0  0  0  0  0  0  0  0  0  0  0
   -0.1569   -9.4809   -4.5055 C   0  0  0  0  0  0  0  0  0  0  0  0
    1.3586   -9.9144   -5.2416 S   0  0  0  0  0  0  0  0  0  0  0  0
    0.7340   -9.7042   -6.8408 C   0  0  0  0  0  0  0  0  0  0  0  0
    1.6008   -9.8848   -8.0374 C   0  0  0  0  0  0  0  0  0  0  0  0
    2.3600   -8.5957   -8.3606 C   0  0  0  0  0  0  0  0  0  0  0  0
   -0.5711   -9.3147   -6.7912 C   0  0  0  0  0  0  0  0  0  0  0  0
   -1.5317   -9.0110   -8.1799 Cl  0  0  0  0  0  0  0  0  0  0  0  0
   -1.0809   -9.1896   -5.4709 C   0  0  0  0  0  0  0  0  0  0  0  0
   -2.7191   -8.8001   -5.1548 Cl  0  0  0  0  0  0  0  0  0  0  0  0
   -0.7880   -8.3050   -2.4130 C   0  0  0  0  0  0  0  0  0  0  0  0
   -0.9462   -8.2329   -1.0066 C   0  0  0  0  0  0  0  0  0  0  0  0
   -0.5886   -9.3259   -0.1963 C   0  0  0  0  0  0  0  0  0  0  0  0
   -0.6933   -9.2538    1.2516 C   0  0  0  0  0  0  0  0  0  0  0  0
   -2.1675   -8.7516    2.0294 S   0  0  0  0  0  0  0  0  0  0  0  0
   -1.4904   -8.9243    3.6114 C   0  0  0  0  0  0  0  0  0  0  0  0
   -2.2578   -8.5549    4.8327 C   0  0  0  0  0  0  0  0  0  0  0  0
   -1.8918   -7.1400    5.2885 C   0  0  0  0  0  0  0  0  0  0  0  0
   -0.1962   -9.3417    3.5266 C   0  0  0  0  0  0  0  0  0  0  0  0
    0.2595   -9.5308    2.1941 C   0  0  0  0  0  0  0  0  0  0  0  0
    1.8811   -9.9603    1.8447 Cl  0  0  0  0  0  0  0  0  0  0  0  0
    0.8059   -9.6199    4.8907 Cl  0  0  0  0  0  0  0  0  0  0  0  0
   -0.1066  -10.4556   -0.8450 C   0  0  0  0  0  0  0  0  0  0  0  0
    0.3597  -11.9454   -0.0786 S   0  0  0  0  0  0  0  0  0  0  0  0
   -1.3978   -6.9570   -0.5940 C   0  0  0  0  0  0  0  0  0  0  0  0
   -1.5643   -6.0791   -1.6248 C   0  0  0  0  0  0  0  0  0  0  0  0
   -1.1779   -6.7889   -3.1725 S   0  0  0  0  0  0  0  0  0  0  0  0
   -1.9683   -4.7130   -1.4989 C   0  0  0  0  0  0  0  0  0  0  0  0
   -2.6729   -4.1748   -0.4623 C   0  0  0  0  0  0  0  0  0  0  0  0
   -2.8185   -2.7696   -0.5475 C   0  0  0  0  0  0  0  0  0  0  0  0
   -3.4179   -1.9023    0.3849 C   0  0  0  0  0  0  0  0  0  0  0  0
   -4.0885   -2.4030    1.5732 C   0  0  0  0  0  0  0  0  0  0  0  0
   -3.3329   -3.5319    2.6610 S   0  0  0  0  0  0  0  0  0  0  0  0
   -4.7113   -3.5760    3.7067 C   0  0  0  0  0  0  0  0  0  0  0  0
   -4.7557   -4.4714    4.8950 C   0  0  0  0  0  0  0  0  0  0  0  0
   -5.2805   -5.8570    4.5097 C   0  0  0  0  0  0  0  0  0  0  0  0
   -5.6940   -2.7652    3.2242 C   0  0  0  0  0  0  0  0  0  0  0  0
   -7.2181   -2.5571    3.9836 Cl  0  0  0  0  0  0  0  0  0  0  0  0
   -5.3445   -2.0952    2.0209 C   0  0  0  0  0  0  0  0  0  0  0  0
   -6.4485   -1.0838    1.1882 Cl  0  0  0  0  0  0  0  0  0  0  0  0
   -3.3224   -0.5407    0.1254 C   0  0  0  0  0  0  0  0  0  0  0  0
   -2.7112   -0.0249   -1.0443 C   0  0  0  0  0  0  0  0  0  0  0  0
   -2.1641   -0.8931   -2.0051 C   0  0  0  0  0  0  0  0  0  0  0  0
   -1.5117   -0.3721   -3.1947 C   0  0  0  0  0  0  0  0  0  0  0  0
   -0.2763    0.8478   -3.0714 S   0  0  0  0  0  0  0  0  0  0  0  0
   -0.0587    0.9186   -4.7868 C   0  0  0  0  0  0  0  0  0  0  0  0
    0.9005    1.8838   -5.3907 C   0  0  0  0  0  0  0  0  0  0  0  0
    0.5144    3.3271   -5.0642 C   0  0  0  0  0  0  0  0  0  0  0  0
   -0.8942    0.0363   -5.4033 C   0  0  0  0  0  0  0  0  0  0  0  0
   -1.7133   -0.7026   -4.5056 C   0  0  0  0  0  0  0  0  0  0  0  0
   -2.8914   -1.8220   -5.0486 Cl  0  0  0  0  0  0  0  0  0  0  0  0
   -0.9773   -0.1821   -7.1036 Cl  0  0  0  0  0  0  0  0  0  0  0  0
   -2.2201   -2.2517   -1.7241 C   0  0  0  0  0  0  0  0  0  0  0  0
   -1.4983   -3.5135   -2.6787 S   0  0  0  0  0  0  0  0  0  0  0  0
   -2.7002    1.3887   -1.0511 C   0  0  0  0  0  0  0  0  0  0  0  0
   -3.2114    1.9458    0.0832 C   0  0  0  0  0  0  0  0  0  0  0  0
   -3.8124    0.7408    1.2001 S   0  0  0  0  0  0  0  0  0  0  0  0
   -3.1906    3.3317    0.4124 C   0  0  0  0  0  0  0  0  0  0  0  0
   -3.5409    3.9445    1.5777 C   0  0  0  0  0  0  0  0  0  0  0  0
   -3.2471    5.3311    1.5952 C   0  0  0  0  0  0  0  0  0  0  0  0
   -3.4940    6.2574    2.6233 C   0  0  0  0  0  0  0  0  0  0  0  0
   -4.2483    5.8773    3.8046 C   0  0  0  0  0  0  0  0  0  0  0  0
   -3.6589    6.1984    5.4076 S   0  0  0  0  0  0  0  0  0  0  0  0
   -5.0533    5.4885    6.1461 C   0  0  0  0  0  0  0  0  0  0  0  0
   -5.1700    5.3775    7.6260 C   0  0  0  0  0  0  0  0  0  0  0  0
   -4.4470    4.1297    8.1390 C   0  0  0  0  0  0  0  0  0  0  0  0
   -5.9148    5.0315    5.1935 C   0  0  0  0  0  0  0  0  0  0  0  0
   -7.4121    4.2687    5.5425 Cl  0  0  0  0  0  0  0  0  0  0  0  0
   -5.4643    5.2527    3.8649 C   0  0  0  0  0  0  0  0  0  0  0  0
   -6.4095    4.8424    2.4924 Cl  0  0  0  0  0  0  0  0  0  0  0  0
   -2.9987    7.5429    2.4472 C   0  0  0  0  0  0  0  0  0  0  0  0
   -2.3119    7.9484    1.2758 C   0  0  0  0  0  0  0  0  0  0  0  0
   -2.1338    7.0451    0.2105 C   0  0  0  0  0  0  0  0  0  0  0  0
   -1.5409    7.4651   -1.0484 C   0  0  0  0  0  0  0  0  0  0  0  0
   -2.1395    8.8895   -1.8541 S   0  0  0  0  0  0  0  0  0  0  0  0
   -1.0902    8.6670   -3.2122 C   0  0  0  0  0  0  0  0  0  0  0  0
   -1.1026    9.6111   -4.3646 C   0  0  0  0  0  0  0  0  0  0  0  0
   -1.1127   11.0690   -3.9121 C   0  0  0  0  0  0  0  0  0  0  0  0
   -0.3274    7.5522   -3.0358 C   0  0  0  0  0  0  0  0  0  0  0  0
   -0.5729    6.8721   -1.8117 C   0  0  0  0  0  0  0  0  0  0  0  0
    0.3610    5.5145   -1.3362 Cl  0  0  0  0  0  0  0  0  0  0  0  0
    0.8259    6.9893   -4.1772 Cl  0  0  0  0  0  0  0  0  0  0  0  0
   -2.6028    5.7517    0.4041 C   0  0  0  0  0  0  0  0  0  0  0  0
   -2.4959    4.4507   -0.7422 S   0  0  0  0  0  0  0  0  0  0  0  0
   -1.8696    9.2889    1.3660 C   0  0  0  0  0  0  0  0  0  0  0  0
   -2.2363    9.8977    2.5321 C   0  0  0  0  0  0  0  0  0  0  0  0
   -3.1491    8.8538    3.5880 S   0  0  0  0  0  0  0  0  0  0  0  0
   -1.9316   11.2351    2.9175 C   0  0  0  0  0  0  0  0  0  0  0  0
   -1.0446   11.9490    2.1735 O   0  0  0  0  0  0  0  0  0  0  0  0
   -0.9329   13.1788    2.6951 C   0  0  0  0  0  0  0  0  0  0  0  0
   -1.7682   13.2926    3.8092 C   0  0  0  0  0  0  0  0  0  0  0  0
   -2.4013   12.0217    3.9532 C   0  0  0  0  0  0  0  0  0  0  0  0
   -3.2838   11.6311    4.8788 O   0  0  0  0  0  0  0  0  0  0  0  0
   -1.9646   14.4615    4.6411 C   0  0  0  0  0  0  0  0  0  0  0  0
   -1.4719   15.5498    4.4714 O   0  0  0  0  0  0  0  0  0  0  0  0
   -2.8026   14.2282    5.6829 O   0  0  0  0  0  0  0  0  0  0  0  0
   -0.0083   14.0565    2.0576 C   0  0  0  0  0  0  0  0  0  0  0  0
    0.8627   13.6390    1.0846 C   0  0  0  0  0  0  0  0  0  0  0  0
    1.6585   14.6783    0.5597 C   0  0  0  0  0  0  0  0  0  0  0  0
    2.6546   14.5980   -0.4327 C   0  0  0  0  0  0  0  0  0  0  0  0
    3.0467   13.3191   -1.0012 C   0  0  0  0  0  0  0  0  0  0  0  0
    1.8877   12.2059   -1.6685 S   0  0  0  0  0  0  0  0  0  0  0  0
    3.0983   11.0192   -2.0161 C   0  0  0  0  0  0  0  0  0  0  0  0
    2.7482    9.6704   -2.5379 C   0  0  0  0  0  0  0  0  0  0  0  0
    2.5196    8.6990   -1.3769 C   0  0  0  0  0  0  0  0  0  0  0  0
    4.3244   11.4749   -1.6339 C   0  0  0  0  0  0  0  0  0  0  0  0
    5.7734   10.5728   -1.8078 Cl  0  0  0  0  0  0  0  0  0  0  0  0
    4.3008   12.7755   -1.0632 C   0  0  0  0  0  0  0  0  0  0  0  0
    5.7082   13.5107   -0.4206 Cl  0  0  0  0  0  0  0  0  0  0  0  0
    3.2689   15.7883   -0.7994 C   0  0  0  0  0  0  0  0  0  0  0  0
    2.9614   17.0324   -0.1926 C   0  0  0  0  0  0  0  0  0  0  0  0
    1.9931   17.1012    0.8188 C   0  0  0  0  0  0  0  0  0  0  0  0
    1.6452   18.3639    1.4531 C   0  0  0  0  0  0  0  0  0  0  0  0
    1.7328   18.5649    3.1756 S   0  0  0  0  0  0  0  0  0  0  0  0
    1.1841   20.2028    3.0881 C   0  0  0  0  0  0  0  0  0  0  0  0
    1.0748   21.0478    4.3093 C   0  0  0  0  0  0  0  0  0  0  0  0
    2.3955   21.7653    4.5996 C   0  0  0  0  0  0  0  0  0  0  0  0
    0.9531   20.5593    1.7926 C   0  0  0  0  0  0  0  0  0  0  0  0
    1.2109   19.5174    0.8626 C   0  0  0  0  0  0  0  0  0  0  0  0
    0.9276   19.6856   -0.8223 Cl  0  0  0  0  0  0  0  0  0  0  0  0
    0.3939   22.1087    1.3111 Cl  0  0  0  0  0  0  0  0  0  0  0  0
    1.3616   15.9168    1.1798 C   0  0  0  0  0  0  0  0  0  0  0  0
    0.1250   15.7604    2.3987 S   0  0  0  0  0  0  0  0  0  0  0  0
    3.7502   18.0887   -0.7350 C   0  0  0  0  0  0  0  0  0  0  0  0
    4.5694   17.6758   -1.7233 C   0  0  0  0  0  0  0  0  0  0  0  0
    4.4626   15.9822   -2.0515 S   0  0  0  0  0  0  0  0  0  0  0  0
    4.9698  -21.1203   -1.5845 H   0  0  0  0  0  0  0  0  0  0  0  0
    4.3155  -19.6767   -3.6486 H   0  0  0  0  0  0  0  0  0  0  0  0
    2.6378  -17.8060   -9.0132 H   0  0  0  0  0  0  0  0  0  0  0  0
    1.7959  -19.1053   -8.1460 H   0  0  0  0  0  0  0  0  0  0  0  0
    3.6882  -20.0125   -9.4774 H   0  0  0  0  0  0  0  0  0  0  0  0
    4.8139  -18.9564   -8.6189 H   0  0  0  0  0  0  0  0  0  0  0  0
    3.9792  -20.2492   -7.7508 H   0  0  0  0  0  0  0  0  0  0  0  0
    1.3505  -18.3783    4.9993 H   0  0  0  0  0  0  0  0  0  0  0  0
    2.0815  -16.9479    5.7544 H   0  0  0  0  0  0  0  0  0  0  0  0
    4.3274  -18.0202    5.6018 H   0  0  0  0  0  0  0  0  0  0  0  0
    3.6033  -19.4413    4.8427 H   0  0  0  0  0  0  0  0  0  0  0  0
    3.2065  -19.0337    6.5166 H   0  0  0  0  0  0  0  0  0  0  0  0
    1.4962  -14.4793    0.3861 H   0  0  0  0  0  0  0  0  0  0  0  0
    0.7341  -12.0607   -3.6851 H   0  0  0  0  0  0  0  0  0  0  0  0
    2.3135  -10.6897   -7.8504 H   0  0  0  0  0  0  0  0  0  0  0  0
    0.9728  -10.1619   -8.8862 H   0  0  0  0  0  0  0  0  0  0  0  0
    2.9924   -8.3104   -7.5232 H   0  0  0  0  0  0  0  0  0  0  0  0
    1.6614   -7.7871   -8.5598 H   0  0  0  0  0  0  0  0  0  0  0  0
    2.9853   -8.7407   -9.2373 H   0  0  0  0  0  0  0  0  0  0  0  0
   -3.3261   -8.6103    4.6194 H   0  0  0  0  0  0  0  0  0  0  0  0
   -2.0214   -9.2642    5.6285 H   0  0  0  0  0  0  0  0  0  0  0  0
   -0.8353   -7.0885    5.5372 H   0  0  0  0  0  0  0  0  0  0  0  0
   -2.4700   -6.8707    6.1681 H   0  0  0  0  0  0  0  0  0  0  0  0
   -2.0957   -6.4221    4.4974 H   0  0  0  0  0  0  0  0  0  0  0  0
   -1.5557   -6.6825    0.4319 H   0  0  0  0  0  0  0  0  0  0  0  0
   -3.0742   -4.7701    0.3358 H   0  0  0  0  0  0  0  0  0  0  0  0
   -5.4148   -4.0276    5.6433 H   0  0  0  0  0  0  0  0  0  0  0  0
   -3.7545   -4.5623    5.3188 H   0  0  0  0  0  0  0  0  0  0  0  0
   -6.2898   -5.7787    4.1141 H   0  0  0  0  0  0  0  0  0  0  0  0
   -4.6450   -6.3063    3.7503 H   0  0  0  0  0  0  0  0  0  0  0  0
   -5.2981   -6.5050    5.3817 H   0  0  0  0  0  0  0  0  0  0  0  0
    0.9080    1.7329   -6.4713 H   0  0  0  0  0  0  0  0  0  0  0  0
    1.9052    1.6865   -5.0081 H   0  0  0  0  0  0  0  0  0  0  0  0
    0.5177    3.4856   -3.9881 H   0  0  0  0  0  0  0  0  0  0  0  0
   -0.4801    3.5496   -5.4438 H   0  0  0  0  0  0  0  0  0  0  0  0
    1.2216    4.0152   -5.5193 H   0  0  0  0  0  0  0  0  0  0  0  0
   -2.3052    1.9846   -1.8531 H   0  0  0  0  0  0  0  0  0  0  0  0
   -3.9598    3.4089    2.4102 H   0  0  0  0  0  0  0  0  0  0  0  0
   -6.2274    5.3222    7.8909 H   0  0  0  0  0  0  0  0  0  0  0  0
   -4.7372    6.2652    8.0904 H   0  0  0  0  0  0  0  0  0  0  0  0
   -4.5402    4.0616    9.2194 H   0  0  0  0  0  0  0  0  0  0  0  0
   -4.8775    3.2358    7.6947 H   0  0  0  0  0  0  0  0  0  0  0  0
   -3.3917    4.1732    7.8805 H   0  0  0  0  0  0  0  0  0  0  0  0
   -0.2252    9.4104   -4.9829 H   0  0  0  0  0  0  0  0  0  0  0  0
   -1.9905    9.4198   -4.9752 H   0  0  0  0  0  0  0  0  0  0  0  0
   -1.1053   11.7279   -4.7759 H   0  0  0  0  0  0  0  0  0  0  0  0
   -2.0046   11.2748   -3.3252 H   0  0  0  0  0  0  0  0  0  0  0  0
   -0.2414   11.2903   -3.2997 H   0  0  0  0  0  0  0  0  0  0  0  0
   -1.3014    9.7938    0.6073 H   0  0  0  0  0  0  0  0  0  0  0  0
   -3.4425   12.3684    5.4889 H   0  0  0  0  0  0  0  0  0  0  0  0
   -2.9020   15.0431    6.1986 H   0  0  0  0  0  0  0  0  0  0  0  0
    0.9163   12.6137    0.7705 H   0  0  0  0  0  0  0  0  0  0  0  0
    1.8476    9.7298   -3.1492 H   0  0  0  0  0  0  0  0  0  0  0  0
    3.5696    9.3068   -3.1577 H   0  0  0  0  0  0  0  0  0  0  0  0
    1.6696    9.0164   -0.7766 H   0  0  0  0  0  0  0  0  0  0  0  0
    3.3999    8.6609   -0.7405 H   0  0  0  0  0  0  0  0  0  0  0  0
    2.3256    7.7012   -1.7571 H   0  0  0  0  0  0  0  0  0  0  0  0
    0.2852   21.7862    4.1567 H   0  0  0  0  0  0  0  0  0  0  0  0
    0.8078   20.4180    5.1591 H   0  0  0  0  0  0  0  0  0  0  0  0
    2.6652   22.4087    3.7658 H   0  0  0  0  0  0  0  0  0  0  0  0
    2.3004   22.3754    5.4937 H   0  0  0  0  0  0  0  0  0  0  0  0
    3.1920   21.0413    4.7531 H   0  0  0  0  0  0  0  0  0  0  0  0
    3.6987   19.1038   -0.3881 H   0  0  0  0  0  0  0  0  0  0  0  0
    5.2577   18.2646   -2.2976 H   0  0  0  0  0  0  0  0  0  0  0  0
  1  2  2  0  0  0  0
  2  3  1  0  0  0  0
  3  4  2  0  0  0  0
  4  5  1  0  0  0  0
  5  6  1  0  0  0  0
  6  7  1  0  0  0  0
  7  8  1  0  0  0  0
  8  9  1  0  0  0  0
  7 10  2  0  0  0  0
 10 11  1  0  0  0  0
 10 12  1  0  0  0  0
 12 13  1  0  0  0  0
  4 14  1  0  0  0  0
 14 15  2  0  0  0  0
 15 16  1  0  0  0  0
 16 17  1  0  0  0  0
 17 18  1  0  0  0  0
 18 19  1  0  0  0  0
 19 20  1  0  0  0  0
 20 21  1  0  0  0  0
 19 22  2  0  0  0  0
 22 23  1  0  0  0  0
 23 24  1  0  0  0  0
 22 25  1  0  0  0  0
 16 26  2  0  0  0  0
 26 27  1  0  0  0  0
 15 28  1  0  0  0  0
 28 29  2  0  0  0  0
 29 30  1  0  0  0  0
 29 31  1  0  0  0  0
 31 32  2  0  0  0  0
 32 33  1  0  0  0  0
 33 34  2  0  0  0  0
 34 35  1  0  0  0  0
 35 36  1  0  0  0  0
 36 37  1  0  0  0  0
 37 38  1  0  0  0  0
 38 39  1  0  0  0  0
 37 40  2  0  0  0  0
 40 41  1  0  0  0  0
 40 42  1  0  0  0  0
 42 43  1  0  0  0  0
 34 44  1  0  0  0  0
 44 45  2  0  0  0  0
 45 46  1  0  0  0  0
 46 47  1  0  0  0  0
 47 48  1  0  0  0  0
 48 49  1  0  0  0  0
 49 50  1  0  0  0  0
 50 51  1  0  0  0  0
 49 52  2  0  0  0  0
 52 53  1  0  0  0  0
 53 54  1  0  0  0  0
 52 55  1  0  0  0  0
 46 56  2  0  0  0  0
 56 57  1  0  0  0  0
 45 58  1  0  0  0  0
 58 59  2  0  0  0  0
 59 60  1  0  0  0  0
 59 61  1  0  0  0  0
 61 62  2  0  0  0  0
 62 63  1  0  0  0  0
 63 64  2  0  0  0  0
 64 65  1  0  0  0  0
 65 66  1  0  0  0  0
 66 67  1  0  0  0  0
 67 68  1  0  0  0  0
 68 69  1  0  0  0  0
 67 70  2  0  0  0  0
 70 71  1  0  0  0  0
 70 72  1  0  0  0  0
 72 73  1  0  0  0  0
 64 74  1  0  0  0  0
 74 75  2  0  0  0  0
 75 76  1  0  0  0  0
 76 77  1  0  0  0  0
 77 78  1  0  0  0  0
 78 79  1  0  0  0  0
 79 80  1  0  0  0  0
 80 81  1  0  0  0  0
 79 82  2  0  0  0  0
 82 83  1  0  0  0  0
 83 84  1  0  0  0  0
 82 85  1  0  0  0  0
 76 86  2  0  0  0  0
 86 87  1  0  0  0  0
 75 88  1  0  0  0  0
 88 89  2  0  0  0  0
 89 90  1  0  0  0  0
 89 91  1  0  0  0  0
 91 92  2  0  0  0  0
 92 93  1  0  0  0  0
 93 94  2  0  0  0  0
 94 95  1  0  0  0  0
 95 96  1  0  0  0  0
 96 97  1  0  0  0  0
 97 98  1  0  0  0  0
 98 99  1  0  0  0  0
 97100  2  0  0  0  0
100101  1  0  0  0  0
100102  1  0  0  0  0
102103  1  0  0  0  0
 94104  1  0  0  0  0
104105  2  0  0  0  0
105106  1  0  0  0  0
106107  1  0  0  0  0
107108  1  0  0  0  0
108109  1  0  0  0  0
109110  1  0  0  0  0
110111  1  0  0  0  0
109112  2  0  0  0  0
112113  1  0  0  0  0
113114  1  0  0  0  0
112115  1  0  0  0  0
106116  2  0  0  0  0
116117  1  0  0  0  0
105118  1  0  0  0  0
118119  2  0  0  0  0
119120  1  0  0  0  0
119121  1  0  0  0  0
121122  1  0  0  0  0
122123  1  0  0  0  0
123124  2  0  0  0  0
124125  1  0  0  0  0
125126  1  0  0  0  0
124127  1  0  0  0  0
127128  2  0  0  0  0
127129  1  0  0  0  0
123130  1  0  0  0  0
130131  2  0  0  0  0
131132  1  0  0  0  0
132133  2  0  0  0  0
133134  1  0  0  0  0
134135  1  0  0  0  0
135136  1  0  0  0  0
136137  1  0  0  0  0
137138  1  0  0  0  0
136139  2  0  0  0  0
139140  1  0  0  0  0
139141  1  0  0  0  0
141142  1  0  0  0  0
133143  1  0  0  0  0
143144  2  0  0  0  0
144145  1  0  0  0  0
145146  1  0  0  0  0
146147  1  0  0  0  0
147148  1  0  0  0  0
148149  1  0  0  0  0
149150  1  0  0  0  0
148151  2  0  0  0  0
151152  1  0  0  0  0
152153  1  0  0  0  0
151154  1  0  0  0  0
145155  2  0  0  0  0
155156  1  0  0  0  0
144157  1  0  0  0  0
157158  2  0  0  0  0
158159  1  0  0  0  0
 27  1  1  0  0  0  0
 57 31  1  0  0  0  0
 87 61  1  0  0  0  0
117 91  1  0  0  0  0
125121  2  0  0  0  0
156130  1  0  0  0  0
 26  3  1  0  0  0  0
 56 33  1  0  0  0  0
 86 63  1  0  0  0  0
116 93  1  0  0  0  0
155132  1  0  0  0  0
 12  5  2  0  0  0  0
 30 14  1  0  0  0  0
 42 35  2  0  0  0  0
 60 44  1  0  0  0  0
 72 65  2  0  0  0  0
 90 74  1  0  0  0  0
102 95  2  0  0  0  0
120104  1  0  0  0  0
141134  2  0  0  0  0
159143  1  0  0  0  0
 23 17  2  0  0  0  0
 53 47  2  0  0  0  0
 83 77  2  0  0  0  0
113107  2  0  0  0  0
152146  2  0  0  0  0
  1160  1  0  0  0  0
  2161  1  0  0  0  0
  8162  1  0  0  0  0
  8163  1  0  0  0  0
  9164  1  0  0  0  0
  9165  1  0  0  0  0
  9166  1  0  0  0  0
 20167  1  0  0  0  0
 20168  1  0  0  0  0
 21169  1  0  0  0  0
 21170  1  0  0  0  0
 21171  1  0  0  0  0
 28172  1  0  0  0  0
 32173  1  0  0  0  0
 38174  1  0  0  0  0
 38175  1  0  0  0  0
 39176  1  0  0  0  0
 39177  1  0  0  0  0
 39178  1  0  0  0  0
 50179  1  0  0  0  0
 50180  1  0  0  0  0
 51181  1  0  0  0  0
 51182  1  0  0  0  0
 51183  1  0  0  0  0
 58184  1  0  0  0  0
 62185  1  0  0  0  0
 68186  1  0  0  0  0
 68187  1  0  0  0  0
 69188  1  0  0  0  0
 69189  1  0  0  0  0
 69190  1  0  0  0  0
 80191  1  0  0  0  0
 80192  1  0  0  0  0
 81193  1  0  0  0  0
 81194  1  0  0  0  0
 81195  1  0  0  0  0
 88196  1  0  0  0  0
 92197  1  0  0  0  0
 98198  1  0  0  0  0
 98199  1  0  0  0  0
 99200  1  0  0  0  0
 99201  1  0  0  0  0
 99202  1  0  0  0  0
110203  1  0  0  0  0
110204  1  0  0  0  0
111205  1  0  0  0  0
111206  1  0  0  0  0
111207  1  0  0  0  0
118208  1  0  0  0  0
126209  1  0  0  0  0
129210  1  0  0  0  0
131211  1  0  0  0  0
137212  1  0  0  0  0
137213  1  0  0  0  0
138214  1  0  0  0  0
138215  1  0  0  0  0
138216  1  0  0  0  0
149217  1  0  0  0  0
149218  1  0  0  0  0
150219  1  0  0  0  0
150220  1  0  0  0  0
150221  1  0  0  0  0
157222  1  0  0  0  0
158223  1  0  0  0  0
M  END
