223

C          1.96600        0.86420        5.10750
C          2.65770        0.57180        3.98870
C          1.96510       -0.32830        3.12660
C          2.36680       -0.79280        1.85960
C          3.48990       -0.17560        1.17960
S          4.70630       -1.08910        0.34230
C          5.54170        0.33590       -0.17110
C          6.80340        0.27040       -0.96060
C          6.93480       -1.03150       -1.73940
C          4.89590        1.44730        0.28320
Cl         5.41570        3.05340       -0.02700
C          3.73770        1.16590        1.04800
Cl         2.70780        2.41090        1.62770
C          1.60320       -1.81200        1.29940
C          0.42220       -2.29170        1.91570
C         -0.07980       -1.69390        3.08570
C         -1.39310       -2.04110        3.59250
S         -1.67460       -2.27150        5.29370
C         -3.35780       -2.58280        5.05860
C         -4.25310       -2.92450        6.19770
C         -4.30050       -4.43730        6.42430
C         -3.66960       -2.51680        3.73320
C         -2.56600       -2.20340        2.89790
Cl        -2.76340       -1.95590        1.20600
Cl        -5.24870       -2.77930        3.12020
C          0.74070       -0.75020        3.69500
S          0.43490        0.06510        5.20310
C         -0.13260       -3.38690        1.21580
C          0.53140       -3.70220        0.06740
S          1.91780       -2.66460       -0.19090
C          0.11780       -4.72110       -0.84550
C         -1.12310       -5.28720       -0.85830
C         -1.29500       -6.26450       -1.86410
C         -2.44670       -7.02310       -2.12860
C         -3.67010       -6.85190       -1.36270
S         -4.39760       -5.28230       -1.14780
C         -5.72000       -5.92850       -0.23770
C         -6.80700       -5.06380        0.29760
C         -8.04170       -5.08500       -0.60530
C         -5.59510       -7.28070       -0.12290
Cl        -6.71170       -8.27000        0.72300
C         -4.43810       -7.80710       -0.75540
Cl        -4.01970       -9.46540       -0.65400
C         -2.37180       -7.91840       -3.18780
C         -1.24000       -8.02660       -4.03280
C         -0.08400       -7.27440       -3.75500
C          1.06790       -7.29990       -4.64030
S          0.86580       -7.00180       -6.34280
C          2.56830       -7.05200       -6.63930
C          3.11510       -6.88120       -8.01270
C          2.96870       -8.16680       -8.82930
C          3.23950       -7.30900       -5.48150
C          2.39550       -7.44370       -4.34530
Cl         3.00850       -7.83460       -2.79270
Cl         4.94720       -7.44230       -5.37430
C         -0.12580       -6.43520       -2.64490
S          1.15510       -5.39670       -2.07740
C         -1.48320       -8.91900       -5.11460
C         -2.74200       -9.43420       -5.13220
S         -3.66530       -8.93850       -3.72520
C         -3.34920      -10.29070       -6.13250
C         -4.60940      -10.16700       -6.57200
C         -5.46990       -9.06630       -6.15730
C         -6.77090       -9.15730       -5.74370
S         -7.36580       -7.68270       -5.09600
C         -5.84750       -6.88970       -5.40470
C         -4.97070       -7.75020       -6.00770
C         -5.51560       -5.58440       -4.93130
C         -4.26860       -5.03230       -4.96340
C         -4.19010       -3.77090       -4.33300
C         -3.05170       -2.97050       -4.16780
C         -1.77260       -3.27940       -4.78010
S         -0.31100       -3.18110       -3.84870
C          0.68760       -3.54370       -5.21200
C          2.16820       -3.62150       -5.07630
C          2.72890       -2.45130       -4.27200
C         -0.08530       -3.71950       -6.32140
Cl         0.54030       -4.04410       -7.88390
C         -1.47850       -3.58150       -6.08180
Cl        -2.64050       -3.69190       -7.34080
C         -3.20380       -1.82890       -3.39400
C         -4.42930       -1.42080       -2.81500
C         -5.57380       -2.22430       -2.99330
C         -6.84270       -1.89980       -2.36740
S         -8.33320       -1.97570       -3.26220
C         -9.28160       -1.56010       -1.87610
C        -10.75900       -1.40780       -1.97240
C        -11.13580       -0.04480       -2.55710
C         -8.47670       -1.36790       -0.79360
C         -7.09580       -1.55960       -1.06570
Cl        -5.90660       -1.45700        0.16680
Cl        -9.05320       -0.96180        0.77230
C         -5.42520       -3.37150       -3.76740
S         -6.66240       -4.55570       -4.10280
C         -4.29920       -0.17630       -2.13640
C         -3.03350        0.32420       -2.17050
S         -1.93260       -0.70310       -3.06490
C         -2.41310        1.46260       -1.56010
C         -2.66890        2.11250       -0.39050
C         -1.62790        3.00320       -0.00790
C         -1.50310        3.75020        1.17580
C         -2.45040        3.56560        2.26650
S         -3.38370        4.83180        2.99410
C         -4.10400        3.74380        4.13590
C         -5.05160        4.23680        5.17270
C         -4.29410        4.80890        6.37330
C         -3.62340        2.48010        3.96040
Cl        -4.08470        1.12100        4.90270
C         -2.68810        2.37770        2.89820
Cl        -1.87740        0.92320        2.49150
C         -0.35440        4.51440        1.32970
C          0.71290        4.49350        0.39850
C          0.62840        3.68670       -0.74790
C          1.77570        3.44870       -1.60960
S          2.70470        4.74760       -2.29690
C          3.80900        3.66280       -3.07040
C          4.92120        4.16660       -3.92150
C          4.42110        4.53180       -5.32070
C          3.45820        2.37350       -2.80860
C          2.31390        2.24370       -1.97770
Cl         1.76560        0.70430       -1.45440
Cl         4.30620        1.00840       -3.40270
C         -0.56590        3.00790       -0.94540
S         -0.91850        1.99210       -2.30190
C          1.84660        5.18900        0.88450
C          1.67500        5.71110        2.12960
S          0.06270        5.43170        2.75290
C          2.72950        6.26950        2.92370
C          4.02140        5.84250        2.86870
C          4.87560        6.51050        3.77870
C          6.23640        6.26070        4.01650
C          6.88370        5.10720        3.41320
S          8.35370        5.21910        2.49670
C          8.39280        3.51240        2.20350
C          9.46360        2.90100        1.36960
C          9.32470        3.31700       -0.09590
C          7.32300        2.90630        2.79080
Cl         7.02640        1.21570        2.75080
C          6.46450        3.80640        3.47490
Cl         5.08370        3.28350        4.34870
C          6.88770        7.12390        4.88720
C          6.21970        8.16760        5.57160
C          4.83520        8.34470        5.41350
C          4.10880        9.33750        6.18780
S          3.08150       10.51390        5.42560
C          2.65030       11.23160        6.93940
C          1.68090       12.35920        7.01100
C          0.24260       11.83760        7.05980
C          3.26160       10.57670        7.96690
C          4.09420        9.50610        7.54470
Cl         4.92460        8.48900        8.65060
Cl         3.06510       10.99440        9.61990
C          4.19450        7.52110        4.49670
S          2.49650        7.54230        4.10020
C          7.12200        8.92540        6.37490
C          8.38580        8.45860        6.32570
S          8.57690        7.07500        5.30390
H          2.25940        1.50790        5.91360
H          3.64300        0.94690        3.78430
H          6.82620        1.12320       -1.64440
H          7.65210        0.37460       -0.27610
H          7.85730       -1.03330       -2.31410
H          6.09760       -1.14910       -2.42280
H          6.94540       -1.88070       -1.06010
H         -5.25790       -2.55780        5.97660
H         -3.89110       -2.43040        7.10060
H         -4.95960       -4.66940        7.25640
H         -3.30630       -4.81620        6.64940
H         -4.67160       -4.94020        5.53480
H         -0.96730       -3.95310        1.58250
H         -1.90510       -5.00200       -0.18080
H         -6.43760       -4.04350        0.39230
H         -7.08250       -5.42600        1.29110
H         -7.79270       -4.73000       -1.60210
H         -8.81450       -4.44330       -0.19030
H         -8.43260       -6.09560       -0.68670
H          4.16980       -6.61180       -7.93550
H          2.58180       -6.07150       -8.51450
H          1.91940       -8.43810       -8.91890
H          3.50040       -8.98340       -8.34690
H          3.37830       -8.02470       -9.82560
H         -0.75780       -9.13280       -5.87870
H         -2.71580      -11.07430       -6.52730
H         -5.01820      -10.89280       -7.26030
H         -7.40010      -10.02520       -5.73500
H         -3.98690       -7.46360       -6.33040
H         -3.41320       -5.52220       -5.38850
H          2.43390       -4.55490       -4.57010
H          2.60620       -3.64350       -6.07630
H          2.47320       -1.50550       -4.74330
H          3.81090       -2.52910       -4.20810
H          2.32300       -2.45730       -3.26280
H        -11.16240       -2.19830       -2.60780
H        -11.18600       -1.50910       -0.97300
H        -12.21660        0.04960       -2.61760
H        -10.75080        0.75480       -1.92930
H        -10.71860        0.06470       -3.55530
H         -5.11810        0.34130       -1.67260
H         -3.54290        1.92780        0.20730
H         -5.67920        3.40480        5.49700
H         -5.68950        5.01150        4.74350
H         -3.66730        4.04280        6.82240
H         -4.99600        5.16860        7.12080
H         -3.66130        5.63590        6.06000
H          5.36550        5.04670       -3.45300
H          5.68260        3.38780       -3.99550
H          3.66300        5.30890       -5.25910
H          5.24530        4.89490       -5.92860
H          3.98750        3.66060       -5.80530
H          2.76760        5.27920        0.33930
H          4.35130        5.06320        2.20730
H          9.39240        1.81560        1.45900
H         10.44080        3.21520        1.74290
H         10.08520        2.82770       -0.69850
H          8.34410        3.04080       -0.47440
H          9.44090        4.39380       -0.19180
H          1.88860       12.94450        7.90870
H          1.80570       13.00030        6.13690
H          0.02390       11.25120        6.17070
H          0.09980       11.20860        7.93480
H         -0.45420       12.66980        7.11120
H          6.82670        9.78630        6.94550
H          9.24980        8.84290        6.83160
