222

C          2.85530       -5.63740        8.89550
C          2.15000       -4.50590        8.69760
C          1.29880       -4.57500        7.55450
C          0.39870       -3.60770        7.08390
C          0.30400       -2.27050        7.68310
C          1.44300       -1.49560        7.88530
C          1.35880       -0.21000        8.38480
C          0.12700        0.34730        8.70880
S         -0.14030        1.95990        9.35770
C          1.50940        2.74160        9.37060
C          1.94230        3.21360        7.99660
C         -1.00440       -0.44950        8.51910
F         -2.21770        0.04890        8.84240
C         -0.93610       -1.72670        8.01420
C         -0.37770       -3.96500        5.99070
C         -0.27010       -5.21270        5.32910
C          0.63430       -6.17750        5.79870
C          0.74870       -7.49640        5.16670
C         -0.38140       -8.27700        4.92560
C         -0.26150       -9.53050        4.36670
C          0.98130      -10.05190        4.00950
S          0.99810      -11.65420        3.26390
C          2.50100      -12.45300        3.93910
C          2.48960      -12.49790        5.45370
C          2.09640       -9.24780        4.22570
C          1.99410       -8.00190        4.81010
F          3.33060       -9.65950        3.86160
C          1.39830       -5.82820        6.90470
S          2.54590       -6.86420        7.71490
C         -1.11280       -5.28250        4.18710
C         -1.85860       -4.16120        3.99080
S         -1.55170       -2.93620        5.21060
C         -2.78900       -3.86930        2.94960
C         -3.61450       -2.78740        2.88470
C         -4.37230       -2.71620        1.68980
C         -5.22100       -1.67290        1.27960
C         -5.51680       -0.55950        2.18850
C         -5.92340       -0.80420        3.49900
C         -6.14210        0.23200        4.38400
C         -5.95540        1.55440        3.99470
S         -6.17610        2.94330        5.05770
C         -5.75440        2.27100        6.70570
C         -4.31830        1.79310        6.77840
C         -5.58960        1.78690        2.66900
F         -5.42010        3.05450        2.24350
C         -5.36760        0.76240        1.77560
C         -5.68060       -1.72960       -0.02680
C         -5.35590       -2.78740       -0.91380
C         -4.53480       -3.84670       -0.48960
C         -4.09920       -4.88270       -1.43510
C         -4.23150       -6.24120       -1.16000
C         -3.84990       -7.18320       -2.09200
C         -3.30340       -6.81660       -3.32220
S         -2.84750       -8.12090       -4.42170
C         -3.16680       -7.45590       -6.09770
C         -4.60670       -7.02300       -6.28080
C         -3.11940       -5.45650       -3.55510
C         -3.51970       -4.50330       -2.64240
F         -2.53640       -5.00980       -4.69030
C         -4.07120       -3.78920        0.81450
S         -2.92580       -4.89600        1.53330
C         -5.85180       -2.55380       -2.22000
C         -6.47100       -1.34540       -2.36300
S         -6.61710       -0.49940       -0.83400
C         -6.65650       -0.62390       -3.58310
C         -6.05340       -0.92030       -4.77330
C         -5.92930        0.19480       -5.63700
C         -5.10620        0.26610       -6.77900
C         -4.56900       -0.97300       -7.35380
C         -5.42670       -2.04080       -7.62370
C         -4.94060       -3.22390       -8.13490
C         -3.58060       -3.40350       -8.38450
S         -3.07510       -4.98750       -8.98590
C         -1.72890       -4.62510      -10.17050
C         -2.18370       -3.70050      -11.28150
C         -2.73400       -2.34040       -8.08740
F         -1.39840       -2.44530       -8.26210
C         -3.21060       -1.14120       -7.59650
C         -4.76360        1.54150       -7.19560
C         -5.32580        2.71430       -6.62890
C         -6.28670        2.62880       -5.60500
C         -6.91110        3.84350       -5.07070
C         -6.93680        4.12580       -3.70880
C         -7.53810        5.27220       -3.22700
C         -8.15010        6.17380       -4.09000
S         -8.95070        7.66710       -3.61450
C         -9.11490        7.53230       -1.80100
C        -10.15400        6.50640       -1.38990
C         -8.10230        5.88610       -5.45630
C         -7.49390        4.75580       -5.95040
F         -8.67510        6.74290       -6.32570
C         -6.50030        1.36440       -5.07820
S         -7.29110        1.00930       -3.56150
C         -4.60920        3.88220       -6.99020
C         -3.51580        3.63020       -7.76640
S         -3.45830        1.95070       -8.28870
C         -2.32750        4.42000       -7.76440
N         -1.13080        3.99090       -8.34570
C         -0.16680        4.70590       -7.72510
N          1.15420        4.77480       -7.45700
C          1.24770        5.63130       -6.36430
N          0.08690        6.12900       -5.98280
C         -0.81890        5.56400       -6.81370
N         -2.15350        5.38170       -6.87720
C          2.39940        5.64590       -5.52320
N          2.21850        6.01910       -4.19370
C          3.33350        5.60020       -3.56900
N          3.91940        5.38850       -2.37380
C          5.10480        4.71310       -2.67270
N          5.27770        4.51210       -3.96050
C          4.17610        5.03640       -4.54940
N          3.56180        5.07260       -5.75900
C          5.92990        4.17460       -1.63500
C          7.26010        3.90150       -1.65790
C          7.72560        3.24940       -0.48270
C          9.03830        2.87310       -0.16140
C         10.15150        3.06950       -1.09780
C         11.32730        3.69130       -0.69060
C         12.38710        3.85950       -1.56100
C         12.30950        3.40530       -2.87220
S         13.58800        3.51930       -4.07800
C         14.79020        4.68650       -3.35250
C         14.27580        6.11360       -3.34620
C         11.12670        2.77330       -3.26360
F         11.02580        2.30290       -4.52210
C         10.06070        2.60650       -2.40960
C          9.23010        2.27850        1.07920
C          8.17380        1.99050        1.97600
C          6.85810        2.35340        1.65080
C          5.72770        1.97940        2.51340
C          4.66900        1.24400        1.98870
C          3.63270        0.80230        2.78910
C          3.61730        1.08540        4.14890
S          2.40450        0.53320        5.30540
C          1.32800       -0.60450        4.37400
C          0.21390        0.11380        3.63760
C          4.66560        1.85670        4.65460
C          5.70740        2.29720        3.86990
F          4.66860        2.16950        5.96920
C          6.67820        3.00270        0.43880
S          5.16210        3.63340       -0.14780
C          8.63800        1.28130        3.12430
C          9.96820        1.06460        3.10490
S         10.75390        1.69280        1.69700
H          3.55910       -5.84780        9.67700
H          2.20190       -3.64810        9.34300
H          2.41140       -1.88930        7.61550
H          2.26680        0.35670        8.50400
H          2.21640        2.04290        9.81510
H          1.38290        3.58600       10.04910
H          2.01520        2.38380        7.29850
H          1.22760        3.93300        7.60390
H          2.91820        3.68980        8.06130
H         -1.84500       -2.29570        7.90060
H         -1.35490       -7.90970        5.21290
H         -1.13620      -10.13900        4.19740
H          3.37980      -11.94260        3.55170
H          2.45780      -13.45660        3.51560
H          2.53450      -11.49480        5.87360
H          3.35310      -13.05670        5.80890
H          1.58540      -12.98360        5.81480
H          2.89310       -7.42250        4.95100
H         -1.15280       -6.12880        3.52480
H         -3.64860       -2.03980        3.65710
H         -6.08770       -1.82080        3.82350
H         -6.46350        0.00600        5.38810
H         -5.91810        3.11830        7.37110
H         -6.46670        1.48750        6.96100
H         -3.63870        2.60110        6.51770
H         -4.08740        1.45960        7.78720
H         -4.14720        0.96440        6.09360
H         -5.04610        1.00470        0.77540
H         -4.66400       -6.55770       -0.22340
H         -3.97490       -8.23470       -1.88620
H         -2.47160       -6.64580       -6.30350
H         -2.92780       -8.29900       -6.74540
H         -5.28630       -7.84200       -6.05480
H         -4.75570       -6.71060       -7.31200
H         -4.84680       -6.18320       -5.63160
H         -3.34020       -3.46340       -2.86970
H         -5.71400       -3.23960       -3.03490
H         -5.58920       -1.86780       -4.97800
H         -6.48600       -1.92810       -7.44820
H         -5.61160       -4.04070       -8.35150
H         -1.47060       -5.61020      -10.55950
H         -0.87660       -4.22430       -9.62660
H         -3.05460       -4.11130      -11.78830
H         -1.38170       -3.57900      -12.00670
H         -2.44310       -2.71880      -10.88930
H         -2.50000       -0.36330       -7.36780
H         -6.45490        3.45980       -3.01080
H         -7.51520        5.45830       -2.16600
H         -9.41980        8.53440       -1.49930
H         -8.13370        7.32690       -1.37560
H        -10.23930        6.48170       -0.30520
H         -9.88390        5.51220       -1.73930
H        -11.12310        6.76560       -1.81000
H         -7.49380        4.57880       -7.01470
H         -4.79400        4.85340       -6.57140
H         -1.04060        3.25280       -9.02450
H          1.93890        4.28560       -7.85470
H          1.36570        6.43100       -3.85170
H          3.59760        5.63150       -1.45140
H          7.88600        4.17630       -2.48580
H         11.41230        4.06560        0.31810
H         13.28040        4.34280       -1.20100
H         15.65970        4.59170       -4.00300
H         15.06290        4.33490       -2.35830
H         15.03470        6.77940       -2.93960
H         13.37480        6.20290       -2.74300
H         14.04120        6.43080       -4.35950
H          9.17780        2.09750       -2.76280
H          4.66710        0.98820        0.94010
H          2.84150        0.22330        2.34170
H          1.95540       -1.20010        3.71250
H          0.91520       -1.25440        5.14600
H          0.60860        0.81380        2.90430
H         -0.41500       -0.61250        3.12580
H         -0.40260        0.66600        4.34300
H          6.49000        2.89130        4.31540
H          7.99060        0.94480        3.91330
H         10.56490        0.56380        3.84210
