244

C          3.59020       -0.90420        8.90420
C          3.30680       -0.19820        7.79140
C          2.15990       -0.69230        7.10370
C          1.56440       -0.19730        5.93800
C          2.10740        0.93520        5.20050
S          3.68710        0.89540        4.48160
C          3.49620        2.46690        3.78500
C          4.53770        3.07930        2.91320
C          4.15870        2.94320        1.43630
C          2.27340        2.97850        4.10370
Cl         1.73000        4.52730        3.60450
C          1.48160        2.11220        4.90180
Cl        -0.07670        2.54000        5.47610
C          0.42150       -0.84630        5.48710
C         -0.15210       -1.95880        6.14600
C          0.46180       -2.47090        7.29760
C         -0.04470       -3.65580        7.97430
S         -1.65740       -3.72250        8.61700
C         -1.43210       -5.32800        9.22410
C         -2.50170       -6.01740        9.99660
C         -2.45120       -5.61970       11.47370
C         -0.17500       -5.76990        8.93910
C          0.61360       -4.82610        8.22680
Cl         2.19960       -5.17700        7.67850
Cl         0.41890       -7.31860        9.37900
C          1.59940       -1.81560        7.75590
S          2.49790       -2.21680        9.19210
C         -1.30000       -2.44800        5.45550
C         -1.57200       -1.76550        4.31990
S         -0.43610       -0.45860        4.02860
C         -2.63570       -1.89770        3.34240
C         -2.54810       -2.43400        2.10150
C         -3.66500       -2.13920        1.27080
C         -3.84580       -2.44940       -0.09020
C         -2.94090       -3.30840       -0.83320
S         -1.20830       -3.15230       -0.74960
C         -0.95210       -4.43500       -1.88090
C          0.41870       -4.89460       -2.22480
C          0.98370       -5.82300       -1.14770
C         -2.14600       -4.94290       -2.29620
Cl        -2.29600       -6.21880       -3.43290
C         -3.27310       -4.30810       -1.70970
Cl        -4.87140       -4.84280       -2.01510
C         -4.91130       -1.82320       -0.73150
C         -5.84300       -0.99940       -0.05640
C         -5.74920       -0.81830        1.33620
C         -6.73100       -0.01280        2.03500
S         -6.26830        1.25350        3.13440
C         -7.91150        1.71450        3.41910
C         -8.25120        2.79590        4.38400
C         -8.19660        2.27720        5.82280
C         -8.75890        0.91680        2.70900
C         -8.09530       -0.05940        1.92000
Cl        -8.94820       -1.22330        0.98970
Cl       -10.46780        1.07090        2.73730
C         -4.62340       -1.35090        1.95310
S         -4.15110       -1.05760        3.60290
C         -6.65390       -0.26520       -0.95410
C         -6.34760       -0.48240       -2.26700
S         -5.12770       -1.72390       -2.45670
C         -6.66290        0.38290       -3.35880
C         -7.26850        1.60460       -3.25650
C         -6.96590        2.47570       -4.32990
C         -7.12330        3.87710       -4.36740
C         -7.89180        4.60280       -3.37160
S         -7.72990        4.30680       -1.66390
C         -8.87680        5.53590       -1.25260
C         -9.23600        5.81030        0.16690
C         -9.47740        4.52610        0.95720
C         -9.34290        6.13800       -2.38280
Cl       -10.50090        7.40470       -2.38770
C         -8.78250        5.62000       -3.58190
Cl        -9.25790        6.17700       -5.13060
C         -6.36830        4.55750       -5.31570
C         -5.58910        3.90230       -6.30210
C         -5.55700        2.49810       -6.35900
C         -4.73640        1.75570       -7.30160
S         -3.03980        2.07570       -7.51600
C         -2.84460        0.75020       -8.61150
C         -1.52810        0.47270       -9.24840
C         -1.19970        1.51990      -10.31440
C         -4.03320        0.11030       -8.79550
C         -5.10310        0.66770       -8.04460
Cl        -6.70290        0.05880       -8.12660
Cl        -4.24190       -1.25490       -9.81350
C         -6.19680        1.82610       -5.32590
S         -5.88960        0.16320       -4.91210
C         -4.69290        4.78880       -6.94080
C         -4.66870        6.03840       -6.38850
S         -5.98060        6.26020       -5.23960
C         -3.50450        6.86650       -6.34810
S         -2.02080        6.09240       -6.89680
C         -3.24860        7.97840       -5.59390
C         -1.86920        8.16790       -5.30160
C         -1.25410        9.07930       -4.40090
C         -2.07710       10.25530       -3.94830
C         -2.18630       11.29320       -5.06730
C          0.03940        8.85190       -3.96990
C          0.73070        9.74030       -2.96910
C          0.40220        9.32550       -1.53270
C         -1.09750        7.14620       -5.88020
C          0.17560        6.88980       -5.41270
S          1.07680        5.44350       -5.70680
C          0.72750        7.68240       -4.39210
C          1.86380        7.04690       -3.82340
C          2.12530        5.80630       -4.34390
C          2.93080        4.76000       -3.79650
C          2.74000        3.47920       -4.17660
C          3.24000        2.28140       -3.59790
C          2.78470        1.03670       -3.93760
C          3.36310       -0.01260       -3.19170
C          3.07390       -1.38630       -3.28660
C          1.90550       -1.86020       -4.01110
S          0.34580       -1.17560       -3.62550
C         -0.49260       -2.31540       -4.62050
C         -1.97560       -2.28350       -4.75030
C         -2.42110       -1.32270       -5.85430
C          0.39600       -3.14750       -5.23390
Cl        -0.06360       -4.41100       -6.29930
C          1.75300       -2.90050       -4.88470
Cl         3.05050       -3.79640       -5.55480
C          3.85660       -2.23970       -2.51870
C          4.79480       -1.76250       -1.57070
C          4.99040       -0.38110       -1.38950
C          5.81590        0.10140       -0.29530
S          7.07930        1.26790       -0.54200
C          7.51840        1.26410        1.13190
C          8.66020        2.07800        1.63170
C          9.98980        1.35570        1.40170
C          6.72520        0.40140        1.82780
C          5.75060       -0.25120        1.02700
Cl         4.55960       -1.28860        1.71040
Cl         6.86120        0.11800        3.51840
C          4.31610        0.46670       -2.25880
S          4.42370        2.20690       -2.30590
C          5.38420       -2.82180       -0.83720
C          4.90480       -4.05010       -1.17530
S          3.74820       -3.97510       -2.48100
C          5.13040       -5.26320       -0.44510
C          5.21230       -5.30690        0.91180
C          5.30330       -6.62130        1.42940
C          5.28240       -7.00600        2.77950
C          4.98690       -5.99640        3.78110
S          6.00490       -5.65350        5.14550
C          5.02040       -4.32000        5.64500
C          5.38900       -3.46510        6.80660
C          5.99630       -2.14050        6.33970
C          3.96210       -4.16980        4.79910
Cl         2.77420       -2.94060        4.93900
C          3.93430       -5.12130        3.74960
Cl         2.65510       -5.18110        2.60800
C          5.48760       -8.35080        3.04900
C          5.64130       -9.31730        2.02470
C          5.53570       -8.94400        0.67380
C          5.57880       -9.93370       -0.38970
S          6.67300       -9.77280       -1.73110
C          6.11820      -11.24020       -2.46010
C          6.73150      -11.75780       -3.71390
C          7.99170      -12.57190       -3.41100
C          5.14380      -11.81070       -1.69630
C          4.83170      -11.07100       -0.52420
Cl         3.58150      -11.53570        0.55660
Cl         4.34890      -13.27780       -2.09780
C          5.38140       -7.58980        0.40380
S          5.20650       -6.85480       -1.16930
C          5.88330      -10.61360        2.56730
C          5.87460      -10.62750        3.91560
S          5.57760       -9.07790        4.62680
H          4.39020       -0.74580        9.60070
H          3.87570        0.64870        7.45390
H          5.49480        2.59120        3.09600
H          4.63230        4.13830        3.16440
H          4.94710        3.34560        0.80570
H          4.00720        1.89860        1.17740
H          3.23850        3.48340        1.23150
H         -3.47640       -5.75330        9.58260
H         -2.36110       -7.09580        9.90330
H         -2.59250       -4.54680       11.58030
H         -3.23480       -6.13200       12.02510
H         -1.48930       -5.88820       11.90310
H         -1.88580       -3.28260        5.79580
H         -1.68810       -2.98750        1.77340
H          1.07410       -4.02910       -2.32740
H          0.38420       -5.42120       -3.17950
H          1.97670       -6.15820       -1.43560
H          0.34480       -6.69350       -1.02180
H          1.05460       -5.30100       -0.19600
H         -9.25640        3.15810        4.16230
H         -7.54570        3.62060        4.26940
H         -7.19850        1.91280        6.05360
H         -8.44810        3.07410        6.51730
H         -8.90370        1.46240        5.95640
H         -7.36480        0.47250       -0.63340
H         -7.82320        1.90290       -2.38830
H        -10.13160        6.43420        0.17670
H         -8.42740        6.37570        0.64050
H         -8.57440        3.91990        0.98430
H         -9.76500        4.76480        1.97740
H        -10.27260        3.94190        0.50130
H         -1.56480       -0.51880       -9.70250
H         -0.74670        0.47890       -8.48530
H         -1.96150        1.52080      -11.09000
H         -1.15550        2.51040       -9.86740
H         -0.23870        1.29940      -10.77100
H         -3.98350        4.47830       -7.68570
H         -4.04270        8.57140       -5.17610
H         -3.07710        9.91080       -3.67820
H         -1.64530       10.72190       -3.06560
H         -2.79350       12.13590       -4.74490
H         -2.64190       10.85480       -5.95200
H         -1.19920       11.66120       -5.33930
H          0.44500       10.78090       -3.12470
H          1.80900        9.67540       -3.12360
H          0.69970        8.29450       -1.35650
H          0.92630        9.96450       -0.82540
H         -0.66600        9.40220       -1.34450
H          2.41730        7.44060       -2.98970
H          3.60030        5.01110       -2.98520
H          2.04100        3.29340       -4.98430
H          2.05490        0.87780       -4.71050
H         -2.32740       -3.29030       -4.98120
H         -2.41760       -1.97090       -3.80260
H         -2.08040       -0.31290       -5.63690
H         -3.50540       -1.31540       -5.92090
H         -2.01370       -1.63220       -6.81330
H          8.67520        3.03800        1.11290
H          8.52200        2.25700        2.69950
H         10.81300        1.96200        1.76940
H          9.99620        0.40370        1.92620
H         10.13890        1.17010        0.34080
H          6.14760       -2.68110       -0.09520
H          5.18570       -4.42360        1.52200
H          6.10250       -3.99970        7.43490
H          4.49190       -3.26240        7.39510
H          5.28520       -1.59280        5.72610
H          6.25630       -1.52680        7.19790
H          6.89480       -2.32210        5.75470
H          6.98790      -10.91960       -4.36380
H          6.00280      -12.38890       -4.22590
H          7.74860      -13.42030       -2.77630
H          8.72600      -11.95360       -2.90000
H          8.42810      -12.94180       -4.33470
H          6.06800      -11.48310        1.96420
H          6.02880      -11.46650        4.56550
