238

C          1.90380       -0.12960       11.57820
C          1.88470       -0.07500       10.23180
C          0.98900       -1.02340        9.65320
C          0.71740       -1.23640        8.29570
C          1.24870       -0.34030        7.25890
C          1.96060       -0.80420        6.15980
C          2.39760        0.06210        5.17440
C          2.10740        1.41890        5.24310
S          2.58510        2.64110        4.06820
C          3.19390        1.69740        2.64000
C          2.07860        1.02290        1.86750
C          1.39010        1.86780        6.35220
F          1.07700        3.18050        6.44060
C          0.97550        1.02330        7.35350
C         -0.16460       -2.26110        7.99000
C         -0.85720       -3.00720        8.97510
C         -0.60590       -2.77350       10.33520
C         -1.33650       -3.48960       11.38810
C         -2.72750       -3.52020       11.39550
C         -3.42590       -4.17240       12.39380
C         -2.75250       -4.82490       13.42050
S         -3.50800       -5.69670       14.74800
C         -5.30000       -5.48040       14.43590
C         -6.07110       -6.17420       15.54290
C         -1.35640       -4.78610       13.39960
C         -0.65040       -4.13350       12.41580
F         -0.67400       -5.41500       14.37790
C          0.34560       -1.80820       10.63830
S          0.84330       -1.32800       12.24090
C         -1.76690       -3.93290        8.39220
C         -1.77460       -3.91380        7.03360
S         -0.63700       -2.74250        6.38340
C         -2.61180       -4.64220        6.11880
C         -3.93570       -4.98660        6.29760
C         -4.42490       -5.54680        5.07180
C         -5.69440       -5.85250        4.65440
C         -5.86930       -6.21540        3.30150
C         -7.00840       -6.34160        2.52230
C         -6.62020       -6.59380        1.16550
C         -5.24110       -6.67760        1.12360
C         -4.72710       -6.38370        2.42570
C         -3.45940       -6.07950        2.83970
C         -3.30250       -5.59780        4.15740
C         -2.21760       -5.02940        4.79720
C         -7.45360       -6.46760       -0.00230
C         -8.56200       -5.65670       -0.12320
C         -8.79120       -5.41210       -1.51960
C         -9.48330       -4.41140       -2.13960
C         -9.17520       -4.15570       -3.50040
C         -9.33400       -3.00950       -4.24620
C         -8.56020       -3.13600       -5.45780
C         -8.03620       -4.41230       -5.50270
C         -8.32200       -5.05520       -4.25620
C         -7.69320       -6.10890       -3.65150
C         -7.84400       -6.23520       -2.25140
C         -7.05080       -6.87500       -1.32260
C         -8.04440       -2.01860       -6.19070
C         -8.00040       -0.73050       -5.73660
C         -6.94420        0.03260       -6.29110
C         -6.46690        1.26750       -5.83110
C         -7.08550        2.03920       -4.74230
C         -7.40150        3.38280       -4.92860
C         -7.84790        4.15130       -3.87360
C         -7.98340        3.60970       -2.60010
S         -8.49940        4.66530       -1.27090
C         -7.14400        4.40080       -0.06560
C         -5.79280        4.77450       -0.64050
C         -7.70790        2.25620       -2.43820
F         -7.85750        1.66550       -1.23250
C         -7.25620        1.47500       -3.48290
C         -5.23580        1.67400       -6.31700
C         -4.50910        0.96050       -7.29680
C         -5.04430       -0.22100       -7.84780
C         -4.28690       -0.93740       -8.88070
C         -4.00880       -2.29980       -8.79460
C         -3.23020       -2.91870       -9.74990
C         -2.70880       -2.21230      -10.83020
S         -1.71240       -3.08950      -12.00130
C         -0.27610       -1.97170      -12.22140
C          0.41950       -1.67990      -10.90760
C         -3.03260       -0.86230      -10.93000
C         -3.79010       -0.22480       -9.96990
F         -2.60460       -0.12620      -11.97830
C         -6.22080       -0.68650       -7.28000
S         -6.91610       -2.27280       -7.51350
C         -3.16630        1.41410       -7.38510
C         -2.86010        2.38290       -6.47540
S         -4.27030        2.92940       -5.58340
C         -1.56160        2.72890       -5.99250
C         -1.28120        3.10990       -4.71370
C          0.09130        3.01610       -4.37900
C          0.66160        3.15590       -3.10350
C         -0.14260        3.57070       -1.94770
C         -0.14900        2.81030       -0.78150
C         -0.89000        3.19490        0.31760
C         -1.64550        4.36160        0.29610
S         -2.61240        4.94320        1.64990
C         -1.78590        4.22080        3.11230
C         -0.37560        4.74310        3.29450
C         -1.65680        5.09740       -0.89020
F         -2.40060        6.21840       -0.96170
C         -0.92570        4.72230       -1.99600
C          1.99700        2.80310       -2.98510
C          2.79270        2.40820       -4.08840
C          2.23520        2.33290       -5.37730
C          3.07390        1.99430       -6.53370
C          4.24470        2.71040       -6.76880
C          5.05160        2.43280       -7.85510
C          4.71740        1.41890       -8.74480
S          5.64550        0.95290      -10.17000
C          6.88500        2.28230      -10.36180
C          8.14300        2.04090       -9.54770
C          3.54630        0.70240       -8.49090
C          2.72780        0.97600       -7.41860
F          3.20130       -0.29540       -9.32980
C          0.87590        2.58340       -5.47780
S         -0.11190        2.34440       -6.90000
C          4.09190        2.00660       -3.68710
C          4.29760        2.08960       -2.34110
S          2.90510        2.73780       -1.49860
C          5.42070        1.61610       -1.59640
C          6.47470        0.88190       -2.05280
C          7.36200        0.45800       -1.02900
C          8.49210       -0.36730       -1.15100
C          8.92860       -0.84030       -2.46890
C          9.05960        0.04270       -3.53940
C          9.38490       -0.41030       -4.80190
C          9.58490       -1.76510       -5.04400
S          9.96270       -2.44700       -6.62590
C          9.11200       -1.30860       -7.77820
C          7.61030       -1.29540       -7.57010
C          9.50330       -2.63150       -3.95370
F          9.71820       -3.94700       -4.14120
C          9.18080       -2.19250       -2.68850
C          9.12600       -0.72900        0.03070
C          8.67450       -0.31980        1.30920
C          7.54050        0.49550        1.43140
C          6.98620        0.86580        2.74160
C          6.64450       -0.11950        3.66920
C          6.09460        0.22340        4.88380
C          5.87100        1.55610        5.24430
S          5.16090        1.77970        6.84420
C          5.41390        3.52930        7.32700
C          4.23860        4.41670        6.97230
C          6.20810        2.52470        4.30330
C          6.74910        2.19260        3.07450
F          6.02580        3.84070        4.54480
C          6.92900        0.88450        0.25030
S          5.48180        1.84790        0.13750
C          9.52090       -0.80760        2.34860
C         10.55240       -1.54040        1.88310
S         10.57020       -1.69950        0.16030
H          2.48810        0.46280       12.25490
H          2.48980        0.59430        9.64690
H          2.18990       -1.85590        6.07940
H          2.97100       -0.33050        4.35030
H          3.67400        2.45900        2.02690
H          3.95450        0.99510        2.97840
H          2.49550        0.50410        1.00660
H          1.54630        0.30410        2.48740
H          1.37370        1.77000        1.51350
H          0.41540        1.42090        8.18570
H         -3.27410       -3.00330       10.62090
H         -4.50320       -4.16430       12.36640
H         -5.53000       -5.92210       13.46610
H         -5.51310       -4.41130       14.42460
H         -7.14020       -6.06010       15.37720
H         -5.81890       -5.74380       16.50920
H         -5.83180       -7.23480       15.56620
H          0.42740       -4.14530       12.44680
H         -2.37100       -4.60980        8.96870
H         -4.52380       -4.81450        7.17970
H         -6.54800       -5.76170        5.31180
H         -8.02430       -6.24470        2.86120
H         -4.63690       -6.84160        0.25100
H         -2.60930       -6.14200        2.17500
H         -1.23400       -4.87920        4.38930
H         -9.09580       -5.17870        0.67660
H        -10.13800       -3.74500       -1.59610
H         -9.88710       -2.13440       -3.95790
H         -7.40430       -4.80900       -6.27540
H         -6.99930       -6.74230       -4.18600
H         -6.23250       -7.53910       -1.53500
H         -8.63040       -0.36030       -4.94920
H         -7.28220        3.82630       -5.90540
H         -8.07870        5.19550       -4.01430
H         -7.41090        5.05170        0.76630
H         -7.17400        3.36570        0.26900
H         -5.80020        5.79910       -1.00470
H         -5.03020        4.69170        0.13130
H         -5.52420        4.11690       -1.46640
H         -7.01220        0.43990       -3.29710
H         -4.36920       -2.86980       -7.95330
H         -2.99860       -3.96910       -9.66770
H         -0.60940       -1.06370      -12.71920
H          0.37360       -2.52880      -12.89580
H          1.31940       -1.09610      -11.08590
H          0.70250       -2.60530      -10.41070
H         -0.22970       -1.11490      -10.24060
H         -4.00880        0.82520      -10.09130
H         -2.42210        0.95190       -8.00940
H         -2.04830        3.36010       -4.00310
H          0.41030        1.88810       -0.74430
H         -0.89040        2.57070        1.19690
H         -2.42630        4.53220        3.93730
H         -1.82340        3.13460        3.03750
H          0.26140        4.45820        2.45950
H          0.05450        4.33850        4.20760
H         -0.38240        5.82800        3.36670
H         -0.94950        5.34330       -2.87790
H          4.51820        3.51280       -6.10010
H          5.94240        3.02080       -8.00260
H          7.11420        2.27220      -11.42740
H          6.40320        3.22790      -10.11840
H          8.84550        2.85730       -9.70520
H          7.91930        1.97430       -8.48510
H          8.61620        1.11210       -9.85740
H          1.83880        0.38380       -7.27250
H          4.82530        1.62550       -4.37390
H          6.59140        0.60570       -3.08420
H          8.92390        1.10120       -3.37480
H          9.48700        0.30080       -5.60660
H          9.36450       -1.71350       -8.75790
H          9.55390       -0.31690       -7.68670
H          7.13050       -0.70170       -8.34530
H          7.21580       -2.30730       -7.62170
H          7.35390       -0.87550       -6.59890
H          9.09410       -2.91400       -1.89180
H          6.80040       -1.15930        3.42410
H          5.82480       -0.54210        5.59590
H          5.54700        3.47400        8.40850
H          6.34240        3.87070        6.87680
H          3.33160        4.06130        7.45450
H          4.43690        5.43140        7.31050
H          4.07070        4.43760        5.89940
H          6.99490        2.99090        2.39120
H          9.35720       -0.59410        3.38940
H         11.33070       -2.01580        2.44730
