
  xtb     03012211513D
 energy: -452.164044904825 gnorm: 0.000949029760 xtb: 6.4.1 (unknown)
230257  0     0  0            999 V2000
    7.6533   -1.3656   -8.8195 C   0  0  0  0  0  0  0  0  0  0  0  0
    8.2486   -1.5234   -7.6205 C   0  0  0  0  0  0  0  0  0  0  0  0
    7.5461   -0.8750   -6.5624 C   0  0  0  0  0  0  0  0  0  0  0  0
    7.8660   -0.8393   -5.1953 C   0  0  0  0  0  0  0  0  0  0  0  0
    9.0382   -1.5123   -4.6578 C   0  0  0  0  0  0  0  0  0  0  0  0
   10.1961   -0.6368   -3.6980 S   0  0  0  0  0  0  0  0  0  0  0  0
   11.1832   -2.0382   -3.4676 C   0  0  0  0  0  0  0  0  0  0  0  0
   12.4640   -1.9669   -2.7122 C   0  0  0  0  0  0  0  0  0  0  0  0
   13.6223   -1.5766   -3.6333 C   0  0  0  0  0  0  0  0  0  0  0  0
   10.6388   -3.1111   -4.1074 C   0  0  0  0  0  0  0  0  0  0  0  0
   11.3337   -4.6807   -4.1042 Cl  0  0  0  0  0  0  0  0  0  0  0  0
    9.4222   -2.8181   -4.7804 C   0  0  0  0  0  0  0  0  0  0  0  0
    8.5062   -4.0206   -5.5859 Cl  0  0  0  0  0  0  0  0  0  0  0  0
    7.0247   -0.1019   -4.3715 C   0  0  0  0  0  0  0  0  0  0  0  0
    5.9020    0.6086   -4.8588 C   0  0  0  0  0  0  0  0  0  0  0  0
    5.5691    0.5593   -6.2243 C   0  0  0  0  0  0  0  0  0  0  0  0
    4.4450    1.3320   -6.7231 C   0  0  0  0  0  0  0  0  0  0  0  0
    4.6725    2.4721   -8.0189 S   0  0  0  0  0  0  0  0  0  0  0  0
    3.0715    3.1018   -7.8545 C   0  0  0  0  0  0  0  0  0  0  0  0
    2.5797    4.2231   -8.7007 C   0  0  0  0  0  0  0  0  0  0  0  0
    2.7761    5.5691   -7.9991 C   0  0  0  0  0  0  0  0  0  0  0  0
    2.4108    2.4551   -6.8536 C   0  0  0  0  0  0  0  0  0  0  0  0
    3.1735    1.4348   -6.2261 C   0  0  0  0  0  0  0  0  0  0  0  0
    2.4950    0.3811   -5.0464 Cl  0  0  0  0  0  0  0  0  0  0  0  0
    0.8130    2.8454   -6.3705 Cl  0  0  0  0  0  0  0  0  0  0  0  0
    6.4054   -0.1868   -7.0436 C   0  0  0  0  0  0  0  0  0  0  0  0
    6.2129   -0.4074   -8.7591 S   0  0  0  0  0  0  0  0  0  0  0  0
    5.2434    1.3195   -3.8288 C   0  0  0  0  0  0  0  0  0  0  0  0
    5.7785    1.1112   -2.5913 C   0  0  0  0  0  0  0  0  0  0  0  0
    7.1834    0.0713   -2.6448 S   0  0  0  0  0  0  0  0  0  0  0  0
    5.2368    1.6011   -1.3639 C   0  0  0  0  0  0  0  0  0  0  0  0
    3.9987    2.1571   -1.2167 C   0  0  0  0  0  0  0  0  0  0  0  0
    3.6797    2.4871    0.1195 C   0  0  0  0  0  0  0  0  0  0  0  0
    2.4855    3.0543    0.6017 C   0  0  0  0  0  0  0  0  0  0  0  0
    1.4084    3.3998   -0.3138 C   0  0  0  0  0  0  0  0  0  0  0  0
    1.7058    4.3946   -1.7121 S   0  0  0  0  0  0  0  0  0  0  0  0
    0.0699    4.2670   -2.2586 C   0  0  0  0  0  0  0  0  0  0  0  0
   -0.3936    4.9629   -3.4895 C   0  0  0  0  0  0  0  0  0  0  0  0
   -0.9994    6.3279   -3.1557 C   0  0  0  0  0  0  0  0  0  0  0  0
   -0.6570    3.5114   -1.3887 C   0  0  0  0  0  0  0  0  0  0  0  0
   -2.3221    3.1635   -1.5936 Cl  0  0  0  0  0  0  0  0  0  0  0  0
    0.0960    3.0128   -0.2908 C   0  0  0  0  0  0  0  0  0  0  0  0
   -0.5918    1.9517    0.8684 Cl  0  0  0  0  0  0  0  0  0  0  0  0
    2.3836    3.2147    1.9760 C   0  0  0  0  0  0  0  0  0  0  0  0
    3.4011    2.8089    2.8778 C   0  0  0  0  0  0  0  0  0  0  0  0
    4.6038    2.2686    2.3907 C   0  0  0  0  0  0  0  0  0  0  0  0
    5.6718    1.8800    3.2973 C   0  0  0  0  0  0  0  0  0  0  0  0
    6.3197    3.0160    4.4450 S   0  0  0  0  0  0  0  0  0  0  0  0
    7.4654    1.8703    5.0524 C   0  0  0  0  0  0  0  0  0  0  0  0
    8.4501    2.2443    6.1045 C   0  0  0  0  0  0  0  0  0  0  0  0
    9.6858    2.9030    5.4868 C   0  0  0  0  0  0  0  0  0  0  0  0
    7.3422    0.6844    4.3927 C   0  0  0  0  0  0  0  0  0  0  0  0
    6.3244    0.6832    3.4006 C   0  0  0  0  0  0  0  0  0  0  0  0
    5.9199   -0.7205    2.5050 Cl  0  0  0  0  0  0  0  0  0  0  0  0
    8.3076   -0.6953    4.7197 Cl  0  0  0  0  0  0  0  0  0  0  0  0
    4.7166    2.1222    1.0138 C   0  0  0  0  0  0  0  0  0  0  0  0
    6.0822    1.4620    0.1586 S   0  0  0  0  0  0  0  0  0  0  0  0
    2.9857    2.9244    4.2279 C   0  0  0  0  0  0  0  0  0  0  0  0
    1.7268    3.4290    4.3682 C   0  0  0  0  0  0  0  0  0  0  0  0
    1.0120    3.8623    2.8253 S   0  0  0  0  0  0  0  0  0  0  0  0
    0.8792    3.3962    5.5146 C   0  0  0  0  0  0  0  0  0  0  0  0
   -0.4143    3.8272    5.5729 C   0  0  0  0  0  0  0  0  0  0  0  0
   -1.1383    3.3063    6.6701 C   0  0  0  0  0  0  0  0  0  0  0  0
   -2.5243    3.3919    6.9023 C   0  0  0  0  0  0  0  0  0  0  0  0
   -3.4206    4.0375    5.9587 C   0  0  0  0  0  0  0  0  0  0  0  0
   -3.2920    3.6792    4.2586 S   0  0  0  0  0  0  0  0  0  0  0  0
   -4.7261    4.5668    3.8778 C   0  0  0  0  0  0  0  0  0  0  0  0
   -5.2291    4.6525    2.4782 C   0  0  0  0  0  0  0  0  0  0  0  0
   -4.0955    4.7399    1.4616 C   0  0  0  0  0  0  0  0  0  0  0  0
   -5.2613    5.1043    5.0107 C   0  0  0  0  0  0  0  0  0  0  0  0
   -6.6873    6.0584    5.0353 Cl  0  0  0  0  0  0  0  0  0  0  0  0
   -4.5323    4.7987    6.1913 C   0  0  0  0  0  0  0  0  0  0  0  0
   -4.9763    5.4042    7.7313 Cl  0  0  0  0  0  0  0  0  0  0  0  0
   -3.0370    2.6057    7.9259 C   0  0  0  0  0  0  0  0  0  0  0  0
   -2.2424    1.7045    8.6773 C   0  0  0  0  0  0  0  0  0  0  0  0
   -0.8536    1.6502    8.4704 C   0  0  0  0  0  0  0  0  0  0  0  0
   -0.0682    0.6043    9.1125 C   0  0  0  0  0  0  0  0  0  0  0  0
    0.0722    0.4833   10.8391 S   0  0  0  0  0  0  0  0  0  0  0  0
    0.9786   -0.9880   10.7389 C   0  0  0  0  0  0  0  0  0  0  0  0
    1.3978   -1.7291   11.9601 C   0  0  0  0  0  0  0  0  0  0  0  0
    0.3469   -2.7760   12.3393 C   0  0  0  0  0  0  0  0  0  0  0  0
    1.1440   -1.3554    9.4371 C   0  0  0  0  0  0  0  0  0  0  0  0
    0.5529   -0.4547    8.5111 C   0  0  0  0  0  0  0  0  0  0  0  0
    0.5539   -0.7390    6.8204 Cl  0  0  0  0  0  0  0  0  0  0  0  0
    1.9740   -2.7723    8.9425 Cl  0  0  0  0  0  0  0  0  0  0  0  0
   -0.3302    2.4690    7.4804 C   0  0  0  0  0  0  0  0  0  0  0  0
    1.3168    2.4332    6.9126 S   0  0  0  0  0  0  0  0  0  0  0  0
   -3.0266    0.6997    9.3001 C   0  0  0  0  0  0  0  0  0  0  0  0
   -4.3563    0.7868    9.0005 C   0  0  0  0  0  0  0  0  0  0  0  0
   -4.7334    2.2875    8.1588 S   0  0  0  0  0  0  0  0  0  0  0  0
   -5.2380   -0.3186    8.8034 C   0  0  0  0  0  0  0  0  0  0  0  0
   -6.3046   -0.3004    7.9482 C   0  0  0  0  0  0  0  0  0  0  0  0
   -6.4786   -1.5169    7.2468 C   0  0  0  0  0  0  0  0  0  0  0  0
   -7.2046   -1.6953    6.0607 C   0  0  0  0  0  0  0  0  0  0  0  0
   -8.0055   -0.6073    5.5056 C   0  0  0  0  0  0  0  0  0  0  0  0
   -9.7228   -0.7151    5.2937 S   0  0  0  0  0  0  0  0  0  0  0  0
   -9.8151    0.8777    4.6167 C   0  0  0  0  0  0  0  0  0  0  0  0
  -11.1106    1.4348    4.1397 C   0  0  0  0  0  0  0  0  0  0  0  0
  -11.5011    0.8305    2.7887 C   0  0  0  0  0  0  0  0  0  0  0  0
   -8.5751    1.4384    4.5540 C   0  0  0  0  0  0  0  0  0  0  0  0
   -8.2527    3.0123    3.9507 Cl  0  0  0  0  0  0  0  0  0  0  0  0
   -7.5456    0.5983    5.0581 C   0  0  0  0  0  0  0  0  0  0  0  0
   -5.8872    1.0518    5.0421 Cl  0  0  0  0  0  0  0  0  0  0  0  0
   -6.9365   -2.8374    5.3247 C   0  0  0  0  0  0  0  0  0  0  0  0
   -5.9898   -3.8137    5.7211 C   0  0  0  0  0  0  0  0  0  0  0  0
   -5.3151   -3.6686    6.9479 C   0  0  0  0  0  0  0  0  0  0  0  0
   -4.2642   -4.5958    7.3505 C   0  0  0  0  0  0  0  0  0  0  0  0
   -4.6126   -6.2632    7.6944 S   0  0  0  0  0  0  0  0  0  0  0  0
   -2.9639   -6.6049    8.1013 C   0  0  0  0  0  0  0  0  0  0  0  0
   -2.5485   -7.9516    8.5815 C   0  0  0  0  0  0  0  0  0  0  0  0
   -2.7702   -8.0858   10.0898 C   0  0  0  0  0  0  0  0  0  0  0  0
   -2.2036   -5.4819    7.9726 C   0  0  0  0  0  0  0  0  0  0  0  0
   -2.9338   -4.3432    7.5347 C   0  0  0  0  0  0  0  0  0  0  0  0
   -2.1674   -2.8448    7.1974 Cl  0  0  0  0  0  0  0  0  0  0  0  0
   -0.5201   -5.4167    8.2984 Cl  0  0  0  0  0  0  0  0  0  0  0  0
   -5.5651   -2.5145    7.6732 C   0  0  0  0  0  0  0  0  0  0  0  0
   -4.6199   -1.9532    9.0293 S   0  0  0  0  0  0  0  0  0  0  0  0
   -5.6439   -4.6760    4.6492 C   0  0  0  0  0  0  0  0  0  0  0  0
   -6.2551   -4.3587    3.4695 C   0  0  0  0  0  0  0  0  0  0  0  0
   -7.4388   -3.0739    3.6782 S   0  0  0  0  0  0  0  0  0  0  0  0
   -5.8513   -4.6904    2.1355 C   0  0  0  0  0  0  0  0  0  0  0  0
   -4.7477   -5.4381    1.7493 C   0  0  0  0  0  0  0  0  0  0  0  0
   -4.4671   -5.1531    0.3781 C   0  0  0  0  0  0  0  0  0  0  0  0
   -3.3786   -5.4519   -0.4064 C   0  0  0  0  0  0  0  0  0  0  0  0
   -3.2615   -4.7848   -1.6410 C   0  0  0  0  0  0  0  0  0  0  0  0
   -2.2157   -4.7163   -2.5519 C   0  0  0  0  0  0  0  0  0  0  0  0
   -2.5362   -3.7466   -3.5513 C   0  0  0  0  0  0  0  0  0  0  0  0
   -3.8072   -3.2599   -3.2919 C   0  0  0  0  0  0  0  0  0  0  0  0
   -4.2883   -3.8705   -2.0954 C   0  0  0  0  0  0  0  0  0  0  0  0
   -5.4130   -3.6291   -1.3475 C   0  0  0  0  0  0  0  0  0  0  0  0
   -5.4917   -4.2395   -0.0820 C   0  0  0  0  0  0  0  0  0  0  0  0
   -6.3408   -3.9954    0.9850 C   0  0  0  0  0  0  0  0  0  0  0  0
   -1.6336   -3.2757   -4.5603 C   0  0  0  0  0  0  0  0  0  0  0  0
   -1.7290   -2.1221   -5.2803 C   0  0  0  0  0  0  0  0  0  0  0  0
   -0.6166   -1.8806   -6.1247 C   0  0  0  0  0  0  0  0  0  0  0  0
   -0.3838   -0.7794   -6.9660 C   0  0  0  0  0  0  0  0  0  0  0  0
   -1.2870    0.3575   -6.9679 C   0  0  0  0  0  0  0  0  0  0  0  0
   -1.9374    1.0045   -8.4442 S   0  0  0  0  0  0  0  0  0  0  0  0
   -2.8138    2.2401   -7.6082 C   0  0  0  0  0  0  0  0  0  0  0  0
   -3.6954    3.1916   -8.3389 C   0  0  0  0  0  0  0  0  0  0  0  0
   -5.0887    2.5949   -8.5518 C   0  0  0  0  0  0  0  0  0  0  0  0
   -2.6072    2.1401   -6.2651 C   0  0  0  0  0  0  0  0  0  0  0  0
   -3.3234    3.1894   -5.1105 Cl  0  0  0  0  0  0  0  0  0  0  0  0
   -1.7370    1.0800   -5.8957 C   0  0  0  0  0  0  0  0  0  0  0  0
   -1.2326    0.8324   -4.2714 Cl  0  0  0  0  0  0  0  0  0  0  0  0
    0.7536   -0.8248   -7.7645 C   0  0  0  0  0  0  0  0  0  0  0  0
    1.6943   -1.8795   -7.7063 C   0  0  0  0  0  0  0  0  0  0  0  0
    1.4833   -2.9573   -6.8322 C   0  0  0  0  0  0  0  0  0  0  0  0
    2.4052   -4.0807   -6.7737 C   0  0  0  0  0  0  0  0  0  0  0  0
    1.8313   -5.6957   -7.0697 S   0  0  0  0  0  0  0  0  0  0  0  0
    3.4096   -6.3747   -6.8767 C   0  0  0  0  0  0  0  0  0  0  0  0
    3.6528   -7.8310   -7.0678 C   0  0  0  0  0  0  0  0  0  0  0  0
    3.8721   -8.1594   -8.5465 C   0  0  0  0  0  0  0  0  0  0  0  0
    4.3162   -5.3946   -6.6047 C   0  0  0  0  0  0  0  0  0  0  0  0
    3.7507   -4.0920   -6.5393 C   0  0  0  0  0  0  0  0  0  0  0  0
    4.6698   -2.6972   -6.1295 Cl  0  0  0  0  0  0  0  0  0  0  0  0
    5.9865   -5.6923   -6.3602 Cl  0  0  0  0  0  0  0  0  0  0  0  0
    0.3242   -2.9362   -6.0692 C   0  0  0  0  0  0  0  0  0  0  0  0
   -0.1569   -4.1509   -4.9197 S   0  0  0  0  0  0  0  0  0  0  0  0
    2.7686   -1.6787   -8.6221 C   0  0  0  0  0  0  0  0  0  0  0  0
    2.6505   -0.5359   -9.3264 C   0  0  0  0  0  0  0  0  0  0  0  0
    1.2252    0.3673   -8.9441 S   0  0  0  0  0  0  0  0  0  0  0  0
    7.9697   -1.7536   -9.7679 H   0  0  0  0  0  0  0  0  0  0  0  0
    9.1590   -2.0747   -7.4770 H   0  0  0  0  0  0  0  0  0  0  0  0
   12.6643   -2.9441   -2.2686 H   0  0  0  0  0  0  0  0  0  0  0  0
   12.3703   -1.2308   -1.9122 H   0  0  0  0  0  0  0  0  0  0  0  0
   13.4359   -0.6037   -4.0818 H   0  0  0  0  0  0  0  0  0  0  0  0
   13.7354   -2.3103   -4.4275 H   0  0  0  0  0  0  0  0  0  0  0  0
   14.5490   -1.5295   -3.0680 H   0  0  0  0  0  0  0  0  0  0  0  0
    1.5176    4.0680   -8.9027 H   0  0  0  0  0  0  0  0  0  0  0  0
    3.1204    4.2216   -9.6478 H   0  0  0  0  0  0  0  0  0  0  0  0
    2.2327    5.5853   -7.0580 H   0  0  0  0  0  0  0  0  0  0  0  0
    3.8305    5.7386   -7.7950 H   0  0  0  0  0  0  0  0  0  0  0  0
    2.4080    6.3749   -8.6282 H   0  0  0  0  0  0  0  0  0  0  0  0
    4.4120    1.9753   -3.9993 H   0  0  0  0  0  0  0  0  0  0  0  0
    3.3189    2.2917   -2.0360 H   0  0  0  0  0  0  0  0  0  0  0  0
    0.4492    5.0902   -4.1710 H   0  0  0  0  0  0  0  0  0  0  0  0
   -1.1463    4.3425   -3.9798 H   0  0  0  0  0  0  0  0  0  0  0  0
   -1.3378    6.8166   -4.0654 H   0  0  0  0  0  0  0  0  0  0  0  0
   -1.8489    6.2082   -2.4876 H   0  0  0  0  0  0  0  0  0  0  0  0
   -0.2611    6.9627   -2.6704 H   0  0  0  0  0  0  0  0  0  0  0  0
    7.9836    2.9350    6.8090 H   0  0  0  0  0  0  0  0  0  0  0  0
    8.7471    1.3417    6.6419 H   0  0  0  0  0  0  0  0  0  0  0  0
    9.4035    3.8055    4.9499 H   0  0  0  0  0  0  0  0  0  0  0  0
   10.3965    3.1669    6.2653 H   0  0  0  0  0  0  0  0  0  0  0  0
   10.1676    2.2209    4.7909 H   0  0  0  0  0  0  0  0  0  0  0  0
    3.5725    2.5914    5.0650 H   0  0  0  0  0  0  0  0  0  0  0  0
   -0.8433    4.4518    4.8107 H   0  0  0  0  0  0  0  0  0  0  0  0
   -5.8352    3.7658    2.2652 H   0  0  0  0  0  0  0  0  0  0  0  0
   -5.8819    5.5248    2.4000 H   0  0  0  0  0  0  0  0  0  0  0  0
   -3.4834    5.6197    1.6460 H   0  0  0  0  0  0  0  0  0  0  0  0
   -4.4988    4.8012    0.4541 H   0  0  0  0  0  0  0  0  0  0  0  0
   -3.4597    3.8595    1.5257 H   0  0  0  0  0  0  0  0  0  0  0  0
    1.5315   -1.0271   12.7844 H   0  0  0  0  0  0  0  0  0  0  0  0
    2.3502   -2.2253   11.7623 H   0  0  0  0  0  0  0  0  0  0  0  0
    0.2071   -3.4797   11.5226 H   0  0  0  0  0  0  0  0  0  0  0  0
   -0.6057   -2.2959   12.5506 H   0  0  0  0  0  0  0  0  0  0  0  0
    0.6656   -3.3241   13.2217 H   0  0  0  0  0  0  0  0  0  0  0  0
   -2.6008   -0.1481    9.8070 H   0  0  0  0  0  0  0  0  0  0  0  0
   -6.8406    0.6005    7.7106 H   0  0  0  0  0  0  0  0  0  0  0  0
  -11.8920    1.2196    4.8717 H   0  0  0  0  0  0  0  0  0  0  0  0
  -11.0096    2.5173    4.0439 H   0  0  0  0  0  0  0  0  0  0  0  0
  -11.6043   -0.2484    2.8754 H   0  0  0  0  0  0  0  0  0  0  0  0
  -10.7391    1.0487    2.0443 H   0  0  0  0  0  0  0  0  0  0  0  0
  -12.4471    1.2467    2.4525 H   0  0  0  0  0  0  0  0  0  0  0  0
   -3.1250   -8.7174    8.0597 H   0  0  0  0  0  0  0  0  0  0  0  0
   -1.4901   -8.0923    8.3542 H   0  0  0  0  0  0  0  0  0  0  0  0
   -2.1894   -7.3375   10.6230 H   0  0  0  0  0  0  0  0  0  0  0  0
   -3.8215   -7.9464   10.3303 H   0  0  0  0  0  0  0  0  0  0  0  0
   -2.4621   -9.0719   10.4264 H   0  0  0  0  0  0  0  0  0  0  0  0
   -4.8907   -5.4380    4.7355 H   0  0  0  0  0  0  0  0  0  0  0  0
   -4.1528   -6.0703    2.3815 H   0  0  0  0  0  0  0  0  0  0  0  0
   -2.5963   -6.1155   -0.0659 H   0  0  0  0  0  0  0  0  0  0  0  0
   -1.2890   -5.2606   -2.5093 H   0  0  0  0  0  0  0  0  0  0  0  0
   -4.3401   -2.5261   -3.8668 H   0  0  0  0  0  0  0  0  0  0  0  0
   -6.1771   -2.9369   -1.6717 H   0  0  0  0  0  0  0  0  0  0  0  0
   -7.1952   -3.3424    0.9857 H   0  0  0  0  0  0  0  0  0  0  0  0
   -2.5679   -1.4558   -5.2060 H   0  0  0  0  0  0  0  0  0  0  0  0
   -3.2492    3.4262   -9.3067 H   0  0  0  0  0  0  0  0  0  0  0  0
   -3.7766    4.1118   -7.7570 H   0  0  0  0  0  0  0  0  0  0  0  0
   -5.5525    2.3696   -7.5947 H   0  0  0  0  0  0  0  0  0  0  0  0
   -5.7194    3.2997   -9.0868 H   0  0  0  0  0  0  0  0  0  0  0  0
   -5.0206    1.6768   -9.1305 H   0  0  0  0  0  0  0  0  0  0  0  0
    2.7951   -8.3929   -6.6941 H   0  0  0  0  0  0  0  0  0  0  0  0
    4.5367   -8.1171   -6.4947 H   0  0  0  0  0  0  0  0  0  0  0  0
    4.0495   -9.2242   -8.6705 H   0  0  0  0  0  0  0  0  0  0  0  0
    2.9968   -7.8800   -9.1282 H   0  0  0  0  0  0  0  0  0  0  0  0
    4.7324   -7.6157   -8.9290 H   0  0  0  0  0  0  0  0  0  0  0  0
    3.5827   -2.3688   -8.7419 H   0  0  0  0  0  0  0  0  0  0  0  0
    3.3185   -0.1484  -10.0703 H   0  0  0  0  0  0  0  0  0  0  0  0
  1  2  2  0  0  0  0
  2  3  1  0  0  0  0
  3  4  2  0  0  0  0
  4  5  1  0  0  0  0
  5  6  1  0  0  0  0
  6  7  1  0  0  0  0
  7  8  1  0  0  0  0
  8  9  1  0  0  0  0
  7 10  2  0  0  0  0
 10 11  1  0  0  0  0
 10 12  1  0  0  0  0
 12 13  1  0  0  0  0
  4 14  1  0  0  0  0
 14 15  2  0  0  0  0
 15 16  1  0  0  0  0
 16 17  1  0  0  0  0
 17 18  1  0  0  0  0
 18 19  1  0  0  0  0
 19 20  1  0  0  0  0
 20 21  1  0  0  0  0
 19 22  2  0  0  0  0
 22 23  1  0  0  0  0
 23 24  1  0  0  0  0
 22 25  1  0  0  0  0
 16 26  2  0  0  0  0
 26 27  1  0  0  0  0
 15 28  1  0  0  0  0
 28 29  2  0  0  0  0
 29 30  1  0  0  0  0
 29 31  1  0  0  0  0
 31 32  2  0  0  0  0
 32 33  1  0  0  0  0
 33 34  2  0  0  0  0
 34 35  1  0  0  0  0
 35 36  1  0  0  0  0
 36 37  1  0  0  0  0
 37 38  1  0  0  0  0
 38 39  1  0  0  0  0
 37 40  2  0  0  0  0
 40 41  1  0  0  0  0
 40 42  1  0  0  0  0
 42 43  1  0  0  0  0
 34 44  1  0  0  0  0
 44 45  2  0  0  0  0
 45 46  1  0  0  0  0
 46 47  1  0  0  0  0
 47 48  1  0  0  0  0
 48 49  1  0  0  0  0
 49 50  1  0  0  0  0
 50 51  1  0  0  0  0
 49 52  2  0  0  0  0
 52 53  1  0  0  0  0
 53 54  1  0  0  0  0
 52 55  1  0  0  0  0
 46 56  2  0  0  0  0
 56 57  1  0  0  0  0
 45 58  1  0  0  0  0
 58 59  2  0  0  0  0
 59 60  1  0  0  0  0
 59 61  1  0  0  0  0
 61 62  2  0  0  0  0
 62 63  1  0  0  0  0
 63 64  2  0  0  0  0
 64 65  1  0  0  0  0
 65 66  1  0  0  0  0
 66 67  1  0  0  0  0
 67 68  1  0  0  0  0
 68 69  1  0  0  0  0
 67 70  2  0  0  0  0
 70 71  1  0  0  0  0
 70 72  1  0  0  0  0
 72 73  1  0  0  0  0
 64 74  1  0  0  0  0
 74 75  2  0  0  0  0
 75 76  1  0  0  0  0
 76 77  1  0  0  0  0
 77 78  1  0  0  0  0
 78 79  1  0  0  0  0
 79 80  1  0  0  0  0
 80 81  1  0  0  0  0
 79 82  2  0  0  0  0
 82 83  1  0  0  0  0
 83 84  1  0  0  0  0
 82 85  1  0  0  0  0
 76 86  2  0  0  0  0
 86 87  1  0  0  0  0
 75 88  1  0  0  0  0
 88 89  2  0  0  0  0
 89 90  1  0  0  0  0
 89 91  1  0  0  0  0
 91 92  2  0  0  0  0
 92 93  1  0  0  0  0
 93 94  2  0  0  0  0
 94 95  1  0  0  0  0
 95 96  1  0  0  0  0
 96 97  1  0  0  0  0
 97 98  1  0  0  0  0
 98 99  1  0  0  0  0
 97100  2  0  0  0  0
100101  1  0  0  0  0
100102  1  0  0  0  0
102103  1  0  0  0  0
 94104  1  0  0  0  0
104105  2  0  0  0  0
105106  1  0  0  0  0
106107  1  0  0  0  0
107108  1  0  0  0  0
108109  1  0  0  0  0
109110  1  0  0  0  0
110111  1  0  0  0  0
109112  2  0  0  0  0
112113  1  0  0  0  0
113114  1  0  0  0  0
112115  1  0  0  0  0
106116  2  0  0  0  0
116117  1  0  0  0  0
105118  1  0  0  0  0
118119  2  0  0  0  0
119120  1  0  0  0  0
119121  1  0  0  0  0
121122  2  0  0  0  0
122123  1  0  0  0  0
123124  2  0  0  0  0
124125  1  0  0  0  0
125126  2  0  0  0  0
126127  1  0  0  0  0
127128  2  0  0  0  0
128129  1  0  0  0  0
129130  2  0  0  0  0
130131  1  0  0  0  0
131132  2  0  0  0  0
127133  1  0  0  0  0
133134  2  0  0  0  0
134135  1  0  0  0  0
135136  2  0  0  0  0
136137  1  0  0  0  0
137138  1  0  0  0  0
138139  1  0  0  0  0
139140  1  0  0  0  0
140141  1  0  0  0  0
139142  2  0  0  0  0
142143  1  0  0  0  0
142144  1  0  0  0  0
144145  1  0  0  0  0
136146  1  0  0  0  0
146147  2  0  0  0  0
147148  1  0  0  0  0
148149  1  0  0  0  0
149150  1  0  0  0  0
150151  1  0  0  0  0
151152  1  0  0  0  0
152153  1  0  0  0  0
151154  2  0  0  0  0
154155  1  0  0  0  0
155156  1  0  0  0  0
154157  1  0  0  0  0
148158  2  0  0  0  0
158159  1  0  0  0  0
147160  1  0  0  0  0
160161  2  0  0  0  0
161162  1  0  0  0  0
 27  1  1  0  0  0  0
 57 31  1  0  0  0  0
 87 61  1  0  0  0  0
117 91  1  0  0  0  0
132121  1  0  0  0  0
159133  1  0  0  0  0
 26  3  1  0  0  0  0
 56 33  1  0  0  0  0
 86 63  1  0  0  0  0
116 93  1  0  0  0  0
131123  1  0  0  0  0
158135  1  0  0  0  0
 12  5  2  0  0  0  0
 30 14  1  0  0  0  0
 42 35  2  0  0  0  0
 60 44  1  0  0  0  0
 72 65  2  0  0  0  0
 90 74  1  0  0  0  0
102 95  2  0  0  0  0
120104  1  0  0  0  0
129125  1  0  0  0  0
144137  2  0  0  0  0
162146  1  0  0  0  0
 23 17  2  0  0  0  0
 53 47  2  0  0  0  0
 83 77  2  0  0  0  0
113107  2  0  0  0  0
155149  2  0  0  0  0
  1163  1  0  0  0  0
  2164  1  0  0  0  0
  8165  1  0  0  0  0
  8166  1  0  0  0  0
  9167  1  0  0  0  0
  9168  1  0  0  0  0
  9169  1  0  0  0  0
 20170  1  0  0  0  0
 20171  1  0  0  0  0
 21172  1  0  0  0  0
 21173  1  0  0  0  0
 21174  1  0  0  0  0
 28175  1  0  0  0  0
 32176  1  0  0  0  0
 38177  1  0  0  0  0
 38178  1  0  0  0  0
 39179  1  0  0  0  0
 39180  1  0  0  0  0
 39181  1  0  0  0  0
 50182  1  0  0  0  0
 50183  1  0  0  0  0
 51184  1  0  0  0  0
 51185  1  0  0  0  0
 51186  1  0  0  0  0
 58187  1  0  0  0  0
 62188  1  0  0  0  0
 68189  1  0  0  0  0
 68190  1  0  0  0  0
 69191  1  0  0  0  0
 69192  1  0  0  0  0
 69193  1  0  0  0  0
 80194  1  0  0  0  0
 80195  1  0  0  0  0
 81196  1  0  0  0  0
 81197  1  0  0  0  0
 81198  1  0  0  0  0
 88199  1  0  0  0  0
 92200  1  0  0  0  0
 98201  1  0  0  0  0
 98202  1  0  0  0  0
 99203  1  0  0  0  0
 99204  1  0  0  0  0
 99205  1  0  0  0  0
110206  1  0  0  0  0
110207  1  0  0  0  0
111208  1  0  0  0  0
111209  1  0  0  0  0
111210  1  0  0  0  0
118211  1  0  0  0  0
122212  1  0  0  0  0
124213  1  0  0  0  0
126214  1  0  0  0  0
128215  1  0  0  0  0
130216  1  0  0  0  0
132217  1  0  0  0  0
134218  1  0  0  0  0
140219  1  0  0  0  0
140220  1  0  0  0  0
141221  1  0  0  0  0
141222  1  0  0  0  0
141223  1  0  0  0  0
152224  1  0  0  0  0
152225  1  0  0  0  0
153226  1  0  0  0  0
153227  1  0  0  0  0
153228  1  0  0  0  0
160229  1  0  0  0  0
161230  1  0  0  0  0
M  END
