206

C          4.42890       -5.60890       -1.44110
C          3.14960       -5.20870       -1.30640
C          2.86870       -4.66150       -0.01800
C          1.64790       -4.17090        0.46890
C          0.49970       -3.92900       -0.41230
C          0.69620       -3.25010       -1.61580
C         -0.37850       -2.86560       -2.38780
C         -1.67860       -3.14990       -1.99630
S         -3.05300       -2.51220       -2.92490
C         -2.83610       -3.41240       -4.50720
C         -3.20130       -4.87560       -4.36050
C         -1.86640       -3.86190       -0.81830
F         -3.10890       -4.18160       -0.41660
C         -0.79920       -4.25420       -0.03260
C          1.61660       -3.80220        1.80840
C          2.77010       -3.77260        2.63140
C          4.00810       -4.18810        2.11650
C          5.24370       -4.05530        2.89640
C          5.56320       -2.83800        3.49830
C          6.73350       -2.69150        4.21040
C          7.63900       -3.74280        4.33920
S          9.14990       -3.40980        5.20120
C          9.42910       -4.91400        6.20480
C          8.26560       -5.19940        7.13250
C          7.31730       -4.94530        3.71840
C          6.13810       -5.11270        3.02020
F          8.15890       -6.00010        3.77860
C          4.00970       -4.68030        0.81750
S          5.39240       -5.33160       -0.02900
C          2.47730       -3.29950        3.94040
C          1.16720       -2.98440        4.12910
S          0.21530       -3.24510        2.67830
C          0.50400       -2.43360        5.27680
C         -0.85070       -2.50950        5.53160
C         -1.14520       -1.68270        6.65750
C         -2.34050       -1.32250        7.22190
C         -2.32040       -0.28420        8.17260
C         -3.35410        0.46400        8.70530
C         -2.80460        1.58960        9.40570
C         -1.42570        1.46960        9.38520
C         -1.07560        0.32720        8.59480
C          0.12750       -0.10140        8.09740
C          0.10660       -1.09710        7.09380
C          1.10380       -1.58800        6.26790
C         -3.59220        2.75880        9.68950
C         -4.96560        2.86160        9.60280
C         -5.30370        4.23620        9.38410
C         -6.44560        4.78970        8.87720
C         -6.33970        6.08110        8.30610
C         -7.12020        6.68930        7.34990
C         -6.40100        7.81720        6.80590
C         -5.24370        7.97600        7.54480
C         -5.12200        6.86350        8.43840
C         -4.01560        6.35120        9.05770
C         -4.06420        4.99250        9.45430
C         -3.04530        4.09400        9.68100
C         -6.62390        8.30350        5.47320
C         -7.52860        7.78230        4.56510
C         -7.03850        8.02990        3.24360
C         -7.33740        7.40870        2.06240
C         -6.39220        7.51710        1.01410
C         -6.19760        6.73050       -0.09980
C         -4.92570        7.06280       -0.68750
C         -4.39220        8.12760        0.01200
C         -5.24660        8.40250        1.12760
C         -5.00180        9.10230        2.27810
C         -5.84830        8.85070        3.38210
C         -5.63130        9.03920        4.73110
C         -4.22470        6.20820       -1.59810
C         -2.94300        6.33210       -2.05060
C         -2.41140        5.13850       -2.59970
C         -1.10000        4.90110       -3.03890
C         -0.06260        5.94060       -3.03470
C          0.23130        6.67070       -1.88480
C          1.24960        7.60020       -1.88670
C          2.00210        7.84900       -3.03220
S          3.27070        9.07900       -2.93170
C          4.67080        8.32140       -3.83780
C          5.06400        6.97870       -3.25610
C          1.67450        7.13750       -4.18210
F          2.32750        7.36110       -5.34290
C          0.67680        6.18430       -4.18710
C         -0.79660        3.60320       -3.41870
C         -1.73730        2.54490       -3.41540
C         -3.06380        2.78940       -3.01630
C         -4.06570        1.71660       -2.99070
C         -4.86860        1.50960       -1.86980
C         -5.82000        0.51400       -1.85920
C         -6.01410       -0.31990       -2.95830
S         -7.32330       -1.50060       -2.84250
C         -6.66020       -3.01070       -3.64700
C         -7.27730       -3.27760       -5.00510
C         -5.20360       -0.10590       -4.06820
C         -4.24270        0.88440       -4.09150
F         -5.33670       -0.86120       -5.18260
C         -3.35650        4.08000       -2.59740
S         -4.88410        4.61830       -1.95230
C         -1.12620        1.29750       -3.71440
C          0.21770        1.38790       -3.91710
S          0.80550        3.03370       -3.80220
C          1.14710        0.31520       -4.11910
C          0.93930       -0.86880       -4.75650
C          2.05140       -1.75370       -4.68890
C          2.14380       -3.06940       -5.16790
C          1.04230       -3.71430       -5.89170
C          0.57870       -4.97080       -5.50440
C         -0.43690       -5.58950       -6.19970
C         -1.04430       -4.97740       -7.29500
S         -2.39280       -5.83670       -8.05290
C         -2.18250       -5.52870       -9.84370
C         -0.83210       -5.99900      -10.34420
C         -0.58720       -3.71410       -7.65680
F         -1.14390       -3.04410       -8.68920
C          0.44660       -3.09320       -6.98450
C          3.33360       -3.74130       -4.92150
C          4.41540       -3.16690       -4.21590
C          4.30570       -1.87070       -3.69110
C          5.37860       -1.29720       -2.87040
C          5.90170       -2.02090       -1.80270
C          6.92330       -1.51730       -1.02140
C          7.46690       -0.26600       -1.28940
S          8.80180        0.48830       -0.42560
C          9.39410       -0.79390        0.73330
C          8.60120       -0.83070        2.02550
C          6.91570        0.45930       -2.34930
C          5.89280       -0.02870       -3.12990
F          7.41460        1.67970       -2.63060
C          3.12920       -1.18670       -3.96330
S          2.74700        0.42280       -3.41440
C          5.54800       -4.03540       -4.19210
C          5.32780       -5.20230       -4.82970
S          3.73350       -5.34200       -5.49170
H          4.89330       -6.06660       -2.29210
H          2.40710       -5.31750       -2.07610
H          1.69430       -2.97250       -1.92050
H         -0.21460       -2.30290       -3.29230
H         -1.80450       -3.28520       -4.83360
H         -3.50130       -2.90580       -5.20570
H         -3.19160       -5.36030       -5.33430
H         -4.19600       -4.97730       -3.93210
H         -2.49050       -5.38190       -3.70970
H         -0.99540       -4.81230        0.86910
H          4.89330       -1.99860        3.38860
H          6.97680       -1.74870        4.67530
H         10.33190       -4.67440        6.76670
H          9.63610       -5.74960        5.53970
H          8.50370       -6.05130        7.76610
H          8.06080       -4.33850        7.76580
H          7.36600       -5.43410        6.56600
H          5.93150       -6.07520        2.57930
H          3.21380       -3.23510        4.72100
H         -1.57140       -3.06590        4.96120
H         -3.27740       -1.75260        6.89710
H         -4.40320        0.28540        8.55530
H         -0.71780        2.14460        9.82930
H          1.06210        0.35470        8.39290
H          2.14970       -1.34280        6.31160
H         -5.67360        2.05430        9.59940
H         -7.35880        4.22090        8.77130
H         -8.07340        6.34090        6.99670
H         -4.48670        8.72400        7.40360
H         -3.08670        6.90120        9.11400
H         -1.99750        4.32460        9.74640
H         -8.39380        7.18700        4.78730
H         -8.18740        6.74900        1.96170
H         -6.83970        5.94390       -0.45380
H         -3.45080        8.60950       -0.17300
H         -4.12340        9.72200        2.39310
H         -4.81070        9.57730        5.16920
H         -2.37570        7.24030       -1.96260
H         -0.31660        6.47690       -0.97510
H          1.48950        8.15040       -0.99000
H          4.41180        8.25000       -4.89190
H          5.46980        9.05290       -3.71710
H          5.29330        7.07250       -2.19660
H          4.26130        6.25260       -3.37240
H          5.94450        6.60020       -3.77120
H          0.46740        5.65640       -5.10460
H         -4.72720        2.11540       -0.98870
H         -6.43570        0.35870       -0.98730
H         -6.89320       -3.81480       -2.94820
H         -5.58210       -2.88730       -3.69760
H         -8.35670       -3.37870       -4.91730
H         -7.05960       -2.46760       -5.69540
H         -6.87170       -4.20070       -5.41570
H         -3.66220        1.02160       -4.99110
H         -1.65710        0.36260       -3.70150
H          0.02260       -1.09440       -5.27200
H          1.01520       -5.46140       -4.64820
H         -0.78550       -6.56600       -5.90240
H         -2.34870       -4.47240      -10.04320
H         -2.99180       -6.10630      -10.29050
H         -0.77850       -5.87220      -11.42350
H         -0.02690       -5.42360       -9.89080
H         -0.68090       -7.05020      -10.10710
H          0.78600       -2.12880       -7.32990
H          5.48940       -2.98970       -1.56780
H          7.29130       -2.11580       -0.20380
H          9.39180       -1.75090        0.21380
H         10.42710       -0.50540        0.92810
H          7.56000       -1.08880        1.84510
H          9.02970       -1.56940        2.70040
H          8.63370        0.14160        2.51140
H          5.52530        0.56980       -3.94830
H          6.48370       -3.77110       -3.73400
H          6.00980       -6.01900       -4.96730
