
  xtb     03052203363D
 energy: -407.786006269112 gnorm: 0.000919553206 xtb: 6.4.1 (unknown)
238263  0     0  0            999 V2000
    1.9038   -0.1296   11.5782 C   0  0  0  0  0  0  0  0  0  0  0  0
    1.8847   -0.0750   10.2318 C   0  0  0  0  0  0  0  0  0  0  0  0
    0.9890   -1.0234    9.6532 C   0  0  0  0  0  0  0  0  0  0  0  0
    0.7174   -1.2364    8.2957 C   0  0  0  0  0  0  0  0  0  0  0  0
    1.2487   -0.3403    7.2589 C   0  0  0  0  0  0  0  0  0  0  0  0
    1.9606   -0.8042    6.1598 C   0  0  0  0  0  0  0  0  0  0  0  0
    2.3976    0.0621    5.1744 C   0  0  0  0  0  0  0  0  0  0  0  0
    2.1074    1.4189    5.2431 C   0  0  0  0  0  0  0  0  0  0  0  0
    2.5851    2.6411    4.0682 S   0  0  0  0  0  0  0  0  0  0  0  0
    3.1939    1.6974    2.6400 C   0  0  0  0  0  0  0  0  0  0  0  0
    2.0786    1.0229    1.8675 C   0  0  0  0  0  0  0  0  0  0  0  0
    1.3901    1.8678    6.3522 C   0  0  0  0  0  0  0  0  0  0  0  0
    1.0770    3.1805    6.4406 F   0  0  0  0  0  0  0  0  0  0  0  0
    0.9755    1.0233    7.3535 C   0  0  0  0  0  0  0  0  0  0  0  0
   -0.1646   -2.2611    7.9900 C   0  0  0  0  0  0  0  0  0  0  0  0
   -0.8572   -3.0072    8.9751 C   0  0  0  0  0  0  0  0  0  0  0  0
   -0.6059   -2.7735   10.3352 C   0  0  0  0  0  0  0  0  0  0  0  0
   -1.3365   -3.4896   11.3881 C   0  0  0  0  0  0  0  0  0  0  0  0
   -2.7275   -3.5202   11.3955 C   0  0  0  0  0  0  0  0  0  0  0  0
   -3.4259   -4.1724   12.3938 C   0  0  0  0  0  0  0  0  0  0  0  0
   -2.7525   -4.8249   13.4205 C   0  0  0  0  0  0  0  0  0  0  0  0
   -3.5080   -5.6967   14.7480 S   0  0  0  0  0  0  0  0  0  0  0  0
   -5.3000   -5.4804   14.4359 C   0  0  0  0  0  0  0  0  0  0  0  0
   -6.0711   -6.1742   15.5429 C   0  0  0  0  0  0  0  0  0  0  0  0
   -1.3564   -4.7861   13.3996 C   0  0  0  0  0  0  0  0  0  0  0  0
   -0.6504   -4.1335   12.4158 C   0  0  0  0  0  0  0  0  0  0  0  0
   -0.6740   -5.4150   14.3779 F   0  0  0  0  0  0  0  0  0  0  0  0
    0.3456   -1.8082   10.6383 C   0  0  0  0  0  0  0  0  0  0  0  0
    0.8433   -1.3280   12.2409 S   0  0  0  0  0  0  0  0  0  0  0  0
   -1.7669   -3.9329    8.3922 C   0  0  0  0  0  0  0  0  0  0  0  0
   -1.7746   -3.9138    7.0336 C   0  0  0  0  0  0  0  0  0  0  0  0
   -0.6370   -2.7425    6.3834 S   0  0  0  0  0  0  0  0  0  0  0  0
   -2.6118   -4.6422    6.1188 C   0  0  0  0  0  0  0  0  0  0  0  0
   -3.9357   -4.9866    6.2976 C   0  0  0  0  0  0  0  0  0  0  0  0
   -4.4249   -5.5468    5.0718 C   0  0  0  0  0  0  0  0  0  0  0  0
   -5.6944   -5.8525    4.6544 C   0  0  0  0  0  0  0  0  0  0  0  0
   -5.8693   -6.2154    3.3015 C   0  0  0  0  0  0  0  0  0  0  0  0
   -7.0084   -6.3416    2.5223 C   0  0  0  0  0  0  0  0  0  0  0  0
   -6.6202   -6.5938    1.1655 C   0  0  0  0  0  0  0  0  0  0  0  0
   -5.2411   -6.6776    1.1236 C   0  0  0  0  0  0  0  0  0  0  0  0
   -4.7271   -6.3837    2.4257 C   0  0  0  0  0  0  0  0  0  0  0  0
   -3.4594   -6.0795    2.8397 C   0  0  0  0  0  0  0  0  0  0  0  0
   -3.3025   -5.5978    4.1574 C   0  0  0  0  0  0  0  0  0  0  0  0
   -2.2176   -5.0294    4.7972 C   0  0  0  0  0  0  0  0  0  0  0  0
   -7.4536   -6.4676   -0.0023 C   0  0  0  0  0  0  0  0  0  0  0  0
   -8.5620   -5.6567   -0.1232 C   0  0  0  0  0  0  0  0  0  0  0  0
   -8.7912   -5.4121   -1.5196 C   0  0  0  0  0  0  0  0  0  0  0  0
   -9.4833   -4.4114   -2.1396 C   0  0  0  0  0  0  0  0  0  0  0  0
   -9.1752   -4.1557   -3.5004 C   0  0  0  0  0  0  0  0  0  0  0  0
   -9.3340   -3.0095   -4.2462 C   0  0  0  0  0  0  0  0  0  0  0  0
   -8.5602   -3.1360   -5.4578 C   0  0  0  0  0  0  0  0  0  0  0  0
   -8.0362   -4.4123   -5.5027 C   0  0  0  0  0  0  0  0  0  0  0  0
   -8.3220   -5.0552   -4.2562 C   0  0  0  0  0  0  0  0  0  0  0  0
   -7.6932   -6.1089   -3.6515 C   0  0  0  0  0  0  0  0  0  0  0  0
   -7.8440   -6.2352   -2.2514 C   0  0  0  0  0  0  0  0  0  0  0  0
   -7.0508   -6.8750   -1.3226 C   0  0  0  0  0  0  0  0  0  0  0  0
   -8.0444   -2.0186   -6.1907 C   0  0  0  0  0  0  0  0  0  0  0  0
   -8.0004   -0.7305   -5.7366 C   0  0  0  0  0  0  0  0  0  0  0  0
   -6.9442    0.0326   -6.2911 C   0  0  0  0  0  0  0  0  0  0  0  0
   -6.4669    1.2675   -5.8311 C   0  0  0  0  0  0  0  0  0  0  0  0
   -7.0855    2.0392   -4.7423 C   0  0  0  0  0  0  0  0  0  0  0  0
   -7.4015    3.3828   -4.9286 C   0  0  0  0  0  0  0  0  0  0  0  0
   -7.8479    4.1513   -3.8736 C   0  0  0  0  0  0  0  0  0  0  0  0
   -7.9834    3.6097   -2.6001 C   0  0  0  0  0  0  0  0  0  0  0  0
   -8.4994    4.6653   -1.2709 S   0  0  0  0  0  0  0  0  0  0  0  0
   -7.1440    4.4008   -0.0656 C   0  0  0  0  0  0  0  0  0  0  0  0
   -5.7928    4.7745   -0.6405 C   0  0  0  0  0  0  0  0  0  0  0  0
   -7.7079    2.2562   -2.4382 C   0  0  0  0  0  0  0  0  0  0  0  0
   -7.8575    1.6655   -1.2325 F   0  0  0  0  0  0  0  0  0  0  0  0
   -7.2562    1.4750   -3.4829 C   0  0  0  0  0  0  0  0  0  0  0  0
   -5.2358    1.6740   -6.3170 C   0  0  0  0  0  0  0  0  0  0  0  0
   -4.5091    0.9605   -7.2968 C   0  0  0  0  0  0  0  0  0  0  0  0
   -5.0443   -0.2210   -7.8478 C   0  0  0  0  0  0  0  0  0  0  0  0
   -4.2869   -0.9374   -8.8807 C   0  0  0  0  0  0  0  0  0  0  0  0
   -4.0088   -2.2998   -8.7946 C   0  0  0  0  0  0  0  0  0  0  0  0
   -3.2302   -2.9187   -9.7499 C   0  0  0  0  0  0  0  0  0  0  0  0
   -2.7088   -2.2123  -10.8302 C   0  0  0  0  0  0  0  0  0  0  0  0
   -1.7124   -3.0895  -12.0013 S   0  0  0  0  0  0  0  0  0  0  0  0
   -0.2761   -1.9717  -12.2214 C   0  0  0  0  0  0  0  0  0  0  0  0
    0.4195   -1.6799  -10.9076 C   0  0  0  0  0  0  0  0  0  0  0  0
   -3.0326   -0.8623  -10.9300 C   0  0  0  0  0  0  0  0  0  0  0  0
   -3.7901   -0.2248   -9.9699 C   0  0  0  0  0  0  0  0  0  0  0  0
   -2.6046   -0.1262  -11.9783 F   0  0  0  0  0  0  0  0  0  0  0  0
   -6.2208   -0.6865   -7.2800 C   0  0  0  0  0  0  0  0  0  0  0  0
   -6.9161   -2.2728   -7.5135 S   0  0  0  0  0  0  0  0  0  0  0  0
   -3.1663    1.4141   -7.3851 C   0  0  0  0  0  0  0  0  0  0  0  0
   -2.8601    2.3829   -6.4754 C   0  0  0  0  0  0  0  0  0  0  0  0
   -4.2703    2.9294   -5.5834 S   0  0  0  0  0  0  0  0  0  0  0  0
   -1.5616    2.7289   -5.9925 C   0  0  0  0  0  0  0  0  0  0  0  0
   -1.2812    3.1099   -4.7137 C   0  0  0  0  0  0  0  0  0  0  0  0
    0.0913    3.0161   -4.3790 C   0  0  0  0  0  0  0  0  0  0  0  0
    0.6616    3.1559   -3.1035 C   0  0  0  0  0  0  0  0  0  0  0  0
   -0.1426    3.5707   -1.9477 C   0  0  0  0  0  0  0  0  0  0  0  0
   -0.1490    2.8103   -0.7815 C   0  0  0  0  0  0  0  0  0  0  0  0
   -0.8900    3.1949    0.3176 C   0  0  0  0  0  0  0  0  0  0  0  0
   -1.6455    4.3616    0.2961 C   0  0  0  0  0  0  0  0  0  0  0  0
   -2.6124    4.9432    1.6499 S   0  0  0  0  0  0  0  0  0  0  0  0
   -1.7859    4.2208    3.1123 C   0  0  0  0  0  0  0  0  0  0  0  0
   -0.3756    4.7431    3.2945 C   0  0  0  0  0  0  0  0  0  0  0  0
   -1.6568    5.0974   -0.8902 C   0  0  0  0  0  0  0  0  0  0  0  0
   -2.4006    6.2184   -0.9617 F   0  0  0  0  0  0  0  0  0  0  0  0
   -0.9257    4.7223   -1.9960 C   0  0  0  0  0  0  0  0  0  0  0  0
    1.9970    2.8031   -2.9851 C   0  0  0  0  0  0  0  0  0  0  0  0
    2.7927    2.4082   -4.0884 C   0  0  0  0  0  0  0  0  0  0  0  0
    2.2352    2.3329   -5.3773 C   0  0  0  0  0  0  0  0  0  0  0  0
    3.0739    1.9943   -6.5337 C   0  0  0  0  0  0  0  0  0  0  0  0
    4.2447    2.7104   -6.7688 C   0  0  0  0  0  0  0  0  0  0  0  0
    5.0516    2.4328   -7.8551 C   0  0  0  0  0  0  0  0  0  0  0  0
    4.7174    1.4189   -8.7448 C   0  0  0  0  0  0  0  0  0  0  0  0
    5.6455    0.9529  -10.1700 S   0  0  0  0  0  0  0  0  0  0  0  0
    6.8850    2.2823  -10.3618 C   0  0  0  0  0  0  0  0  0  0  0  0
    8.1430    2.0409   -9.5477 C   0  0  0  0  0  0  0  0  0  0  0  0
    3.5463    0.7024   -8.4909 C   0  0  0  0  0  0  0  0  0  0  0  0
    2.7278    0.9760   -7.4186 C   0  0  0  0  0  0  0  0  0  0  0  0
    3.2013   -0.2954   -9.3298 F   0  0  0  0  0  0  0  0  0  0  0  0
    0.8759    2.5834   -5.4778 C   0  0  0  0  0  0  0  0  0  0  0  0
   -0.1119    2.3444   -6.9000 S   0  0  0  0  0  0  0  0  0  0  0  0
    4.0919    2.0066   -3.6871 C   0  0  0  0  0  0  0  0  0  0  0  0
    4.2976    2.0896   -2.3411 C   0  0  0  0  0  0  0  0  0  0  0  0
    2.9051    2.7378   -1.4986 S   0  0  0  0  0  0  0  0  0  0  0  0
    5.4207    1.6161   -1.5964 C   0  0  0  0  0  0  0  0  0  0  0  0
    6.4747    0.8819   -2.0528 C   0  0  0  0  0  0  0  0  0  0  0  0
    7.3620    0.4580   -1.0290 C   0  0  0  0  0  0  0  0  0  0  0  0
    8.4921   -0.3673   -1.1510 C   0  0  0  0  0  0  0  0  0  0  0  0
    8.9286   -0.8403   -2.4689 C   0  0  0  0  0  0  0  0  0  0  0  0
    9.0596    0.0427   -3.5394 C   0  0  0  0  0  0  0  0  0  0  0  0
    9.3849   -0.4103   -4.8019 C   0  0  0  0  0  0  0  0  0  0  0  0
    9.5849   -1.7651   -5.0440 C   0  0  0  0  0  0  0  0  0  0  0  0
    9.9627   -2.4470   -6.6259 S   0  0  0  0  0  0  0  0  0  0  0  0
    9.1120   -1.3086   -7.7782 C   0  0  0  0  0  0  0  0  0  0  0  0
    7.6103   -1.2954   -7.5701 C   0  0  0  0  0  0  0  0  0  0  0  0
    9.5033   -2.6315   -3.9537 C   0  0  0  0  0  0  0  0  0  0  0  0
    9.7182   -3.9470   -4.1412 F   0  0  0  0  0  0  0  0  0  0  0  0
    9.1808   -2.1925   -2.6885 C   0  0  0  0  0  0  0  0  0  0  0  0
    9.1260   -0.7290    0.0307 C   0  0  0  0  0  0  0  0  0  0  0  0
    8.6745   -0.3198    1.3092 C   0  0  0  0  0  0  0  0  0  0  0  0
    7.5405    0.4955    1.4314 C   0  0  0  0  0  0  0  0  0  0  0  0
    6.9862    0.8658    2.7416 C   0  0  0  0  0  0  0  0  0  0  0  0
    6.6445   -0.1195    3.6692 C   0  0  0  0  0  0  0  0  0  0  0  0
    6.0946    0.2234    4.8838 C   0  0  0  0  0  0  0  0  0  0  0  0
    5.8710    1.5561    5.2443 C   0  0  0  0  0  0  0  0  0  0  0  0
    5.1609    1.7797    6.8442 S   0  0  0  0  0  0  0  0  0  0  0  0
    5.4139    3.5293    7.3270 C   0  0  0  0  0  0  0  0  0  0  0  0
    4.2386    4.4167    6.9723 C   0  0  0  0  0  0  0  0  0  0  0  0
    6.2081    2.5247    4.3033 C   0  0  0  0  0  0  0  0  0  0  0  0
    6.7491    2.1926    3.0745 C   0  0  0  0  0  0  0  0  0  0  0  0
    6.0258    3.8407    4.5448 F   0  0  0  0  0  0  0  0  0  0  0  0
    6.9290    0.8845    0.2503 C   0  0  0  0  0  0  0  0  0  0  0  0
    5.4818    1.8479    0.1375 S   0  0  0  0  0  0  0  0  0  0  0  0
    9.5209   -0.8076    2.3486 C   0  0  0  0  0  0  0  0  0  0  0  0
   10.5524   -1.5404    1.8831 C   0  0  0  0  0  0  0  0  0  0  0  0
   10.5702   -1.6995    0.1603 S   0  0  0  0  0  0  0  0  0  0  0  0
    2.4881    0.4628   12.2549 H   0  0  0  0  0  0  0  0  0  0  0  0
    2.4898    0.5943    9.6469 H   0  0  0  0  0  0  0  0  0  0  0  0
    2.1899   -1.8559    6.0794 H   0  0  0  0  0  0  0  0  0  0  0  0
    2.9710   -0.3305    4.3503 H   0  0  0  0  0  0  0  0  0  0  0  0
    3.6740    2.4590    2.0269 H   0  0  0  0  0  0  0  0  0  0  0  0
    3.9545    0.9951    2.9784 H   0  0  0  0  0  0  0  0  0  0  0  0
    2.4955    0.5041    1.0066 H   0  0  0  0  0  0  0  0  0  0  0  0
    1.5463    0.3041    2.4874 H   0  0  0  0  0  0  0  0  0  0  0  0
    1.3737    1.7700    1.5135 H   0  0  0  0  0  0  0  0  0  0  0  0
    0.4154    1.4209    8.1857 H   0  0  0  0  0  0  0  0  0  0  0  0
   -3.2741   -3.0033   10.6209 H   0  0  0  0  0  0  0  0  0  0  0  0
   -4.5032   -4.1643   12.3664 H   0  0  0  0  0  0  0  0  0  0  0  0
   -5.5300   -5.9221   13.4661 H   0  0  0  0  0  0  0  0  0  0  0  0
   -5.5131   -4.4113   14.4246 H   0  0  0  0  0  0  0  0  0  0  0  0
   -7.1402   -6.0601   15.3772 H   0  0  0  0  0  0  0  0  0  0  0  0
   -5.8189   -5.7438   16.5092 H   0  0  0  0  0  0  0  0  0  0  0  0
   -5.8318   -7.2348   15.5662 H   0  0  0  0  0  0  0  0  0  0  0  0
    0.4274   -4.1453   12.4468 H   0  0  0  0  0  0  0  0  0  0  0  0
   -2.3710   -4.6098    8.9687 H   0  0  0  0  0  0  0  0  0  0  0  0
   -4.5238   -4.8145    7.1797 H   0  0  0  0  0  0  0  0  0  0  0  0
   -6.5480   -5.7617    5.3118 H   0  0  0  0  0  0  0  0  0  0  0  0
   -8.0243   -6.2447    2.8612 H   0  0  0  0  0  0  0  0  0  0  0  0
   -4.6369   -6.8416    0.2510 H   0  0  0  0  0  0  0  0  0  0  0  0
   -2.6093   -6.1420    2.1750 H   0  0  0  0  0  0  0  0  0  0  0  0
   -1.2340   -4.8792    4.3893 H   0  0  0  0  0  0  0  0  0  0  0  0
   -9.0958   -5.1787    0.6766 H   0  0  0  0  0  0  0  0  0  0  0  0
  -10.1380   -3.7450   -1.5961 H   0  0  0  0  0  0  0  0  0  0  0  0
   -9.8871   -2.1344   -3.9579 H   0  0  0  0  0  0  0  0  0  0  0  0
   -7.4043   -4.8090   -6.2754 H   0  0  0  0  0  0  0  0  0  0  0  0
   -6.9993   -6.7423   -4.1860 H   0  0  0  0  0  0  0  0  0  0  0  0
   -6.2325   -7.5391   -1.5350 H   0  0  0  0  0  0  0  0  0  0  0  0
   -8.6304   -0.3603   -4.9492 H   0  0  0  0  0  0  0  0  0  0  0  0
   -7.2822    3.8263   -5.9054 H   0  0  0  0  0  0  0  0  0  0  0  0
   -8.0787    5.1955   -4.0143 H   0  0  0  0  0  0  0  0  0  0  0  0
   -7.4109    5.0517    0.7663 H   0  0  0  0  0  0  0  0  0  0  0  0
   -7.1740    3.3657    0.2690 H   0  0  0  0  0  0  0  0  0  0  0  0
   -5.8002    5.7991   -1.0047 H   0  0  0  0  0  0  0  0  0  0  0  0
   -5.0302    4.6917    0.1313 H   0  0  0  0  0  0  0  0  0  0  0  0
   -5.5242    4.1169   -1.4664 H   0  0  0  0  0  0  0  0  0  0  0  0
   -7.0122    0.4399   -3.2971 H   0  0  0  0  0  0  0  0  0  0  0  0
   -4.3692   -2.8698   -7.9533 H   0  0  0  0  0  0  0  0  0  0  0  0
   -2.9986   -3.9691   -9.6677 H   0  0  0  0  0  0  0  0  0  0  0  0
   -0.6094   -1.0637  -12.7192 H   0  0  0  0  0  0  0  0  0  0  0  0
    0.3736   -2.5288  -12.8958 H   0  0  0  0  0  0  0  0  0  0  0  0
    1.3194   -1.0961  -11.0859 H   0  0  0  0  0  0  0  0  0  0  0  0
    0.7025   -2.6053  -10.4107 H   0  0  0  0  0  0  0  0  0  0  0  0
   -0.2297   -1.1149  -10.2406 H   0  0  0  0  0  0  0  0  0  0  0  0
   -4.0088    0.8252  -10.0913 H   0  0  0  0  0  0  0  0  0  0  0  0
   -2.4221    0.9519   -8.0094 H   0  0  0  0  0  0  0  0  0  0  0  0
   -2.0483    3.3601   -4.0031 H   0  0  0  0  0  0  0  0  0  0  0  0
    0.4103    1.8881   -0.7443 H   0  0  0  0  0  0  0  0  0  0  0  0
   -0.8904    2.5707    1.1969 H   0  0  0  0  0  0  0  0  0  0  0  0
   -2.4263    4.5322    3.9373 H   0  0  0  0  0  0  0  0  0  0  0  0
   -1.8234    3.1346    3.0375 H   0  0  0  0  0  0  0  0  0  0  0  0
    0.2614    4.4582    2.4595 H   0  0  0  0  0  0  0  0  0  0  0  0
    0.0545    4.3385    4.2076 H   0  0  0  0  0  0  0  0  0  0  0  0
   -0.3824    5.8280    3.3667 H   0  0  0  0  0  0  0  0  0  0  0  0
   -0.9495    5.3433   -2.8779 H   0  0  0  0  0  0  0  0  0  0  0  0
    4.5182    3.5128   -6.1001 H   0  0  0  0  0  0  0  0  0  0  0  0
    5.9424    3.0208   -8.0026 H   0  0  0  0  0  0  0  0  0  0  0  0
    7.1142    2.2722  -11.4274 H   0  0  0  0  0  0  0  0  0  0  0  0
    6.4032    3.2279  -10.1184 H   0  0  0  0  0  0  0  0  0  0  0  0
    8.8455    2.8573   -9.7052 H   0  0  0  0  0  0  0  0  0  0  0  0
    7.9193    1.9743   -8.4851 H   0  0  0  0  0  0  0  0  0  0  0  0
    8.6162    1.1121   -9.8574 H   0  0  0  0  0  0  0  0  0  0  0  0
    1.8388    0.3838   -7.2725 H   0  0  0  0  0  0  0  0  0  0  0  0
    4.8253    1.6255   -4.3739 H   0  0  0  0  0  0  0  0  0  0  0  0
    6.5914    0.6057   -3.0842 H   0  0  0  0  0  0  0  0  0  0  0  0
    8.9239    1.1012   -3.3748 H   0  0  0  0  0  0  0  0  0  0  0  0
    9.4870    0.3008   -5.6066 H   0  0  0  0  0  0  0  0  0  0  0  0
    9.3645   -1.7135   -8.7579 H   0  0  0  0  0  0  0  0  0  0  0  0
    9.5539   -0.3169   -7.6867 H   0  0  0  0  0  0  0  0  0  0  0  0
    7.1305   -0.7017   -8.3453 H   0  0  0  0  0  0  0  0  0  0  0  0
    7.2158   -2.3073   -7.6217 H   0  0  0  0  0  0  0  0  0  0  0  0
    7.3539   -0.8755   -6.5989 H   0  0  0  0  0  0  0  0  0  0  0  0
    9.0941   -2.9140   -1.8918 H   0  0  0  0  0  0  0  0  0  0  0  0
    6.8004   -1.1593    3.4241 H   0  0  0  0  0  0  0  0  0  0  0  0
    5.8248   -0.5421    5.5959 H   0  0  0  0  0  0  0  0  0  0  0  0
    5.5470    3.4740    8.4085 H   0  0  0  0  0  0  0  0  0  0  0  0
    6.3424    3.8707    6.8768 H   0  0  0  0  0  0  0  0  0  0  0  0
    3.3316    4.0613    7.4545 H   0  0  0  0  0  0  0  0  0  0  0  0
    4.4369    5.4314    7.3105 H   0  0  0  0  0  0  0  0  0  0  0  0
    4.0707    4.4376    5.8994 H   0  0  0  0  0  0  0  0  0  0  0  0
    6.9949    2.9909    2.3912 H   0  0  0  0  0  0  0  0  0  0  0  0
    9.3572   -0.5941    3.3894 H   0  0  0  0  0  0  0  0  0  0  0  0
   11.3307   -2.0158    2.4473 H   0  0  0  0  0  0  0  0  0  0  0  0
  1  2  2  0  0  0  0
  2  3  1  0  0  0  0
  3  4  2  0  0  0  0
  4  5  1  0  0  0  0
  5  6  2  0  0  0  0
  6  7  1  0  0  0  0
  7  8  2  0  0  0  0
  8  9  1  0  0  0  0
  9 10  1  0  0  0  0
 10 11  1  0  0  0  0
  8 12  1  0  0  0  0
 12 13  1  0  0  0  0
 12 14  2  0  0  0  0
  4 15  1  0  0  0  0
 15 16  2  0  0  0  0
 16 17  1  0  0  0  0
 17 18  1  0  0  0  0
 18 19  2  0  0  0  0
 19 20  1  0  0  0  0
 20 21  2  0  0  0  0
 21 22  1  0  0  0  0
 22 23  1  0  0  0  0
 23 24  1  0  0  0  0
 21 25  1  0  0  0  0
 25 26  2  0  0  0  0
 25 27  1  0  0  0  0
 17 28  2  0  0  0  0
 28 29  1  0  0  0  0
 16 30  1  0  0  0  0
 30 31  2  0  0  0  0
 31 32  1  0  0  0  0
 31 33  1  0  0  0  0
 33 34  2  0  0  0  0
 34 35  1  0  0  0  0
 35 36  2  0  0  0  0
 36 37  1  0  0  0  0
 37 38  2  0  0  0  0
 38 39  1  0  0  0  0
 39 40  2  0  0  0  0
 40 41  1  0  0  0  0
 41 42  2  0  0  0  0
 42 43  1  0  0  0  0
 43 44  2  0  0  0  0
 39 45  1  0  0  0  0
 45 46  2  0  0  0  0
 46 47  1  0  0  0  0
 47 48  2  0  0  0  0
 48 49  1  0  0  0  0
 49 50  2  0  0  0  0
 50 51  1  0  0  0  0
 51 52  2  0  0  0  0
 52 53  1  0  0  0  0
 53 54  2  0  0  0  0
 54 55  1  0  0  0  0
 55 56  2  0  0  0  0
 51 57  1  0  0  0  0
 57 58  2  0  0  0  0
 58 59  1  0  0  0  0
 59 60  2  0  0  0  0
 60 61  1  0  0  0  0
 61 62  2  0  0  0  0
 62 63  1  0  0  0  0
 63 64  2  0  0  0  0
 64 65  1  0  0  0  0
 65 66  1  0  0  0  0
 66 67  1  0  0  0  0
 64 68  1  0  0  0  0
 68 69  1  0  0  0  0
 68 70  2  0  0  0  0
 60 71  1  0  0  0  0
 71 72  2  0  0  0  0
 72 73  1  0  0  0  0
 73 74  1  0  0  0  0
 74 75  2  0  0  0  0
 75 76  1  0  0  0  0
 76 77  2  0  0  0  0
 77 78  1  0  0  0  0
 78 79  1  0  0  0  0
 79 80  1  0  0  0  0
 77 81  1  0  0  0  0
 81 82  2  0  0  0  0
 81 83  1  0  0  0  0
 73 84  2  0  0  0  0
 84 85  1  0  0  0  0
 72 86  1  0  0  0  0
 86 87  2  0  0  0  0
 87 88  1  0  0  0  0
 87 89  1  0  0  0  0
 89 90  2  0  0  0  0
 90 91  1  0  0  0  0
 91 92  2  0  0  0  0
 92 93  1  0  0  0  0
 93 94  2  0  0  0  0
 94 95  1  0  0  0  0
 95 96  2  0  0  0  0
 96 97  1  0  0  0  0
 97 98  1  0  0  0  0
 98 99  1  0  0  0  0
 96100  1  0  0  0  0
100101  1  0  0  0  0
100102  2  0  0  0  0
 92103  1  0  0  0  0
103104  2  0  0  0  0
104105  1  0  0  0  0
105106  1  0  0  0  0
106107  2  0  0  0  0
107108  1  0  0  0  0
108109  2  0  0  0  0
109110  1  0  0  0  0
110111  1  0  0  0  0
111112  1  0  0  0  0
109113  1  0  0  0  0
113114  2  0  0  0  0
113115  1  0  0  0  0
105116  2  0  0  0  0
116117  1  0  0  0  0
104118  1  0  0  0  0
118119  2  0  0  0  0
119120  1  0  0  0  0
119121  1  0  0  0  0
121122  2  0  0  0  0
122123  1  0  0  0  0
123124  2  0  0  0  0
124125  1  0  0  0  0
125126  2  0  0  0  0
126127  1  0  0  0  0
127128  2  0  0  0  0
128129  1  0  0  0  0
129130  1  0  0  0  0
130131  1  0  0  0  0
128132  1  0  0  0  0
132133  1  0  0  0  0
132134  2  0  0  0  0
124135  1  0  0  0  0
135136  2  0  0  0  0
136137  1  0  0  0  0
137138  1  0  0  0  0
138139  2  0  0  0  0
139140  1  0  0  0  0
140141  2  0  0  0  0
141142  1  0  0  0  0
142143  1  0  0  0  0
143144  1  0  0  0  0
141145  1  0  0  0  0
145146  2  0  0  0  0
145147  1  0  0  0  0
137148  2  0  0  0  0
148149  1  0  0  0  0
136150  1  0  0  0  0
150151  2  0  0  0  0
151152  1  0  0  0  0
 29  1  1  0  0  0  0
 44 33  1  0  0  0  0
 56 45  1  0  0  0  0
 85 57  1  0  0  0  0
117 89  1  0  0  0  0
149121  1  0  0  0  0
 28  3  1  0  0  0  0
 43 35  1  0  0  0  0
 55 47  1  0  0  0  0
 84 59  1  0  0  0  0
116 91  1  0  0  0  0
148123  1  0  0  0  0
 14  5  1  0  0  0  0
 32 15  1  0  0  0  0
 41 37  1  0  0  0  0
 53 49  1  0  0  0  0
 70 61  1  0  0  0  0
 88 71  1  0  0  0  0
102 93  1  0  0  0  0
120103  1  0  0  0  0
134125  1  0  0  0  0
152135  1  0  0  0  0
 26 18  1  0  0  0  0
 82 74  1  0  0  0  0
114106  1  0  0  0  0
146138  1  0  0  0  0
  1153  1  0  0  0  0
  2154  1  0  0  0  0
  6155  1  0  0  0  0
  7156  1  0  0  0  0
 10157  1  0  0  0  0
 10158  1  0  0  0  0
 11159  1  0  0  0  0
 11160  1  0  0  0  0
 11161  1  0  0  0  0
 14162  1  0  0  0  0
 19163  1  0  0  0  0
 20164  1  0  0  0  0
 23165  1  0  0  0  0
 23166  1  0  0  0  0
 24167  1  0  0  0  0
 24168  1  0  0  0  0
 24169  1  0  0  0  0
 26170  1  0  0  0  0
 30171  1  0  0  0  0
 34172  1  0  0  0  0
 36173  1  0  0  0  0
 38174  1  0  0  0  0
 40175  1  0  0  0  0
 42176  1  0  0  0  0
 44177  1  0  0  0  0
 46178  1  0  0  0  0
 48179  1  0  0  0  0
 50180  1  0  0  0  0
 52181  1  0  0  0  0
 54182  1  0  0  0  0
 56183  1  0  0  0  0
 58184  1  0  0  0  0
 62185  1  0  0  0  0
 63186  1  0  0  0  0
 66187  1  0  0  0  0
 66188  1  0  0  0  0
 67189  1  0  0  0  0
 67190  1  0  0  0  0
 67191  1  0  0  0  0
 70192  1  0  0  0  0
 75193  1  0  0  0  0
 76194  1  0  0  0  0
 79195  1  0  0  0  0
 79196  1  0  0  0  0
 80197  1  0  0  0  0
 80198  1  0  0  0  0
 80199  1  0  0  0  0
 82200  1  0  0  0  0
 86201  1  0  0  0  0
 90202  1  0  0  0  0
 94203  1  0  0  0  0
 95204  1  0  0  0  0
 98205  1  0  0  0  0
 98206  1  0  0  0  0
 99207  1  0  0  0  0
 99208  1  0  0  0  0
 99209  1  0  0  0  0
102210  1  0  0  0  0
107211  1  0  0  0  0
108212  1  0  0  0  0
111213  1  0  0  0  0
111214  1  0  0  0  0
112215  1  0  0  0  0
112216  1  0  0  0  0
112217  1  0  0  0  0
114218  1  0  0  0  0
118219  1  0  0  0  0
122220  1  0  0  0  0
126221  1  0  0  0  0
127222  1  0  0  0  0
130223  1  0  0  0  0
130224  1  0  0  0  0
131225  1  0  0  0  0
131226  1  0  0  0  0
131227  1  0  0  0  0
134228  1  0  0  0  0
139229  1  0  0  0  0
140230  1  0  0  0  0
143231  1  0  0  0  0
143232  1  0  0  0  0
144233  1  0  0  0  0
144234  1  0  0  0  0
144235  1  0  0  0  0
146236  1  0  0  0  0
150237  1  0  0  0  0
151238  1  0  0  0  0
M  END
