
  xtb     02282216003D
 energy: -163.799443714185 gnorm: 0.000830631901 xtb: 6.4.1 (unknown)
 89103  0     0  0            999 V2000
    9.6906    5.9383  -10.3060 C   0  0  0  0  0  0  0  0  0  0  0  0
   10.5403    5.1891   -9.5253 C   0  0  0  0  0  0  0  0  0  0  0  0
    9.7555    4.4762   -8.5625 C   0  0  0  0  0  0  0  0  0  0  0  0
   10.1053    3.6020   -7.5607 C   0  0  0  0  0  0  0  0  0  0  0  0
    9.0724    3.0669   -6.7743 C   0  0  0  0  0  0  0  0  0  0  0  0
    9.0973    2.1789   -5.7003 C   0  0  0  0  0  0  0  0  0  0  0  0
    7.7624    1.9657   -5.2550 C   0  0  0  0  0  0  0  0  0  0  0  0
    6.9117    2.7223   -6.0558 C   0  0  0  0  0  0  0  0  0  0  0  0
    7.6934    3.4234   -7.0142 C   0  0  0  0  0  0  0  0  0  0  0  0
    7.3453    4.3004   -8.0186 C   0  0  0  0  0  0  0  0  0  0  0  0
    8.3780    4.8341   -8.8011 C   0  0  0  0  0  0  0  0  0  0  0  0
    8.3645    5.7317   -9.8744 C   0  0  0  0  0  0  0  0  0  0  0  0
    7.3471    1.1349   -4.1675 C   0  0  0  0  0  0  0  0  0  0  0  0
    5.6674    1.0301   -3.7429 S   0  0  0  0  0  0  0  0  0  0  0  0
    5.9846   -0.0460   -2.4129 C   0  0  0  0  0  0  0  0  0  0  0  0
    7.3399   -0.3023   -2.3225 C   0  0  0  0  0  0  0  0  0  0  0  0
    8.1073    0.3479   -3.3211 C   0  0  0  0  0  0  0  0  0  0  0  0
    9.4691    0.3052   -3.4920 O   0  0  0  0  0  0  0  0  0  0  0  0
   10.1917   -0.6589   -2.8169 C   0  0  0  0  0  0  0  0  0  0  0  0
    9.9267   -0.5496   -1.0003 S   0  0  0  0  0  0  0  0  0  0  0  0
    8.0433   -1.3496   -1.0804 S   0  0  0  0  0  0  0  0  0  0  0  0
    4.8865   -0.5068   -1.6251 C   0  0  0  0  0  0  0  0  0  0  0  0
    3.5803   -0.0610   -1.7538 C   0  0  0  0  0  0  0  0  0  0  0  0
    2.7691   -0.7359   -0.7944 C   0  0  0  0  0  0  0  0  0  0  0  0
    1.4300   -0.6572   -0.5125 C   0  0  0  0  0  0  0  0  0  0  0  0
    0.9321   -1.4736    0.5237 C   0  0  0  0  0  0  0  0  0  0  0  0
   -0.3413   -1.6222    1.0407 C   0  0  0  0  0  0  0  0  0  0  0  0
   -0.3016   -2.5829    2.1051 C   0  0  0  0  0  0  0  0  0  0  0  0
    1.0016   -3.0276    2.2401 C   0  0  0  0  0  0  0  0  0  0  0  0
    1.8078   -2.3605    1.2654 C   0  0  0  0  0  0  0  0  0  0  0  0
    3.1447   -2.4451    0.9773 C   0  0  0  0  0  0  0  0  0  0  0  0
    3.6428   -1.6309   -0.0618 C   0  0  0  0  0  0  0  0  0  0  0  0
    4.9180   -1.4879   -0.5786 C   0  0  0  0  0  0  0  0  0  0  0  0
   -1.4515   -2.9699    2.8588 C   0  0  0  0  0  0  0  0  0  0  0  0
   -3.0231   -2.3556    2.4475 S   0  0  0  0  0  0  0  0  0  0  0  0
   -3.7792   -3.2321    3.7394 C   0  0  0  0  0  0  0  0  0  0  0  0
   -2.8452   -3.9567    4.4545 C   0  0  0  0  0  0  0  0  0  0  0  0
   -1.5307   -3.8241    3.9465 C   0  0  0  0  0  0  0  0  0  0  0  0
   -0.3858   -4.3930    4.4320 O   0  0  0  0  0  0  0  0  0  0  0  0
   -0.4929   -5.3406    5.4359 C   0  0  0  0  0  0  0  0  0  0  0  0
   -1.4508   -4.7068    6.8681 S   0  0  0  0  0  0  0  0  0  0  0  0
   -3.2653   -4.8617    5.9118 S   0  0  0  0  0  0  0  0  0  0  0  0
   -5.1861   -3.1506    3.9355 C   0  0  0  0  0  0  0  0  0  0  0  0
   -6.0768   -1.7257    3.5024 S   0  0  0  0  0  0  0  0  0  0  0  0
   -7.5807   -2.4237    4.0258 C   0  0  0  0  0  0  0  0  0  0  0  0
   -7.3811   -3.7081    4.4960 C   0  0  0  0  0  0  0  0  0  0  0  0
   -6.0291   -4.1203    4.4468 C   0  0  0  0  0  0  0  0  0  0  0  0
   -5.5148   -5.3573    4.7286 O   0  0  0  0  0  0  0  0  0  0  0  0
   -6.2848   -6.2324    5.4782 C   0  0  0  0  0  0  0  0  0  0  0  0
   -7.8896   -6.5674    4.6528 S   0  0  0  0  0  0  0  0  0  0  0  0
   -8.6939   -4.7315    5.0882 S   0  0  0  0  0  0  0  0  0  0  0  0
   -8.7874   -1.6680    3.9315 C   0  0  0  0  0  0  0  0  0  0  0  0
   -8.9119   -0.4706    3.1596 C   0  0  0  0  0  0  0  0  0  0  0  0
  -10.2115   -0.0012    3.2687 C   0  0  0  0  0  0  0  0  0  0  0  0
  -10.8504    1.1230    2.7072 C   0  0  0  0  0  0  0  0  0  0  0  0
  -12.1716    1.3184    3.0110 C   0  0  0  0  0  0  0  0  0  0  0  0
  -13.1043    2.3379    2.6165 C   0  0  0  0  0  0  0  0  0  0  0  0
  -14.3127    2.0649    3.2039 C   0  0  0  0  0  0  0  0  0  0  0  0
  -14.1969    0.8860    3.9788 C   0  0  0  0  0  0  0  0  0  0  0  0
  -12.8907    0.4095    3.8756 C   0  0  0  0  0  0  0  0  0  0  0  0
  -12.2565   -0.7100    4.4376 C   0  0  0  0  0  0  0  0  0  0  0  0
  -10.9298   -0.9100    4.1343 C   0  0  0  0  0  0  0  0  0  0  0  0
  -10.0125   -1.9260    4.5313 C   0  0  0  0  0  0  0  0  0  0  0  0
    9.9804    6.5816  -11.1168 H   0  0  0  0  0  0  0  0  0  0  0  0
   11.6104    5.1372   -9.6108 H   0  0  0  0  0  0  0  0  0  0  0  0
   11.1357    3.3311   -7.3760 H   0  0  0  0  0  0  0  0  0  0  0  0
    9.9695    1.7285   -5.2669 H   0  0  0  0  0  0  0  0  0  0  0  0
    5.8422    2.7696   -5.9615 H   0  0  0  0  0  0  0  0  0  0  0  0
    6.3148    4.5722   -8.2002 H   0  0  0  0  0  0  0  0  0  0  0  0
    7.4902    6.1898  -10.3018 H   0  0  0  0  0  0  0  0  0  0  0  0
   11.2451   -0.4541   -3.0051 H   0  0  0  0  0  0  0  0  0  0  0  0
    9.9329   -1.6792   -3.1216 H   0  0  0  0  0  0  0  0  0  0  0  0
    3.2345    0.6760   -2.4547 H   0  0  0  0  0  0  0  0  0  0  0  0
    0.7698    0.0040   -1.0555 H   0  0  0  0  0  0  0  0  0  0  0  0
   -1.2315   -1.1112    0.7193 H   0  0  0  0  0  0  0  0  0  0  0  0
    1.3559   -3.7480    2.9507 H   0  0  0  0  0  0  0  0  0  0  0  0
    3.8066   -3.1038    1.5213 H   0  0  0  0  0  0  0  0  0  0  0  0
    5.7897   -2.0290   -0.2614 H   0  0  0  0  0  0  0  0  0  0  0  0
   -0.9849   -6.2599    5.0991 H   0  0  0  0  0  0  0  0  0  0  0  0
    0.5195   -5.5471    5.7813 H   0  0  0  0  0  0  0  0  0  0  0  0
   -5.7353   -7.1714    5.5249 H   0  0  0  0  0  0  0  0  0  0  0  0
   -6.4965   -5.8546    6.4837 H   0  0  0  0  0  0  0  0  0  0  0  0
   -8.1141   -0.0322    2.5870 H   0  0  0  0  0  0  0  0  0  0  0  0
  -10.3053    1.7988    2.0630 H   0  0  0  0  0  0  0  0  0  0  0  0
  -12.8748    3.1650    1.9701 H   0  0  0  0  0  0  0  0  0  0  0  0
  -15.2124    2.6438    3.1017 H   0  0  0  0  0  0  0  0  0  0  0  0
  -14.9902    0.4379    4.5502 H   0  0  0  0  0  0  0  0  0  0  0  0
  -12.7983   -1.3878    5.0821 H   0  0  0  0  0  0  0  0  0  0  0  0
  -10.2399   -2.7321    5.2025 H   0  0  0  0  0  0  0  0  0  0  0  0
  1  2  2  0  0  0  0
  2  3  1  0  0  0  0
  3  4  2  0  0  0  0
  4  5  1  0  0  0  0
  5  6  2  0  0  0  0
  6  7  1  0  0  0  0
  7  8  2  0  0  0  0
  8  9  1  0  0  0  0
  9 10  2  0  0  0  0
 10 11  1  0  0  0  0
 11 12  2  0  0  0  0
  7 13  1  0  0  0  0
 13 14  1  0  0  0  0
 14 15  1  0  0  0  0
 15 16  2  0  0  0  0
 16 17  1  0  0  0  0
 17 18  1  0  0  0  0
 18 19  1  0  0  0  0
 19 20  1  0  0  0  0
 20 21  1  0  0  0  0
 15 22  1  0  0  0  0
 22 23  2  0  0  0  0
 23 24  1  0  0  0  0
 24 25  2  0  0  0  0
 25 26  1  0  0  0  0
 26 27  2  0  0  0  0
 27 28  1  0  0  0  0
 28 29  2  0  0  0  0
 29 30  1  0  0  0  0
 30 31  2  0  0  0  0
 31 32  1  0  0  0  0
 32 33  2  0  0  0  0
 28 34  1  0  0  0  0
 34 35  1  0  0  0  0
 35 36  1  0  0  0  0
 36 37  2  0  0  0  0
 37 38  1  0  0  0  0
 38 39  1  0  0  0  0
 39 40  1  0  0  0  0
 40 41  1  0  0  0  0
 41 42  1  0  0  0  0
 36 43  1  0  0  0  0
 43 44  1  0  0  0  0
 44 45  1  0  0  0  0
 45 46  2  0  0  0  0
 46 47  1  0  0  0  0
 47 48  1  0  0  0  0
 48 49  1  0  0  0  0
 49 50  1  0  0  0  0
 50 51  1  0  0  0  0
 45 52  1  0  0  0  0
 52 53  2  0  0  0  0
 53 54  1  0  0  0  0
 54 55  2  0  0  0  0
 55 56  1  0  0  0  0
 56 57  2  0  0  0  0
 57 58  1  0  0  0  0
 58 59  2  0  0  0  0
 59 60  1  0  0  0  0
 60 61  2  0  0  0  0
 61 62  1  0  0  0  0
 62 63  2  0  0  0  0
 12  1  1  0  0  0  0
 17 13  2  0  0  0  0
 33 22  1  0  0  0  0
 38 34  2  0  0  0  0
 47 43  2  0  0  0  0
 63 52  1  0  0  0  0
 11  3  1  0  0  0  0
 21 16  1  0  0  0  0
 32 24  1  0  0  0  0
 42 37  1  0  0  0  0
 51 46  1  0  0  0  0
 62 54  1  0  0  0  0
  9  5  1  0  0  0  0
 30 26  1  0  0  0  0
 60 56  1  0  0  0  0
  1 64  1  0  0  0  0
  2 65  1  0  0  0  0
  4 66  1  0  0  0  0
  6 67  1  0  0  0  0
  8 68  1  0  0  0  0
 10 69  1  0  0  0  0
 12 70  1  0  0  0  0
 19 71  1  0  0  0  0
 19 72  1  0  0  0  0
 23 73  1  0  0  0  0
 25 74  1  0  0  0  0
 27 75  1  0  0  0  0
 29 76  1  0  0  0  0
 31 77  1  0  0  0  0
 33 78  1  0  0  0  0
 40 79  1  0  0  0  0
 40 80  1  0  0  0  0
 49 81  1  0  0  0  0
 49 82  1  0  0  0  0
 53 83  1  0  0  0  0
 55 84  1  0  0  0  0
 57 85  1  0  0  0  0
 58 86  1  0  0  0  0
 59 87  1  0  0  0  0
 61 88  1  0  0  0  0
 63 89  1  0  0  0  0
M  END
