89

C          9.69060        5.93830      -10.30600
C         10.54030        5.18910       -9.52530
C          9.75550        4.47620       -8.56250
C         10.10530        3.60200       -7.56070
C          9.07240        3.06690       -6.77430
C          9.09730        2.17890       -5.70030
C          7.76240        1.96570       -5.25500
C          6.91170        2.72230       -6.05580
C          7.69340        3.42340       -7.01420
C          7.34530        4.30040       -8.01860
C          8.37800        4.83410       -8.80110
C          8.36450        5.73170       -9.87440
C          7.34710        1.13490       -4.16750
S          5.66740        1.03010       -3.74290
C          5.98460       -0.04600       -2.41290
C          7.33990       -0.30230       -2.32250
C          8.10730        0.34790       -3.32110
O          9.46910        0.30520       -3.49200
C         10.19170       -0.65890       -2.81690
S          9.92670       -0.54960       -1.00030
S          8.04330       -1.34960       -1.08040
C          4.88650       -0.50680       -1.62510
C          3.58030       -0.06100       -1.75380
C          2.76910       -0.73590       -0.79440
C          1.43000       -0.65720       -0.51250
C          0.93210       -1.47360        0.52370
C         -0.34130       -1.62220        1.04070
C         -0.30160       -2.58290        2.10510
C          1.00160       -3.02760        2.24010
C          1.80780       -2.36050        1.26540
C          3.14470       -2.44510        0.97730
C          3.64280       -1.63090       -0.06180
C          4.91800       -1.48790       -0.57860
C         -1.45150       -2.96990        2.85880
S         -3.02310       -2.35560        2.44750
C         -3.77920       -3.23210        3.73940
C         -2.84520       -3.95670        4.45450
C         -1.53070       -3.82410        3.94650
O         -0.38580       -4.39300        4.43200
C         -0.49290       -5.34060        5.43590
S         -1.45080       -4.70680        6.86810
S         -3.26530       -4.86170        5.91180
C         -5.18610       -3.15060        3.93550
S         -6.07680       -1.72570        3.50240
C         -7.58070       -2.42370        4.02580
C         -7.38110       -3.70810        4.49600
C         -6.02910       -4.12030        4.44680
O         -5.51480       -5.35730        4.72860
C         -6.28480       -6.23240        5.47820
S         -7.88960       -6.56740        4.65280
S         -8.69390       -4.73150        5.08820
C         -8.78740       -1.66800        3.93150
C         -8.91190       -0.47060        3.15960
C        -10.21150       -0.00120        3.26870
C        -10.85040        1.12300        2.70720
C        -12.17160        1.31840        3.01100
C        -13.10430        2.33790        2.61650
C        -14.31270        2.06490        3.20390
C        -14.19690        0.88600        3.97880
C        -12.89070        0.40950        3.87560
C        -12.25650       -0.71000        4.43760
C        -10.92980       -0.91000        4.13430
C        -10.01250       -1.92600        4.53130
H          9.98040        6.58160      -11.11680
H         11.61040        5.13720       -9.61080
H         11.13570        3.33110       -7.37600
H          9.96950        1.72850       -5.26690
H          5.84220        2.76960       -5.96150
H          6.31480        4.57220       -8.20020
H          7.49020        6.18980      -10.30180
H         11.24510       -0.45410       -3.00510
H          9.93290       -1.67920       -3.12160
H          3.23450        0.67600       -2.45470
H          0.76980        0.00400       -1.05550
H         -1.23150       -1.11120        0.71930
H          1.35590       -3.74800        2.95070
H          3.80660       -3.10380        1.52130
H          5.78970       -2.02900       -0.26140
H         -0.98490       -6.25990        5.09910
H          0.51950       -5.54710        5.78130
H         -5.73530       -7.17140        5.52490
H         -6.49650       -5.85460        6.48370
H         -8.11410       -0.03220        2.58700
H        -10.30530        1.79880        2.06300
H        -12.87480        3.16500        1.97010
H        -15.21240        2.64380        3.10170
H        -14.99020        0.43790        4.55020
H        -12.79830       -1.38780        5.08210
H        -10.23990       -2.73210        5.20250
