
  xtb     03052203263D
 energy: -349.141319826381 gnorm: 0.000402549699 xtb: 6.4.1 (unknown)
206229  0     0  0            999 V2000
    4.4289   -5.6089   -1.4411 C   0  0  0  0  0  0  0  0  0  0  0  0
    3.1496   -5.2087   -1.3064 C   0  0  0  0  0  0  0  0  0  0  0  0
    2.8687   -4.6615   -0.0180 C   0  0  0  0  0  0  0  0  0  0  0  0
    1.6479   -4.1709    0.4689 C   0  0  0  0  0  0  0  0  0  0  0  0
    0.4997   -3.9290   -0.4123 C   0  0  0  0  0  0  0  0  0  0  0  0
    0.6962   -3.2501   -1.6158 C   0  0  0  0  0  0  0  0  0  0  0  0
   -0.3785   -2.8656   -2.3878 C   0  0  0  0  0  0  0  0  0  0  0  0
   -1.6786   -3.1499   -1.9963 C   0  0  0  0  0  0  0  0  0  0  0  0
   -3.0530   -2.5122   -2.9249 S   0  0  0  0  0  0  0  0  0  0  0  0
   -2.8361   -3.4124   -4.5072 C   0  0  0  0  0  0  0  0  0  0  0  0
   -3.2013   -4.8756   -4.3605 C   0  0  0  0  0  0  0  0  0  0  0  0
   -1.8664   -3.8619   -0.8183 C   0  0  0  0  0  0  0  0  0  0  0  0
   -3.1089   -4.1816   -0.4166 F   0  0  0  0  0  0  0  0  0  0  0  0
   -0.7992   -4.2542   -0.0326 C   0  0  0  0  0  0  0  0  0  0  0  0
    1.6166   -3.8022    1.8084 C   0  0  0  0  0  0  0  0  0  0  0  0
    2.7701   -3.7726    2.6314 C   0  0  0  0  0  0  0  0  0  0  0  0
    4.0081   -4.1881    2.1165 C   0  0  0  0  0  0  0  0  0  0  0  0
    5.2437   -4.0553    2.8964 C   0  0  0  0  0  0  0  0  0  0  0  0
    5.5632   -2.8380    3.4983 C   0  0  0  0  0  0  0  0  0  0  0  0
    6.7335   -2.6915    4.2104 C   0  0  0  0  0  0  0  0  0  0  0  0
    7.6390   -3.7428    4.3392 C   0  0  0  0  0  0  0  0  0  0  0  0
    9.1499   -3.4098    5.2012 S   0  0  0  0  0  0  0  0  0  0  0  0
    9.4291   -4.9140    6.2048 C   0  0  0  0  0  0  0  0  0  0  0  0
    8.2656   -5.1994    7.1325 C   0  0  0  0  0  0  0  0  0  0  0  0
    7.3173   -4.9453    3.7184 C   0  0  0  0  0  0  0  0  0  0  0  0
    6.1381   -5.1127    3.0202 C   0  0  0  0  0  0  0  0  0  0  0  0
    8.1589   -6.0001    3.7786 F   0  0  0  0  0  0  0  0  0  0  0  0
    4.0097   -4.6803    0.8175 C   0  0  0  0  0  0  0  0  0  0  0  0
    5.3924   -5.3316   -0.0290 S   0  0  0  0  0  0  0  0  0  0  0  0
    2.4773   -3.2995    3.9404 C   0  0  0  0  0  0  0  0  0  0  0  0
    1.1672   -2.9844    4.1291 C   0  0  0  0  0  0  0  0  0  0  0  0
    0.2153   -3.2451    2.6783 S   0  0  0  0  0  0  0  0  0  0  0  0
    0.5040   -2.4336    5.2768 C   0  0  0  0  0  0  0  0  0  0  0  0
   -0.8507   -2.5095    5.5316 C   0  0  0  0  0  0  0  0  0  0  0  0
   -1.1452   -1.6827    6.6575 C   0  0  0  0  0  0  0  0  0  0  0  0
   -2.3405   -1.3225    7.2219 C   0  0  0  0  0  0  0  0  0  0  0  0
   -2.3204   -0.2842    8.1726 C   0  0  0  0  0  0  0  0  0  0  0  0
   -3.3541    0.4640    8.7053 C   0  0  0  0  0  0  0  0  0  0  0  0
   -2.8046    1.5896    9.4057 C   0  0  0  0  0  0  0  0  0  0  0  0
   -1.4257    1.4696    9.3852 C   0  0  0  0  0  0  0  0  0  0  0  0
   -1.0756    0.3272    8.5948 C   0  0  0  0  0  0  0  0  0  0  0  0
    0.1275   -0.1014    8.0974 C   0  0  0  0  0  0  0  0  0  0  0  0
    0.1066   -1.0971    7.0938 C   0  0  0  0  0  0  0  0  0  0  0  0
    1.1038   -1.5880    6.2679 C   0  0  0  0  0  0  0  0  0  0  0  0
   -3.5922    2.7588    9.6895 C   0  0  0  0  0  0  0  0  0  0  0  0
   -4.9656    2.8616    9.6028 C   0  0  0  0  0  0  0  0  0  0  0  0
   -5.3037    4.2362    9.3841 C   0  0  0  0  0  0  0  0  0  0  0  0
   -6.4456    4.7897    8.8772 C   0  0  0  0  0  0  0  0  0  0  0  0
   -6.3397    6.0811    8.3061 C   0  0  0  0  0  0  0  0  0  0  0  0
   -7.1202    6.6893    7.3499 C   0  0  0  0  0  0  0  0  0  0  0  0
   -6.4010    7.8172    6.8059 C   0  0  0  0  0  0  0  0  0  0  0  0
   -5.2437    7.9760    7.5448 C   0  0  0  0  0  0  0  0  0  0  0  0
   -5.1220    6.8635    8.4384 C   0  0  0  0  0  0  0  0  0  0  0  0
   -4.0156    6.3512    9.0577 C   0  0  0  0  0  0  0  0  0  0  0  0
   -4.0642    4.9925    9.4543 C   0  0  0  0  0  0  0  0  0  0  0  0
   -3.0453    4.0940    9.6810 C   0  0  0  0  0  0  0  0  0  0  0  0
   -6.6239    8.3035    5.4732 C   0  0  0  0  0  0  0  0  0  0  0  0
   -7.5286    7.7823    4.5651 C   0  0  0  0  0  0  0  0  0  0  0  0
   -7.0385    8.0299    3.2436 C   0  0  0  0  0  0  0  0  0  0  0  0
   -7.3374    7.4087    2.0624 C   0  0  0  0  0  0  0  0  0  0  0  0
   -6.3922    7.5171    1.0141 C   0  0  0  0  0  0  0  0  0  0  0  0
   -6.1976    6.7305   -0.0998 C   0  0  0  0  0  0  0  0  0  0  0  0
   -4.9257    7.0628   -0.6875 C   0  0  0  0  0  0  0  0  0  0  0  0
   -4.3922    8.1276    0.0120 C   0  0  0  0  0  0  0  0  0  0  0  0
   -5.2466    8.4025    1.1276 C   0  0  0  0  0  0  0  0  0  0  0  0
   -5.0018    9.1023    2.2781 C   0  0  0  0  0  0  0  0  0  0  0  0
   -5.8483    8.8507    3.3821 C   0  0  0  0  0  0  0  0  0  0  0  0
   -5.6313    9.0392    4.7311 C   0  0  0  0  0  0  0  0  0  0  0  0
   -4.2247    6.2082   -1.5981 C   0  0  0  0  0  0  0  0  0  0  0  0
   -2.9430    6.3321   -2.0506 C   0  0  0  0  0  0  0  0  0  0  0  0
   -2.4114    5.1385   -2.5997 C   0  0  0  0  0  0  0  0  0  0  0  0
   -1.1000    4.9011   -3.0389 C   0  0  0  0  0  0  0  0  0  0  0  0
   -0.0626    5.9406   -3.0347 C   0  0  0  0  0  0  0  0  0  0  0  0
    0.2313    6.6707   -1.8848 C   0  0  0  0  0  0  0  0  0  0  0  0
    1.2496    7.6002   -1.8867 C   0  0  0  0  0  0  0  0  0  0  0  0
    2.0021    7.8490   -3.0322 C   0  0  0  0  0  0  0  0  0  0  0  0
    3.2707    9.0790   -2.9317 S   0  0  0  0  0  0  0  0  0  0  0  0
    4.6708    8.3214   -3.8378 C   0  0  0  0  0  0  0  0  0  0  0  0
    5.0640    6.9787   -3.2561 C   0  0  0  0  0  0  0  0  0  0  0  0
    1.6745    7.1375   -4.1821 C   0  0  0  0  0  0  0  0  0  0  0  0
    2.3275    7.3611   -5.3429 F   0  0  0  0  0  0  0  0  0  0  0  0
    0.6768    6.1843   -4.1871 C   0  0  0  0  0  0  0  0  0  0  0  0
   -0.7966    3.6032   -3.4187 C   0  0  0  0  0  0  0  0  0  0  0  0
   -1.7373    2.5449   -3.4154 C   0  0  0  0  0  0  0  0  0  0  0  0
   -3.0638    2.7894   -3.0163 C   0  0  0  0  0  0  0  0  0  0  0  0
   -4.0657    1.7166   -2.9907 C   0  0  0  0  0  0  0  0  0  0  0  0
   -4.8686    1.5096   -1.8698 C   0  0  0  0  0  0  0  0  0  0  0  0
   -5.8200    0.5140   -1.8592 C   0  0  0  0  0  0  0  0  0  0  0  0
   -6.0141   -0.3199   -2.9583 C   0  0  0  0  0  0  0  0  0  0  0  0
   -7.3233   -1.5006   -2.8425 S   0  0  0  0  0  0  0  0  0  0  0  0
   -6.6602   -3.0107   -3.6470 C   0  0  0  0  0  0  0  0  0  0  0  0
   -7.2773   -3.2776   -5.0051 C   0  0  0  0  0  0  0  0  0  0  0  0
   -5.2036   -0.1059   -4.0682 C   0  0  0  0  0  0  0  0  0  0  0  0
   -4.2427    0.8844   -4.0915 C   0  0  0  0  0  0  0  0  0  0  0  0
   -5.3367   -0.8612   -5.1826 F   0  0  0  0  0  0  0  0  0  0  0  0
   -3.3565    4.0800   -2.5974 C   0  0  0  0  0  0  0  0  0  0  0  0
   -4.8841    4.6183   -1.9523 S   0  0  0  0  0  0  0  0  0  0  0  0
   -1.1262    1.2975   -3.7144 C   0  0  0  0  0  0  0  0  0  0  0  0
    0.2177    1.3879   -3.9171 C   0  0  0  0  0  0  0  0  0  0  0  0
    0.8055    3.0337   -3.8022 S   0  0  0  0  0  0  0  0  0  0  0  0
    1.1471    0.3152   -4.1191 C   0  0  0  0  0  0  0  0  0  0  0  0
    0.9393   -0.8688   -4.7565 C   0  0  0  0  0  0  0  0  0  0  0  0
    2.0514   -1.7537   -4.6889 C   0  0  0  0  0  0  0  0  0  0  0  0
    2.1438   -3.0694   -5.1679 C   0  0  0  0  0  0  0  0  0  0  0  0
    1.0423   -3.7143   -5.8917 C   0  0  0  0  0  0  0  0  0  0  0  0
    0.5787   -4.9708   -5.5044 C   0  0  0  0  0  0  0  0  0  0  0  0
   -0.4369   -5.5895   -6.1997 C   0  0  0  0  0  0  0  0  0  0  0  0
   -1.0443   -4.9774   -7.2950 C   0  0  0  0  0  0  0  0  0  0  0  0
   -2.3928   -5.8367   -8.0529 S   0  0  0  0  0  0  0  0  0  0  0  0
   -2.1825   -5.5287   -9.8437 C   0  0  0  0  0  0  0  0  0  0  0  0
   -0.8321   -5.9990  -10.3442 C   0  0  0  0  0  0  0  0  0  0  0  0
   -0.5872   -3.7141   -7.6568 C   0  0  0  0  0  0  0  0  0  0  0  0
   -1.1439   -3.0441   -8.6892 F   0  0  0  0  0  0  0  0  0  0  0  0
    0.4466   -3.0932   -6.9845 C   0  0  0  0  0  0  0  0  0  0  0  0
    3.3336   -3.7413   -4.9215 C   0  0  0  0  0  0  0  0  0  0  0  0
    4.4154   -3.1669   -4.2159 C   0  0  0  0  0  0  0  0  0  0  0  0
    4.3057   -1.8707   -3.6911 C   0  0  0  0  0  0  0  0  0  0  0  0
    5.3786   -1.2972   -2.8704 C   0  0  0  0  0  0  0  0  0  0  0  0
    5.9017   -2.0209   -1.8027 C   0  0  0  0  0  0  0  0  0  0  0  0
    6.9233   -1.5173   -1.0214 C   0  0  0  0  0  0  0  0  0  0  0  0
    7.4669   -0.2660   -1.2894 C   0  0  0  0  0  0  0  0  0  0  0  0
    8.8018    0.4883   -0.4256 S   0  0  0  0  0  0  0  0  0  0  0  0
    9.3941   -0.7939    0.7333 C   0  0  0  0  0  0  0  0  0  0  0  0
    8.6012   -0.8307    2.0255 C   0  0  0  0  0  0  0  0  0  0  0  0
    6.9157    0.4593   -2.3493 C   0  0  0  0  0  0  0  0  0  0  0  0
    5.8928   -0.0287   -3.1299 C   0  0  0  0  0  0  0  0  0  0  0  0
    7.4146    1.6797   -2.6306 F   0  0  0  0  0  0  0  0  0  0  0  0
    3.1292   -1.1867   -3.9633 C   0  0  0  0  0  0  0  0  0  0  0  0
    2.7470    0.4228   -3.4144 S   0  0  0  0  0  0  0  0  0  0  0  0
    5.5480   -4.0354   -4.1921 C   0  0  0  0  0  0  0  0  0  0  0  0
    5.3278   -5.2023   -4.8297 C   0  0  0  0  0  0  0  0  0  0  0  0
    3.7335   -5.3420   -5.4917 S   0  0  0  0  0  0  0  0  0  0  0  0
    4.8933   -6.0666   -2.2921 H   0  0  0  0  0  0  0  0  0  0  0  0
    2.4071   -5.3175   -2.0761 H   0  0  0  0  0  0  0  0  0  0  0  0
    1.6943   -2.9725   -1.9205 H   0  0  0  0  0  0  0  0  0  0  0  0
   -0.2146   -2.3029   -3.2923 H   0  0  0  0  0  0  0  0  0  0  0  0
   -1.8045   -3.2852   -4.8336 H   0  0  0  0  0  0  0  0  0  0  0  0
   -3.5013   -2.9058   -5.2057 H   0  0  0  0  0  0  0  0  0  0  0  0
   -3.1916   -5.3603   -5.3343 H   0  0  0  0  0  0  0  0  0  0  0  0
   -4.1960   -4.9773   -3.9321 H   0  0  0  0  0  0  0  0  0  0  0  0
   -2.4905   -5.3819   -3.7097 H   0  0  0  0  0  0  0  0  0  0  0  0
   -0.9954   -4.8123    0.8691 H   0  0  0  0  0  0  0  0  0  0  0  0
    4.8933   -1.9986    3.3886 H   0  0  0  0  0  0  0  0  0  0  0  0
    6.9768   -1.7487    4.6753 H   0  0  0  0  0  0  0  0  0  0  0  0
   10.3319   -4.6744    6.7667 H   0  0  0  0  0  0  0  0  0  0  0  0
    9.6361   -5.7496    5.5397 H   0  0  0  0  0  0  0  0  0  0  0  0
    8.5037   -6.0513    7.7661 H   0  0  0  0  0  0  0  0  0  0  0  0
    8.0608   -4.3385    7.7658 H   0  0  0  0  0  0  0  0  0  0  0  0
    7.3660   -5.4341    6.5660 H   0  0  0  0  0  0  0  0  0  0  0  0
    5.9315   -6.0752    2.5793 H   0  0  0  0  0  0  0  0  0  0  0  0
    3.2138   -3.2351    4.7210 H   0  0  0  0  0  0  0  0  0  0  0  0
   -1.5714   -3.0659    4.9612 H   0  0  0  0  0  0  0  0  0  0  0  0
   -3.2774   -1.7526    6.8971 H   0  0  0  0  0  0  0  0  0  0  0  0
   -4.4032    0.2854    8.5553 H   0  0  0  0  0  0  0  0  0  0  0  0
   -0.7178    2.1446    9.8293 H   0  0  0  0  0  0  0  0  0  0  0  0
    1.0621    0.3547    8.3929 H   0  0  0  0  0  0  0  0  0  0  0  0
    2.1497   -1.3428    6.3116 H   0  0  0  0  0  0  0  0  0  0  0  0
   -5.6736    2.0543    9.5994 H   0  0  0  0  0  0  0  0  0  0  0  0
   -7.3588    4.2209    8.7713 H   0  0  0  0  0  0  0  0  0  0  0  0
   -8.0734    6.3409    6.9967 H   0  0  0  0  0  0  0  0  0  0  0  0
   -4.4867    8.7240    7.4036 H   0  0  0  0  0  0  0  0  0  0  0  0
   -3.0867    6.9012    9.1140 H   0  0  0  0  0  0  0  0  0  0  0  0
   -1.9975    4.3246    9.7464 H   0  0  0  0  0  0  0  0  0  0  0  0
   -8.3938    7.1870    4.7873 H   0  0  0  0  0  0  0  0  0  0  0  0
   -8.1874    6.7490    1.9617 H   0  0  0  0  0  0  0  0  0  0  0  0
   -6.8397    5.9439   -0.4538 H   0  0  0  0  0  0  0  0  0  0  0  0
   -3.4508    8.6095   -0.1730 H   0  0  0  0  0  0  0  0  0  0  0  0
   -4.1234    9.7220    2.3931 H   0  0  0  0  0  0  0  0  0  0  0  0
   -4.8107    9.5773    5.1692 H   0  0  0  0  0  0  0  0  0  0  0  0
   -2.3757    7.2403   -1.9626 H   0  0  0  0  0  0  0  0  0  0  0  0
   -0.3166    6.4769   -0.9751 H   0  0  0  0  0  0  0  0  0  0  0  0
    1.4895    8.1504   -0.9900 H   0  0  0  0  0  0  0  0  0  0  0  0
    4.4118    8.2500   -4.8919 H   0  0  0  0  0  0  0  0  0  0  0  0
    5.4698    9.0529   -3.7171 H   0  0  0  0  0  0  0  0  0  0  0  0
    5.2933    7.0725   -2.1966 H   0  0  0  0  0  0  0  0  0  0  0  0
    4.2613    6.2526   -3.3724 H   0  0  0  0  0  0  0  0  0  0  0  0
    5.9445    6.6002   -3.7712 H   0  0  0  0  0  0  0  0  0  0  0  0
    0.4674    5.6564   -5.1046 H   0  0  0  0  0  0  0  0  0  0  0  0
   -4.7272    2.1154   -0.9887 H   0  0  0  0  0  0  0  0  0  0  0  0
   -6.4357    0.3587   -0.9873 H   0  0  0  0  0  0  0  0  0  0  0  0
   -6.8932   -3.8148   -2.9482 H   0  0  0  0  0  0  0  0  0  0  0  0
   -5.5821   -2.8873   -3.6976 H   0  0  0  0  0  0  0  0  0  0  0  0
   -8.3567   -3.3787   -4.9173 H   0  0  0  0  0  0  0  0  0  0  0  0
   -7.0596   -2.4676   -5.6954 H   0  0  0  0  0  0  0  0  0  0  0  0
   -6.8717   -4.2007   -5.4157 H   0  0  0  0  0  0  0  0  0  0  0  0
   -3.6622    1.0216   -4.9911 H   0  0  0  0  0  0  0  0  0  0  0  0
   -1.6571    0.3626   -3.7015 H   0  0  0  0  0  0  0  0  0  0  0  0
    0.0226   -1.0944   -5.2720 H   0  0  0  0  0  0  0  0  0  0  0  0
    1.0152   -5.4614   -4.6482 H   0  0  0  0  0  0  0  0  0  0  0  0
   -0.7855   -6.5660   -5.9024 H   0  0  0  0  0  0  0  0  0  0  0  0
   -2.3487   -4.4724  -10.0432 H   0  0  0  0  0  0  0  0  0  0  0  0
   -2.9918   -6.1063  -10.2905 H   0  0  0  0  0  0  0  0  0  0  0  0
   -0.7785   -5.8722  -11.4235 H   0  0  0  0  0  0  0  0  0  0  0  0
   -0.0269   -5.4236   -9.8908 H   0  0  0  0  0  0  0  0  0  0  0  0
   -0.6809   -7.0502  -10.1071 H   0  0  0  0  0  0  0  0  0  0  0  0
    0.7860   -2.1288   -7.3299 H   0  0  0  0  0  0  0  0  0  0  0  0
    5.4894   -2.9897   -1.5678 H   0  0  0  0  0  0  0  0  0  0  0  0
    7.2913   -2.1158   -0.2038 H   0  0  0  0  0  0  0  0  0  0  0  0
    9.3918   -1.7509    0.2138 H   0  0  0  0  0  0  0  0  0  0  0  0
   10.4271   -0.5054    0.9281 H   0  0  0  0  0  0  0  0  0  0  0  0
    7.5600   -1.0888    1.8451 H   0  0  0  0  0  0  0  0  0  0  0  0
    9.0297   -1.5694    2.7004 H   0  0  0  0  0  0  0  0  0  0  0  0
    8.6337    0.1416    2.5114 H   0  0  0  0  0  0  0  0  0  0  0  0
    5.5253    0.5698   -3.9483 H   0  0  0  0  0  0  0  0  0  0  0  0
    6.4837   -3.7711   -3.7340 H   0  0  0  0  0  0  0  0  0  0  0  0
    6.0098   -6.0190   -4.9673 H   0  0  0  0  0  0  0  0  0  0  0  0
  1  2  2  0  0  0  0
  2  3  1  0  0  0  0
  3  4  2  0  0  0  0
  4  5  1  0  0  0  0
  5  6  2  0  0  0  0
  6  7  1  0  0  0  0
  7  8  2  0  0  0  0
  8  9  1  0  0  0  0
  9 10  1  0  0  0  0
 10 11  1  0  0  0  0
  8 12  1  0  0  0  0
 12 13  1  0  0  0  0
 12 14  2  0  0  0  0
  4 15  1  0  0  0  0
 15 16  2  0  0  0  0
 16 17  1  0  0  0  0
 17 18  1  0  0  0  0
 18 19  2  0  0  0  0
 19 20  1  0  0  0  0
 20 21  2  0  0  0  0
 21 22  1  0  0  0  0
 22 23  1  0  0  0  0
 23 24  1  0  0  0  0
 21 25  1  0  0  0  0
 25 26  2  0  0  0  0
 25 27  1  0  0  0  0
 17 28  2  0  0  0  0
 28 29  1  0  0  0  0
 16 30  1  0  0  0  0
 30 31  2  0  0  0  0
 31 32  1  0  0  0  0
 31 33  1  0  0  0  0
 33 34  2  0  0  0  0
 34 35  1  0  0  0  0
 35 36  2  0  0  0  0
 36 37  1  0  0  0  0
 37 38  2  0  0  0  0
 38 39  1  0  0  0  0
 39 40  2  0  0  0  0
 40 41  1  0  0  0  0
 41 42  2  0  0  0  0
 42 43  1  0  0  0  0
 43 44  2  0  0  0  0
 39 45  1  0  0  0  0
 45 46  2  0  0  0  0
 46 47  1  0  0  0  0
 47 48  2  0  0  0  0
 48 49  1  0  0  0  0
 49 50  2  0  0  0  0
 50 51  1  0  0  0  0
 51 52  2  0  0  0  0
 52 53  1  0  0  0  0
 53 54  2  0  0  0  0
 54 55  1  0  0  0  0
 55 56  2  0  0  0  0
 51 57  1  0  0  0  0
 57 58  2  0  0  0  0
 58 59  1  0  0  0  0
 59 60  2  0  0  0  0
 60 61  1  0  0  0  0
 61 62  2  0  0  0  0
 62 63  1  0  0  0  0
 63 64  2  0  0  0  0
 64 65  1  0  0  0  0
 65 66  2  0  0  0  0
 66 67  1  0  0  0  0
 67 68  2  0  0  0  0
 63 69  1  0  0  0  0
 69 70  2  0  0  0  0
 70 71  1  0  0  0  0
 71 72  2  0  0  0  0
 72 73  1  0  0  0  0
 73 74  2  0  0  0  0
 74 75  1  0  0  0  0
 75 76  2  0  0  0  0
 76 77  1  0  0  0  0
 77 78  1  0  0  0  0
 78 79  1  0  0  0  0
 76 80  1  0  0  0  0
 80 81  1  0  0  0  0
 80 82  2  0  0  0  0
 72 83  1  0  0  0  0
 83 84  2  0  0  0  0
 84 85  1  0  0  0  0
 85 86  1  0  0  0  0
 86 87  2  0  0  0  0
 87 88  1  0  0  0  0
 88 89  2  0  0  0  0
 89 90  1  0  0  0  0
 90 91  1  0  0  0  0
 91 92  1  0  0  0  0
 89 93  1  0  0  0  0
 93 94  2  0  0  0  0
 93 95  1  0  0  0  0
 85 96  2  0  0  0  0
 96 97  1  0  0  0  0
 84 98  1  0  0  0  0
 98 99  2  0  0  0  0
 99100  1  0  0  0  0
 99101  1  0  0  0  0
101102  2  0  0  0  0
102103  1  0  0  0  0
103104  2  0  0  0  0
104105  1  0  0  0  0
105106  2  0  0  0  0
106107  1  0  0  0  0
107108  2  0  0  0  0
108109  1  0  0  0  0
109110  1  0  0  0  0
110111  1  0  0  0  0
108112  1  0  0  0  0
112113  1  0  0  0  0
112114  2  0  0  0  0
104115  1  0  0  0  0
115116  2  0  0  0  0
116117  1  0  0  0  0
117118  1  0  0  0  0
118119  2  0  0  0  0
119120  1  0  0  0  0
120121  2  0  0  0  0
121122  1  0  0  0  0
122123  1  0  0  0  0
123124  1  0  0  0  0
121125  1  0  0  0  0
125126  2  0  0  0  0
125127  1  0  0  0  0
117128  2  0  0  0  0
128129  1  0  0  0  0
116130  1  0  0  0  0
130131  2  0  0  0  0
131132  1  0  0  0  0
 29  1  1  0  0  0  0
 44 33  1  0  0  0  0
 56 45  1  0  0  0  0
 68 57  1  0  0  0  0
 97 69  1  0  0  0  0
129101  1  0  0  0  0
 28  3  1  0  0  0  0
 43 35  1  0  0  0  0
 55 47  1  0  0  0  0
 67 59  1  0  0  0  0
 96 71  1  0  0  0  0
128103  1  0  0  0  0
 14  5  1  0  0  0  0
 32 15  1  0  0  0  0
 41 37  1  0  0  0  0
 53 49  1  0  0  0  0
 65 61  1  0  0  0  0
 82 73  1  0  0  0  0
100 83  1  0  0  0  0
114105  1  0  0  0  0
132115  1  0  0  0  0
 26 18  1  0  0  0  0
 94 86  1  0  0  0  0
126118  1  0  0  0  0
  1133  1  0  0  0  0
  2134  1  0  0  0  0
  6135  1  0  0  0  0
  7136  1  0  0  0  0
 10137  1  0  0  0  0
 10138  1  0  0  0  0
 11139  1  0  0  0  0
 11140  1  0  0  0  0
 11141  1  0  0  0  0
 14142  1  0  0  0  0
 19143  1  0  0  0  0
 20144  1  0  0  0  0
 23145  1  0  0  0  0
 23146  1  0  0  0  0
 24147  1  0  0  0  0
 24148  1  0  0  0  0
 24149  1  0  0  0  0
 26150  1  0  0  0  0
 30151  1  0  0  0  0
 34152  1  0  0  0  0
 36153  1  0  0  0  0
 38154  1  0  0  0  0
 40155  1  0  0  0  0
 42156  1  0  0  0  0
 44157  1  0  0  0  0
 46158  1  0  0  0  0
 48159  1  0  0  0  0
 50160  1  0  0  0  0
 52161  1  0  0  0  0
 54162  1  0  0  0  0
 56163  1  0  0  0  0
 58164  1  0  0  0  0
 60165  1  0  0  0  0
 62166  1  0  0  0  0
 64167  1  0  0  0  0
 66168  1  0  0  0  0
 68169  1  0  0  0  0
 70170  1  0  0  0  0
 74171  1  0  0  0  0
 75172  1  0  0  0  0
 78173  1  0  0  0  0
 78174  1  0  0  0  0
 79175  1  0  0  0  0
 79176  1  0  0  0  0
 79177  1  0  0  0  0
 82178  1  0  0  0  0
 87179  1  0  0  0  0
 88180  1  0  0  0  0
 91181  1  0  0  0  0
 91182  1  0  0  0  0
 92183  1  0  0  0  0
 92184  1  0  0  0  0
 92185  1  0  0  0  0
 94186  1  0  0  0  0
 98187  1  0  0  0  0
102188  1  0  0  0  0
106189  1  0  0  0  0
107190  1  0  0  0  0
110191  1  0  0  0  0
110192  1  0  0  0  0
111193  1  0  0  0  0
111194  1  0  0  0  0
111195  1  0  0  0  0
114196  1  0  0  0  0
119197  1  0  0  0  0
120198  1  0  0  0  0
123199  1  0  0  0  0
123200  1  0  0  0  0
124201  1  0  0  0  0
124202  1  0  0  0  0
124203  1  0  0  0  0
126204  1  0  0  0  0
130205  1  0  0  0  0
131206  1  0  0  0  0
M  END
