
  xtb     03012215183D
 energy: -427.879448552239 gnorm: 0.000309086052 xtb: 6.4.1 (unknown)
218243  0     0  0            999 V2000
    3.3721   -4.5351    5.6149 C   0  0  0  0  0  0  0  0  0  0  0  0
    3.7370   -3.2388    5.5411 C   0  0  0  0  0  0  0  0  0  0  0  0
    2.8252   -2.4469    4.7841 C   0  0  0  0  0  0  0  0  0  0  0  0
    2.8998   -1.0721    4.4962 C   0  0  0  0  0  0  0  0  0  0  0  0
    4.0698   -0.2814    4.8355 C   0  0  0  0  0  0  0  0  0  0  0  0
    3.9117    1.2820    5.5821 S   0  0  0  0  0  0  0  0  0  0  0  0
    5.6196    1.5616    5.5454 C   0  0  0  0  0  0  0  0  0  0  0  0
    6.2126    2.7988    6.1228 C   0  0  0  0  0  0  0  0  0  0  0  0
    6.4569    2.6390    7.6253 C   0  0  0  0  0  0  0  0  0  0  0  0
    6.2609    0.4935    4.9928 C   0  0  0  0  0  0  0  0  0  0  0  0
    7.9588    0.4085    4.7694 Cl  0  0  0  0  0  0  0  0  0  0  0  0
    5.3891   -0.5529    4.5869 C   0  0  0  0  0  0  0  0  0  0  0  0
    5.9726   -1.9615    3.7947 Cl  0  0  0  0  0  0  0  0  0  0  0  0
    1.8207   -0.5116    3.8216 C   0  0  0  0  0  0  0  0  0  0  0  0
    0.7353   -1.2900    3.3588 C   0  0  0  0  0  0  0  0  0  0  0  0
    0.6694   -2.6721    3.6129 C   0  0  0  0  0  0  0  0  0  0  0  0
   -0.4874   -3.4325    3.1657 C   0  0  0  0  0  0  0  0  0  0  0  0
   -1.0664   -3.2995    1.5294 S   0  0  0  0  0  0  0  0  0  0  0  0
   -2.4620   -4.2669    1.8454 C   0  0  0  0  0  0  0  0  0  0  0  0
   -3.4984   -4.4931    0.7997 C   0  0  0  0  0  0  0  0  0  0  0  0
   -3.1956   -5.7123   -0.0703 C   0  0  0  0  0  0  0  0  0  0  0  0
   -2.4445   -4.7014    3.1370 C   0  0  0  0  0  0  0  0  0  0  0  0
   -1.3334   -4.2291    3.8888 C   0  0  0  0  0  0  0  0  0  0  0  0
   -1.1743   -4.5493    5.5641 Cl  0  0  0  0  0  0  0  0  0  0  0  0
   -3.6634   -5.6930    3.8227 Cl  0  0  0  0  0  0  0  0  0  0  0  0
    1.7246   -3.2187    4.3319 C   0  0  0  0  0  0  0  0  0  0  0  0
    1.9010   -4.8895    4.7829 S   0  0  0  0  0  0  0  0  0  0  0  0
   -0.1942   -0.5096    2.6381 C   0  0  0  0  0  0  0  0  0  0  0  0
    0.1541    0.8001    2.5006 C   0  0  0  0  0  0  0  0  0  0  0  0
    1.6351    1.1663    3.3565 S   0  0  0  0  0  0  0  0  0  0  0  0
   -0.6041    1.7198    1.7129 C   0  0  0  0  0  0  0  0  0  0  0  0
   -0.3744    2.9971    1.2994 C   0  0  0  0  0  0  0  0  0  0  0  0
   -1.3991    3.5119    0.4549 C   0  0  0  0  0  0  0  0  0  0  0  0
   -1.5048    4.7855   -0.1375 C   0  0  0  0  0  0  0  0  0  0  0  0
   -0.5520    5.8374    0.1700 C   0  0  0  0  0  0  0  0  0  0  0  0
    0.2426    6.7593   -1.0715 S   0  0  0  0  0  0  0  0  0  0  0  0
    1.0886    7.7333    0.0824 C   0  0  0  0  0  0  0  0  0  0  0  0
    2.0267    8.8109   -0.3424 C   0  0  0  0  0  0  0  0  0  0  0  0
    3.4825    8.4630   -0.0239 C   0  0  0  0  0  0  0  0  0  0  0  0
    0.7611    7.3555    1.3512 C   0  0  0  0  0  0  0  0  0  0  0  0
    1.3718    8.1122    2.7646 Cl  0  0  0  0  0  0  0  0  0  0  0  0
   -0.1652    6.2813    1.4057 C   0  0  0  0  0  0  0  0  0  0  0  0
   -0.7934    5.6835    2.8876 Cl  0  0  0  0  0  0  0  0  0  0  0  0
   -2.5710    4.9920   -1.0087 C   0  0  0  0  0  0  0  0  0  0  0  0
   -3.5668    4.0156   -1.2478 C   0  0  0  0  0  0  0  0  0  0  0  0
   -3.5264    2.7834   -0.5788 C   0  0  0  0  0  0  0  0  0  0  0  0
   -4.6008    1.8129   -0.6658 C   0  0  0  0  0  0  0  0  0  0  0  0
   -4.2754    0.1082   -0.7928 S   0  0  0  0  0  0  0  0  0  0  0  0
   -5.9498   -0.3058   -0.6951 C   0  0  0  0  0  0  0  0  0  0  0  0
   -6.3960   -1.7250   -0.6488 C   0  0  0  0  0  0  0  0  0  0  0  0
   -6.5550   -2.1905    0.8010 C   0  0  0  0  0  0  0  0  0  0  0  0
   -6.7082    0.8204   -0.5794 C   0  0  0  0  0  0  0  0  0  0  0  0
   -5.9512    2.0217   -0.5574 C   0  0  0  0  0  0  0  0  0  0  0  0
   -6.6881    3.5477   -0.2848 Cl  0  0  0  0  0  0  0  0  0  0  0  0
   -8.4193    0.8057   -0.4585 Cl  0  0  0  0  0  0  0  0  0  0  0  0
   -2.4116    2.5526    0.2169 C   0  0  0  0  0  0  0  0  0  0  0  0
   -2.1034    1.0769    1.0647 S   0  0  0  0  0  0  0  0  0  0  0  0
   -4.4891    4.4303   -2.2385 C   0  0  0  0  0  0  0  0  0  0  0  0
   -4.2509    5.6765   -2.7229 C   0  0  0  0  0  0  0  0  0  0  0  0
   -2.8814    6.4380   -1.9361 S   0  0  0  0  0  0  0  0  0  0  0  0
   -4.8877    6.2004   -3.9107 C   0  0  0  0  0  0  0  0  0  0  0  0
   -4.8951    5.5126   -5.0961 C   0  0  0  0  0  0  0  0  0  0  0  0
   -5.6151    6.1817   -6.1296 C   0  0  0  0  0  0  0  0  0  0  0  0
   -6.1776    7.4046   -5.6826 C   0  0  0  0  0  0  0  0  0  0  0  0
   -5.7754    7.6886   -3.9945 S   0  0  0  0  0  0  0  0  0  0  0  0
   -6.9136    8.2111   -6.5386 C   0  0  0  0  0  0  0  0  0  0  0  0
   -7.5189    9.4012   -6.2816 O   0  0  0  0  0  0  0  0  0  0  0  0
   -7.4478    9.9740   -4.9983 C   0  0  0  0  0  0  0  0  0  0  0  0
   -7.0643    7.7498   -7.8583 C   0  0  0  0  0  0  0  0  0  0  0  0
   -6.4877    6.5388   -8.3080 C   0  0  0  0  0  0  0  0  0  0  0  0
   -5.7437    5.7324   -7.4553 C   0  0  0  0  0  0  0  0  0  0  0  0
   -5.1172    4.5600   -7.7284 O   0  0  0  0  0  0  0  0  0  0  0  0
   -5.0380    4.0923   -9.0533 C   0  0  0  0  0  0  0  0  0  0  0  0
   -6.8791    6.2858   -9.9987 S   0  0  0  0  0  0  0  0  0  0  0  0
   -7.7723    7.7646  -10.0605 C   0  0  0  0  0  0  0  0  0  0  0  0
   -7.7878    8.4229   -8.8870 C   0  0  0  0  0  0  0  0  0  0  0  0
   -4.0996    4.2913   -5.1666 C   0  0  0  0  0  0  0  0  0  0  0  0
   -4.4604    2.9863   -5.1151 C   0  0  0  0  0  0  0  0  0  0  0  0
   -3.3871    2.1158   -4.7632 C   0  0  0  0  0  0  0  0  0  0  0  0
   -3.4304    0.7377   -4.4742 C   0  0  0  0  0  0  0  0  0  0  0  0
   -4.5787   -0.0591   -4.8585 C   0  0  0  0  0  0  0  0  0  0  0  0
   -5.2919   -1.2372   -3.8016 S   0  0  0  0  0  0  0  0  0  0  0  0
   -6.4821   -1.6936   -4.9729 C   0  0  0  0  0  0  0  0  0  0  0  0
   -7.4831   -2.7528   -4.6697 C   0  0  0  0  0  0  0  0  0  0  0  0
   -6.8094   -4.1057   -4.4392 C   0  0  0  0  0  0  0  0  0  0  0  0
   -6.3132   -0.9772   -6.1197 C   0  0  0  0  0  0  0  0  0  0  0  0
   -7.2895   -1.1549   -7.5203 Cl  0  0  0  0  0  0  0  0  0  0  0  0
   -5.2380   -0.0506   -6.0595 C   0  0  0  0  0  0  0  0  0  0  0  0
   -4.7765    0.8979   -7.4087 Cl  0  0  0  0  0  0  0  0  0  0  0  0
   -2.3241    0.1957   -3.8237 C   0  0  0  0  0  0  0  0  0  0  0  0
   -1.1535    0.9442   -3.5485 C   0  0  0  0  0  0  0  0  0  0  0  0
   -1.0528    2.2781   -3.9741 C   0  0  0  0  0  0  0  0  0  0  0  0
    0.1377    3.0883   -3.7967 C   0  0  0  0  0  0  0  0  0  0  0  0
    0.9378    3.2651   -2.2608 S   0  0  0  0  0  0  0  0  0  0  0  0
    2.0635    4.4188   -2.8914 C   0  0  0  0  0  0  0  0  0  0  0  0
    3.1397    5.0188   -2.0566 C   0  0  0  0  0  0  0  0  0  0  0  0
    4.5110    4.4454   -2.4228 C   0  0  0  0  0  0  0  0  0  0  0  0
    1.8287    4.6347   -4.2157 C   0  0  0  0  0  0  0  0  0  0  0  0
    0.7430    3.8828   -4.7332 C   0  0  0  0  0  0  0  0  0  0  0  0
    0.3243    3.9150   -6.3931 Cl  0  0  0  0  0  0  0  0  0  0  0  0
    2.7306    5.7293   -5.1769 Cl  0  0  0  0  0  0  0  0  0  0  0  0
   -2.1886    2.8338   -4.5474 C   0  0  0  0  0  0  0  0  0  0  0  0
   -2.3834    4.5171   -4.9096 S   0  0  0  0  0  0  0  0  0  0  0  0
   -0.1788    0.1834   -2.8652 C   0  0  0  0  0  0  0  0  0  0  0  0
   -0.5623   -1.1016   -2.6118 C   0  0  0  0  0  0  0  0  0  0  0  0
   -2.1586   -1.4417   -3.2457 S   0  0  0  0  0  0  0  0  0  0  0  0
    0.2004   -2.0630   -1.8808 C   0  0  0  0  0  0  0  0  0  0  0  0
    1.3578   -1.8007   -1.2059 C   0  0  0  0  0  0  0  0  0  0  0  0
    1.8746   -2.9110   -0.5012 C   0  0  0  0  0  0  0  0  0  0  0  0
    3.0071   -2.9526    0.3327 C   0  0  0  0  0  0  0  0  0  0  0  0
    3.8475   -1.7903    0.5568 C   0  0  0  0  0  0  0  0  0  0  0  0
    3.1359   -0.2635    0.9798 S   0  0  0  0  0  0  0  0  0  0  0  0
    4.6730    0.4840    1.2439 C   0  0  0  0  0  0  0  0  0  0  0  0
    4.7752    1.8907    1.7198 C   0  0  0  0  0  0  0  0  0  0  0  0
    3.8765    2.8289    0.9204 C   0  0  0  0  0  0  0  0  0  0  0  0
    5.6730   -0.3985    0.9655 C   0  0  0  0  0  0  0  0  0  0  0  0
    7.3411   -0.0213    1.0901 Cl  0  0  0  0  0  0  0  0  0  0  0  0
    5.2124   -1.6867    0.5777 C   0  0  0  0  0  0  0  0  0  0  0  0
    6.2950   -2.9260    0.1012 Cl  0  0  0  0  0  0  0  0  0  0  0  0
    3.2522   -4.1503    0.9904 C   0  0  0  0  0  0  0  0  0  0  0  0
    2.4596   -5.3124    0.8136 C   0  0  0  0  0  0  0  0  0  0  0  0
    1.3438   -5.2727   -0.0422 C   0  0  0  0  0  0  0  0  0  0  0  0
    0.4873   -6.4353   -0.2019 C   0  0  0  0  0  0  0  0  0  0  0  0
    0.0975   -7.0560   -1.7789 S   0  0  0  0  0  0  0  0  0  0  0  0
   -0.8584   -8.3409   -1.1230 C   0  0  0  0  0  0  0  0  0  0  0  0
   -1.5787   -9.2959   -2.0090 C   0  0  0  0  0  0  0  0  0  0  0  0
   -2.9299   -8.7238   -2.4439 C   0  0  0  0  0  0  0  0  0  0  0  0
   -0.8758   -8.2697    0.2379 C   0  0  0  0  0  0  0  0  0  0  0  0
   -0.1100   -7.1955    0.7660 C   0  0  0  0  0  0  0  0  0  0  0  0
   -0.0389   -6.8613    2.4517 Cl  0  0  0  0  0  0  0  0  0  0  0  0
   -1.7428   -9.3581    1.2430 Cl  0  0  0  0  0  0  0  0  0  0  0  0
    1.0820   -4.0697   -0.6857 C   0  0  0  0  0  0  0  0  0  0  0  0
   -0.2829   -3.7355   -1.7190 S   0  0  0  0  0  0  0  0  0  0  0  0
    2.9329   -6.3970    1.5918 C   0  0  0  0  0  0  0  0  0  0  0  0
    3.9911   -6.0700    2.3892 C   0  0  0  0  0  0  0  0  0  0  0  0
    4.4922   -4.4110    2.1736 S   0  0  0  0  0  0  0  0  0  0  0  0
    4.6764   -6.8787    3.3433 C   0  0  0  0  0  0  0  0  0  0  0  0
    4.4015   -8.1497    3.7464 C   0  0  0  0  0  0  0  0  0  0  0  0
    5.2800   -8.6328    4.7483 C   0  0  0  0  0  0  0  0  0  0  0  0
    6.2612   -7.6798    5.1249 C   0  0  0  0  0  0  0  0  0  0  0  0
    6.0528   -6.2090    4.1928 S   0  0  0  0  0  0  0  0  0  0  0  0
    7.2075   -7.9651    6.0971 C   0  0  0  0  0  0  0  0  0  0  0  0
    8.2016   -7.1699    6.5775 O   0  0  0  0  0  0  0  0  0  0  0  0
    8.3627   -5.8624    6.0825 C   0  0  0  0  0  0  0  0  0  0  0  0
    7.1432   -9.2450    6.6761 C   0  0  0  0  0  0  0  0  0  0  0  0
    6.1673  -10.1993    6.2995 C   0  0  0  0  0  0  0  0  0  0  0  0
    5.2150   -9.9130    5.3312 C   0  0  0  0  0  0  0  0  0  0  0  0
    4.2159  -10.7019    4.8564 O   0  0  0  0  0  0  0  0  0  0  0  0
    4.0431  -12.0060    5.3559 C   0  0  0  0  0  0  0  0  0  0  0  0
    6.3939  -11.6749    7.2232 S   0  0  0  0  0  0  0  0  0  0  0  0
    7.7453  -10.9974    8.0618 C   0  0  0  0  0  0  0  0  0  0  0  0
    8.0244   -9.7364    7.6838 C   0  0  0  0  0  0  0  0  0  0  0  0
    3.8733   -5.3333    6.1268 H   0  0  0  0  0  0  0  0  0  0  0  0
    4.6094   -2.8401    6.0240 H   0  0  0  0  0  0  0  0  0  0  0  0
    7.1595    3.0006    5.6186 H   0  0  0  0  0  0  0  0  0  0  0  0
    5.5364    3.6380    5.9521 H   0  0  0  0  0  0  0  0  0  0  0  0
    5.5203    2.4378    8.1399 H   0  0  0  0  0  0  0  0  0  0  0  0
    7.1401    1.8140    7.8099 H   0  0  0  0  0  0  0  0  0  0  0  0
    6.8906    3.5484    8.0319 H   0  0  0  0  0  0  0  0  0  0  0  0
   -4.4585   -4.6363    1.2998 H   0  0  0  0  0  0  0  0  0  0  0  0
   -3.5568   -3.6062    0.1657 H   0  0  0  0  0  0  0  0  0  0  0  0
   -2.2619   -5.5683   -0.6072 H   0  0  0  0  0  0  0  0  0  0  0  0
   -3.9926   -5.8563   -0.7947 H   0  0  0  0  0  0  0  0  0  0  0  0
   -3.1160   -6.6042    0.5447 H   0  0  0  0  0  0  0  0  0  0  0  0
   -1.0960   -0.9031    2.2094 H   0  0  0  0  0  0  0  0  0  0  0  0
    0.5055    3.5502    1.5731 H   0  0  0  0  0  0  0  0  0  0  0  0
    1.9112    8.9779   -1.4141 H   0  0  0  0  0  0  0  0  0  0  0  0
    1.7614    9.7332    0.1809 H   0  0  0  0  0  0  0  0  0  0  0  0
    3.6109    8.3153    1.0445 H   0  0  0  0  0  0  0  0  0  0  0  0
    4.1329    9.2730   -0.3429 H   0  0  0  0  0  0  0  0  0  0  0  0
    3.7815    7.5533   -0.5375 H   0  0  0  0  0  0  0  0  0  0  0  0
   -7.3533   -1.8134   -1.1652 H   0  0  0  0  0  0  0  0  0  0  0  0
   -5.6613   -2.3486   -1.1589 H   0  0  0  0  0  0  0  0  0  0  0  0
   -5.6128   -2.0933    1.3345 H   0  0  0  0  0  0  0  0  0  0  0  0
   -7.3045   -1.5896    1.3090 H   0  0  0  0  0  0  0  0  0  0  0  0
   -6.8682   -3.2306    0.8265 H   0  0  0  0  0  0  0  0  0  0  0  0
   -5.2784    3.8043   -2.6107 H   0  0  0  0  0  0  0  0  0  0  0  0
   -6.4179   10.2039   -4.7126 H   0  0  0  0  0  0  0  0  0  0  0  0
   -7.9022    9.3303   -4.2405 H   0  0  0  0  0  0  0  0  0  0  0  0
   -8.0155   10.9011   -5.0677 H   0  0  0  0  0  0  0  0  0  0  0  0
   -4.3988    3.2119   -9.0079 H   0  0  0  0  0  0  0  0  0  0  0  0
   -4.5834    4.8315   -9.7175 H   0  0  0  0  0  0  0  0  0  0  0  0
   -6.0187    3.8048   -9.4417 H   0  0  0  0  0  0  0  0  0  0  0  0
   -8.2317    8.0422  -10.9886 H   0  0  0  0  0  0  0  0  0  0  0  0
   -8.2864    9.3587   -8.7178 H   0  0  0  0  0  0  0  0  0  0  0  0
   -5.4761    2.6567   -5.2386 H   0  0  0  0  0  0  0  0  0  0  0  0
   -8.0456   -2.4736   -3.7752 H   0  0  0  0  0  0  0  0  0  0  0  0
   -8.1799   -2.8199   -5.5065 H   0  0  0  0  0  0  0  0  0  0  0  0
   -6.2640   -4.4118   -5.3283 H   0  0  0  0  0  0  0  0  0  0  0  0
   -7.5563   -4.8614   -4.2118 H   0  0  0  0  0  0  0  0  0  0  0  0
   -6.1096   -4.0412   -3.6094 H   0  0  0  0  0  0  0  0  0  0  0  0
    3.1470    6.0972   -2.2311 H   0  0  0  0  0  0  0  0  0  0  0  0
    2.9220    4.8340   -1.0043 H   0  0  0  0  0  0  0  0  0  0  0  0
    4.7628    4.6991   -3.4484 H   0  0  0  0  0  0  0  0  0  0  0  0
    4.5104    3.3620   -2.3303 H   0  0  0  0  0  0  0  0  0  0  0  0
    5.2749    4.8531   -1.7660 H   0  0  0  0  0  0  0  0  0  0  0  0
    0.7728    0.5845   -2.5730 H   0  0  0  0  0  0  0  0  0  0  0  0
    1.8165   -0.8309   -1.1912 H   0  0  0  0  0  0  0  0  0  0  0  0
    5.8179    2.2038    1.6442 H   0  0  0  0  0  0  0  0  0  0  0  0
    4.4837    1.9344    2.7734 H   0  0  0  0  0  0  0  0  0  0  0  0
    4.1438    2.7954   -0.1311 H   0  0  0  0  0  0  0  0  0  0  0  0
    3.9872    3.8478    1.2820 H   0  0  0  0  0  0  0  0  0  0  0  0
    2.8359    2.5302    1.0227 H   0  0  0  0  0  0  0  0  0  0  0  0
   -1.7344  -10.2298   -1.4660 H   0  0  0  0  0  0  0  0  0  0  0  0
   -0.9703   -9.5004   -2.8914 H   0  0  0  0  0  0  0  0  0  0  0  0
   -2.7881   -7.7843   -2.9723 H   0  0  0  0  0  0  0  0  0  0  0  0
   -3.5582   -8.5433   -1.5758 H   0  0  0  0  0  0  0  0  0  0  0  0
   -3.4361   -9.4244   -3.1024 H   0  0  0  0  0  0  0  0  0  0  0  0
    2.5106   -7.3831    1.5591 H   0  0  0  0  0  0  0  0  0  0  0  0
    3.5943   -8.7422    3.3594 H   0  0  0  0  0  0  0  0  0  0  0  0
    8.5903   -5.8575    5.0134 H   0  0  0  0  0  0  0  0  0  0  0  0
    9.2093   -5.4507    6.6306 H   0  0  0  0  0  0  0  0  0  0  0  0
    7.4794   -5.2454    6.2688 H   0  0  0  0  0  0  0  0  0  0  0  0
    4.9174  -12.6332    5.1627 H   0  0  0  0  0  0  0  0  0  0  0  0
    3.8258  -12.0046    6.4272 H   0  0  0  0  0  0  0  0  0  0  0  0
    3.1863  -12.4078    4.8164 H   0  0  0  0  0  0  0  0  0  0  0  0
    8.2447  -11.6026    8.7924 H   0  0  0  0  0  0  0  0  0  0  0  0
    8.8241   -9.1418    8.0840 H   0  0  0  0  0  0  0  0  0  0  0  0
  1  2  2  0  0  0  0
  2  3  1  0  0  0  0
  3  4  2  0  0  0  0
  4  5  1  0  0  0  0
  5  6  1  0  0  0  0
  6  7  1  0  0  0  0
  7  8  1  0  0  0  0
  8  9  1  0  0  0  0
  7 10  2  0  0  0  0
 10 11  1  0  0  0  0
 10 12  1  0  0  0  0
 12 13  1  0  0  0  0
  4 14  1  0  0  0  0
 14 15  2  0  0  0  0
 15 16  1  0  0  0  0
 16 17  1  0  0  0  0
 17 18  1  0  0  0  0
 18 19  1  0  0  0  0
 19 20  1  0  0  0  0
 20 21  1  0  0  0  0
 19 22  2  0  0  0  0
 22 23  1  0  0  0  0
 23 24  1  0  0  0  0
 22 25  1  0  0  0  0
 16 26  2  0  0  0  0
 26 27  1  0  0  0  0
 15 28  1  0  0  0  0
 28 29  2  0  0  0  0
 29 30  1  0  0  0  0
 29 31  1  0  0  0  0
 31 32  2  0  0  0  0
 32 33  1  0  0  0  0
 33 34  2  0  0  0  0
 34 35  1  0  0  0  0
 35 36  1  0  0  0  0
 36 37  1  0  0  0  0
 37 38  1  0  0  0  0
 38 39  1  0  0  0  0
 37 40  2  0  0  0  0
 40 41  1  0  0  0  0
 40 42  1  0  0  0  0
 42 43  1  0  0  0  0
 34 44  1  0  0  0  0
 44 45  2  0  0  0  0
 45 46  1  0  0  0  0
 46 47  1  0  0  0  0
 47 48  1  0  0  0  0
 48 49  1  0  0  0  0
 49 50  1  0  0  0  0
 50 51  1  0  0  0  0
 49 52  2  0  0  0  0
 52 53  1  0  0  0  0
 53 54  1  0  0  0  0
 52 55  1  0  0  0  0
 46 56  2  0  0  0  0
 56 57  1  0  0  0  0
 45 58  1  0  0  0  0
 58 59  2  0  0  0  0
 59 60  1  0  0  0  0
 59 61  1  0  0  0  0
 61 62  2  0  0  0  0
 62 63  1  0  0  0  0
 63 64  2  0  0  0  0
 64 65  1  0  0  0  0
 64 66  1  0  0  0  0
 66 67  1  0  0  0  0
 67 68  1  0  0  0  0
 66 69  2  0  0  0  0
 69 70  1  0  0  0  0
 70 71  2  0  0  0  0
 71 72  1  0  0  0  0
 72 73  1  0  0  0  0
 70 74  1  0  0  0  0
 74 75  1  0  0  0  0
 75 76  2  0  0  0  0
 62 77  1  0  0  0  0
 77 78  2  0  0  0  0
 78 79  1  0  0  0  0
 79 80  2  0  0  0  0
 80 81  1  0  0  0  0
 81 82  1  0  0  0  0
 82 83  1  0  0  0  0
 83 84  1  0  0  0  0
 84 85  1  0  0  0  0
 83 86  2  0  0  0  0
 86 87  1  0  0  0  0
 86 88  1  0  0  0  0
 88 89  1  0  0  0  0
 80 90  1  0  0  0  0
 90 91  2  0  0  0  0
 91 92  1  0  0  0  0
 92 93  1  0  0  0  0
 93 94  1  0  0  0  0
 94 95  1  0  0  0  0
 95 96  1  0  0  0  0
 96 97  1  0  0  0  0
 95 98  2  0  0  0  0
 98 99  1  0  0  0  0
 99100  1  0  0  0  0
 98101  1  0  0  0  0
 92102  2  0  0  0  0
102103  1  0  0  0  0
 91104  1  0  0  0  0
104105  2  0  0  0  0
105106  1  0  0  0  0
105107  1  0  0  0  0
107108  2  0  0  0  0
108109  1  0  0  0  0
109110  2  0  0  0  0
110111  1  0  0  0  0
111112  1  0  0  0  0
112113  1  0  0  0  0
113114  1  0  0  0  0
114115  1  0  0  0  0
113116  2  0  0  0  0
116117  1  0  0  0  0
116118  1  0  0  0  0
118119  1  0  0  0  0
110120  1  0  0  0  0
120121  2  0  0  0  0
121122  1  0  0  0  0
122123  1  0  0  0  0
123124  1  0  0  0  0
124125  1  0  0  0  0
125126  1  0  0  0  0
126127  1  0  0  0  0
125128  2  0  0  0  0
128129  1  0  0  0  0
129130  1  0  0  0  0
128131  1  0  0  0  0
122132  2  0  0  0  0
132133  1  0  0  0  0
121134  1  0  0  0  0
134135  2  0  0  0  0
135136  1  0  0  0  0
135137  1  0  0  0  0
137138  2  0  0  0  0
138139  1  0  0  0  0
139140  2  0  0  0  0
140141  1  0  0  0  0
140142  1  0  0  0  0
142143  1  0  0  0  0
143144  1  0  0  0  0
142145  2  0  0  0  0
145146  1  0  0  0  0
146147  2  0  0  0  0
147148  1  0  0  0  0
148149  1  0  0  0  0
146150  1  0  0  0  0
150151  1  0  0  0  0
151152  2  0  0  0  0
 27  1  1  0  0  0  0
 57 31  1  0  0  0  0
 65 61  1  0  0  0  0
 76 69  1  0  0  0  0
103 77  1  0  0  0  0
133107  1  0  0  0  0
141137  1  0  0  0  0
152145  1  0  0  0  0
 26  3  1  0  0  0  0
 56 33  1  0  0  0  0
 71 63  1  0  0  0  0
102 79  1  0  0  0  0
132109  1  0  0  0  0
147139  1  0  0  0  0
 12  5  2  0  0  0  0
 30 14  1  0  0  0  0
 42 35  2  0  0  0  0
 60 44  1  0  0  0  0
 88 81  2  0  0  0  0
106 90  1  0  0  0  0
118111  2  0  0  0  0
136120  1  0  0  0  0
 23 17  2  0  0  0  0
 53 47  2  0  0  0  0
 99 93  2  0  0  0  0
129123  2  0  0  0  0
  1153  1  0  0  0  0
  2154  1  0  0  0  0
  8155  1  0  0  0  0
  8156  1  0  0  0  0
  9157  1  0  0  0  0
  9158  1  0  0  0  0
  9159  1  0  0  0  0
 20160  1  0  0  0  0
 20161  1  0  0  0  0
 21162  1  0  0  0  0
 21163  1  0  0  0  0
 21164  1  0  0  0  0
 28165  1  0  0  0  0
 32166  1  0  0  0  0
 38167  1  0  0  0  0
 38168  1  0  0  0  0
 39169  1  0  0  0  0
 39170  1  0  0  0  0
 39171  1  0  0  0  0
 50172  1  0  0  0  0
 50173  1  0  0  0  0
 51174  1  0  0  0  0
 51175  1  0  0  0  0
 51176  1  0  0  0  0
 58177  1  0  0  0  0
 68178  1  0  0  0  0
 68179  1  0  0  0  0
 68180  1  0  0  0  0
 73181  1  0  0  0  0
 73182  1  0  0  0  0
 73183  1  0  0  0  0
 75184  1  0  0  0  0
 76185  1  0  0  0  0
 78186  1  0  0  0  0
 84187  1  0  0  0  0
 84188  1  0  0  0  0
 85189  1  0  0  0  0
 85190  1  0  0  0  0
 85191  1  0  0  0  0
 96192  1  0  0  0  0
 96193  1  0  0  0  0
 97194  1  0  0  0  0
 97195  1  0  0  0  0
 97196  1  0  0  0  0
104197  1  0  0  0  0
108198  1  0  0  0  0
114199  1  0  0  0  0
114200  1  0  0  0  0
115201  1  0  0  0  0
115202  1  0  0  0  0
115203  1  0  0  0  0
126204  1  0  0  0  0
126205  1  0  0  0  0
127206  1  0  0  0  0
127207  1  0  0  0  0
127208  1  0  0  0  0
134209  1  0  0  0  0
138210  1  0  0  0  0
144211  1  0  0  0  0
144212  1  0  0  0  0
144213  1  0  0  0  0
149214  1  0  0  0  0
149215  1  0  0  0  0
149216  1  0  0  0  0
151217  1  0  0  0  0
152218  1  0  0  0  0
M  END
