218

C          3.37210       -4.53510        5.61490
C          3.73700       -3.23880        5.54110
C          2.82520       -2.44690        4.78410
C          2.89980       -1.07210        4.49620
C          4.06980       -0.28140        4.83550
S          3.91170        1.28200        5.58210
C          5.61960        1.56160        5.54540
C          6.21260        2.79880        6.12280
C          6.45690        2.63900        7.62530
C          6.26090        0.49350        4.99280
Cl         7.95880        0.40850        4.76940
C          5.38910       -0.55290        4.58690
Cl         5.97260       -1.96150        3.79470
C          1.82070       -0.51160        3.82160
C          0.73530       -1.29000        3.35880
C          0.66940       -2.67210        3.61290
C         -0.48740       -3.43250        3.16570
S         -1.06640       -3.29950        1.52940
C         -2.46200       -4.26690        1.84540
C         -3.49840       -4.49310        0.79970
C         -3.19560       -5.71230       -0.07030
C         -2.44450       -4.70140        3.13700
C         -1.33340       -4.22910        3.88880
Cl        -1.17430       -4.54930        5.56410
Cl        -3.66340       -5.69300        3.82270
C          1.72460       -3.21870        4.33190
S          1.90100       -4.88950        4.78290
C         -0.19420       -0.50960        2.63810
C          0.15410        0.80010        2.50060
S          1.63510        1.16630        3.35650
C         -0.60410        1.71980        1.71290
C         -0.37440        2.99710        1.29940
C         -1.39910        3.51190        0.45490
C         -1.50480        4.78550       -0.13750
C         -0.55200        5.83740        0.17000
S          0.24260        6.75930       -1.07150
C          1.08860        7.73330        0.08240
C          2.02670        8.81090       -0.34240
C          3.48250        8.46300       -0.02390
C          0.76110        7.35550        1.35120
Cl         1.37180        8.11220        2.76460
C         -0.16520        6.28130        1.40570
Cl        -0.79340        5.68350        2.88760
C         -2.57100        4.99200       -1.00870
C         -3.56680        4.01560       -1.24780
C         -3.52640        2.78340       -0.57880
C         -4.60080        1.81290       -0.66580
S         -4.27540        0.10820       -0.79280
C         -5.94980       -0.30580       -0.69510
C         -6.39600       -1.72500       -0.64880
C         -6.55500       -2.19050        0.80100
C         -6.70820        0.82040       -0.57940
C         -5.95120        2.02170       -0.55740
Cl        -6.68810        3.54770       -0.28480
Cl        -8.41930        0.80570       -0.45850
C         -2.41160        2.55260        0.21690
S         -2.10340        1.07690        1.06470
C         -4.48910        4.43030       -2.23850
C         -4.25090        5.67650       -2.72290
S         -2.88140        6.43800       -1.93610
C         -4.88770        6.20040       -3.91070
C         -4.89510        5.51260       -5.09610
C         -5.61510        6.18170       -6.12960
C         -6.17760        7.40460       -5.68260
S         -5.77540        7.68860       -3.99450
C         -6.91360        8.21110       -6.53860
O         -7.51890        9.40120       -6.28160
C         -7.44780        9.97400       -4.99830
C         -7.06430        7.74980       -7.85830
C         -6.48770        6.53880       -8.30800
C         -5.74370        5.73240       -7.45530
O         -5.11720        4.56000       -7.72840
C         -5.03800        4.09230       -9.05330
S         -6.87910        6.28580       -9.99870
C         -7.77230        7.76460      -10.06050
C         -7.78780        8.42290       -8.88700
C         -4.09960        4.29130       -5.16660
C         -4.46040        2.98630       -5.11510
C         -3.38710        2.11580       -4.76320
C         -3.43040        0.73770       -4.47420
C         -4.57870       -0.05910       -4.85850
S         -5.29190       -1.23720       -3.80160
C         -6.48210       -1.69360       -4.97290
C         -7.48310       -2.75280       -4.66970
C         -6.80940       -4.10570       -4.43920
C         -6.31320       -0.97720       -6.11970
Cl        -7.28950       -1.15490       -7.52030
C         -5.23800       -0.05060       -6.05950
Cl        -4.77650        0.89790       -7.40870
C         -2.32410        0.19570       -3.82370
C         -1.15350        0.94420       -3.54850
C         -1.05280        2.27810       -3.97410
C          0.13770        3.08830       -3.79670
S          0.93780        3.26510       -2.26080
C          2.06350        4.41880       -2.89140
C          3.13970        5.01880       -2.05660
C          4.51100        4.44540       -2.42280
C          1.82870        4.63470       -4.21570
C          0.74300        3.88280       -4.73320
Cl         0.32430        3.91500       -6.39310
Cl         2.73060        5.72930       -5.17690
C         -2.18860        2.83380       -4.54740
S         -2.38340        4.51710       -4.90960
C         -0.17880        0.18340       -2.86520
C         -0.56230       -1.10160       -2.61180
S         -2.15860       -1.44170       -3.24570
C          0.20040       -2.06300       -1.88080
C          1.35780       -1.80070       -1.20590
C          1.87460       -2.91100       -0.50120
C          3.00710       -2.95260        0.33270
C          3.84750       -1.79030        0.55680
S          3.13590       -0.26350        0.97980
C          4.67300        0.48400        1.24390
C          4.77520        1.89070        1.71980
C          3.87650        2.82890        0.92040
C          5.67300       -0.39850        0.96550
Cl         7.34110       -0.02130        1.09010
C          5.21240       -1.68670        0.57770
Cl         6.29500       -2.92600        0.10120
C          3.25220       -4.15030        0.99040
C          2.45960       -5.31240        0.81360
C          1.34380       -5.27270       -0.04220
C          0.48730       -6.43530       -0.20190
S          0.09750       -7.05600       -1.77890
C         -0.85840       -8.34090       -1.12300
C         -1.57870       -9.29590       -2.00900
C         -2.92990       -8.72380       -2.44390
C         -0.87580       -8.26970        0.23790
C         -0.11000       -7.19550        0.76600
Cl        -0.03890       -6.86130        2.45170
Cl        -1.74280       -9.35810        1.24300
C          1.08200       -4.06970       -0.68570
S         -0.28290       -3.73550       -1.71900
C          2.93290       -6.39700        1.59180
C          3.99110       -6.07000        2.38920
S          4.49220       -4.41100        2.17360
C          4.67640       -6.87870        3.34330
C          4.40150       -8.14970        3.74640
C          5.28000       -8.63280        4.74830
C          6.26120       -7.67980        5.12490
S          6.05280       -6.20900        4.19280
C          7.20750       -7.96510        6.09710
O          8.20160       -7.16990        6.57750
C          8.36270       -5.86240        6.08250
C          7.14320       -9.24500        6.67610
C          6.16730      -10.19930        6.29950
C          5.21500       -9.91300        5.33120
O          4.21590      -10.70190        4.85640
C          4.04310      -12.00600        5.35590
S          6.39390      -11.67490        7.22320
C          7.74530      -10.99740        8.06180
C          8.02440       -9.73640        7.68380
H          3.87330       -5.33330        6.12680
H          4.60940       -2.84010        6.02400
H          7.15950        3.00060        5.61860
H          5.53640        3.63800        5.95210
H          5.52030        2.43780        8.13990
H          7.14010        1.81400        7.80990
H          6.89060        3.54840        8.03190
H         -4.45850       -4.63630        1.29980
H         -3.55680       -3.60620        0.16570
H         -2.26190       -5.56830       -0.60720
H         -3.99260       -5.85630       -0.79470
H         -3.11600       -6.60420        0.54470
H         -1.09600       -0.90310        2.20940
H          0.50550        3.55020        1.57310
H          1.91120        8.97790       -1.41410
H          1.76140        9.73320        0.18090
H          3.61090        8.31530        1.04450
H          4.13290        9.27300       -0.34290
H          3.78150        7.55330       -0.53750
H         -7.35330       -1.81340       -1.16520
H         -5.66130       -2.34860       -1.15890
H         -5.61280       -2.09330        1.33450
H         -7.30450       -1.58960        1.30900
H         -6.86820       -3.23060        0.82650
H         -5.27840        3.80430       -2.61070
H         -6.41790       10.20390       -4.71260
H         -7.90220        9.33030       -4.24050
H         -8.01550       10.90110       -5.06770
H         -4.39880        3.21190       -9.00790
H         -4.58340        4.83150       -9.71750
H         -6.01870        3.80480       -9.44170
H         -8.23170        8.04220      -10.98860
H         -8.28640        9.35870       -8.71780
H         -5.47610        2.65670       -5.23860
H         -8.04560       -2.47360       -3.77520
H         -8.17990       -2.81990       -5.50650
H         -6.26400       -4.41180       -5.32830
H         -7.55630       -4.86140       -4.21180
H         -6.10960       -4.04120       -3.60940
H          3.14700        6.09720       -2.23110
H          2.92200        4.83400       -1.00430
H          4.76280        4.69910       -3.44840
H          4.51040        3.36200       -2.33030
H          5.27490        4.85310       -1.76600
H          0.77280        0.58450       -2.57300
H          1.81650       -0.83090       -1.19120
H          5.81790        2.20380        1.64420
H          4.48370        1.93440        2.77340
H          4.14380        2.79540       -0.13110
H          3.98720        3.84780        1.28200
H          2.83590        2.53020        1.02270
H         -1.73440      -10.22980       -1.46600
H         -0.97030       -9.50040       -2.89140
H         -2.78810       -7.78430       -2.97230
H         -3.55820       -8.54330       -1.57580
H         -3.43610       -9.42440       -3.10240
H          2.51060       -7.38310        1.55910
H          3.59430       -8.74220        3.35940
H          8.59030       -5.85750        5.01340
H          9.20930       -5.45070        6.63060
H          7.47940       -5.24540        6.26880
H          4.91740      -12.63320        5.16270
H          3.82580      -12.00460        6.42720
H          3.18630      -12.40780        4.81640
H          8.24470      -11.60260        8.79240
H          8.82410       -9.14180        8.08400
