161

C          0.95390       -1.27090        4.04360
C          0.41430       -2.44810        3.64110
C          1.33660       -3.24030        2.87140
C          2.59250       -2.59780        2.73340
S          2.58090       -1.04460        3.54630
C          3.63130       -3.17490        2.01770
O          4.88820       -2.70110        1.80380
C          5.28720       -1.45180        2.31480
C          3.36890       -4.41800        1.42240
C          2.10760       -5.04420        1.52800
C          1.06760       -4.46990        2.24760
O         -0.19990       -4.94680        2.38760
C         -0.47280       -6.30630        2.15380
S          2.11420       -6.54500        0.62190
C          3.76470       -6.31340        0.15720
C          4.29190       -5.17420        0.63960
C         -0.95550       -2.79740        3.97440
C         -2.05740       -2.02670        3.74850
C         -3.26940       -2.61820        4.24120
C         -3.02970       -3.84210        4.91310
S         -1.32320       -4.24020        4.86570
C         -4.06560       -4.58060        5.46960
O         -4.00100       -5.75480        6.15470
C         -2.75590       -6.29210        6.52980
C         -5.36280       -4.07230        5.29690
C         -5.61040       -2.87890        4.58010
C         -4.57290       -2.12980        4.04090
O         -4.66830       -0.99830        3.28610
C         -5.87130       -0.27200        3.23460
S         -7.33800       -2.57930        4.50360
C         -7.67200       -4.00700        5.42250
C         -6.56290       -4.68480        5.76740
C         -1.96180       -0.72890        3.09790
C         -1.44690       -0.43690        1.86940
C         -1.43930        0.97370        1.58600
C         -1.92680        1.74530        2.67720
S         -2.40460        0.69190        3.99760
C         -2.01680        3.13160        2.63450
O         -2.46450        3.98810        3.58970
C         -2.88540        3.51790        4.84670
C         -1.60100        3.75590        1.44510
C         -1.14970        2.98510        0.35830
C         -1.06520        1.60130        0.39340
O         -0.60600        0.92630       -0.71470
C         -1.62140        0.46050       -1.58130
S         -0.72430        3.98680       -0.99690
C         -1.14810        5.40940       -0.10310
C         -1.58680        5.15070        1.14530
C         -0.99170       -1.47470        0.96280
S          0.60480       -1.45000        0.28150
C          0.32200       -2.93260       -0.59050
C         -0.94710       -3.39820       -0.33130
C         -1.68540       -2.57920        0.54690
C         -3.07610       -2.96710        0.91140
C         -3.89200       -3.46360       -0.30490
O         -4.72150       -4.55660        0.04190
C         -5.78510       -4.22310        0.89820
C         -3.01220       -3.92270       -1.48210
O         -2.83370       -2.78270       -2.30070
C         -2.12650       -3.01220       -3.49470
C         -1.68510       -4.51960       -0.97890
C          1.33580       -3.62170       -1.33110
C          2.50070       -3.15760       -1.82190
C          2.94180       -1.79730       -1.94280
S          1.86800       -0.51480       -2.41860
C          3.17030        0.63990       -2.44600
C          4.36800        0.03620       -2.10790
C          4.24160       -1.34080       -1.85610
C          5.39930       -2.20410       -1.47740
C          6.75310       -1.52010       -1.71600
O          7.78530       -2.19380       -1.01550
C          8.18420       -3.41150       -1.58810
C          6.71310       -0.05880       -1.22590
O          7.95010        0.60190       -1.39940
C          8.84440        0.50460       -0.31740
C          5.68600        0.73380       -2.03910
C          2.94560        2.00220       -2.77990
C          1.76180        2.50130       -3.19600
C          1.52020        3.87020       -3.48950
S          2.71070        5.09510       -3.16770
C          1.63960        6.36510       -3.69300
C          0.43370        5.84190       -4.11560
C          0.36790        4.44010       -3.99990
C         -0.83500        3.65700       -4.41400
C         -2.08270        4.54350       -4.50960
O         -3.16280        3.85110       -5.10870
C         -3.78010        2.89790       -4.28330
C         -1.76370        5.78720       -5.36130
O         -2.88120        6.63330       -5.54130
C         -3.69040        6.33820       -6.65470
C         -0.70850        6.64050       -4.65050
C          2.14180        7.70970       -3.62100
C          1.45330        8.84650       -3.71440
H          0.48410       -0.51000        4.63580
H          5.24120       -1.42650        3.40650
H          4.68510       -0.63690        1.90310
H          6.32360       -1.33640        1.99650
H         -0.41130       -6.56230        1.09330
H         -1.49560       -6.45760        2.49930
H          0.19950       -6.95470        2.72240
H          4.23010       -7.06180       -0.45360
H          5.30240       -4.85140        0.47320
H         -2.99240       -7.15240        7.15510
H         -2.17820       -6.62570        5.66370
H         -2.16410       -5.57730        7.10720
H         -6.24180       -0.03340        4.23450
H         -5.62440        0.65170        2.71140
H         -6.64540       -0.80520        2.67590
H         -8.69510       -4.24090        5.64120
H         -6.55530       -5.59610        6.33510
H         -3.15100        4.41150        5.41070
H         -2.08710        2.98570        5.37000
H         -3.76230        2.87000        4.76630
H         -2.24300       -0.30760       -1.11050
H         -2.26180        1.28540       -1.91380
H         -1.10600        0.02180       -2.43350
H         -1.03370        6.36210       -0.58190
H         -1.89450        5.89910        1.85160
H         -3.58820       -2.13800        1.39880
H         -3.01730       -3.80010        1.62100
H         -4.51340       -2.63720       -0.68560
H         -6.39780       -3.41940        0.47140
H         -5.43440       -3.91260        1.88890
H         -6.38900       -5.12300        1.00040
H         -3.57210       -4.69460       -2.03560
H         -2.52150       -3.88590       -4.02660
H         -1.05490       -3.15070       -3.31590
H         -2.27050       -2.12290       -4.10620
H         -1.12440       -4.96910       -1.79770
H         -1.93650       -5.29650       -0.25400
H          1.14320       -4.68250       -1.44360
H          3.20220       -3.89040       -2.20650
H          5.35390       -3.14080       -2.04070
H          5.33490       -2.46020       -0.41600
H          6.99200       -1.51000       -2.79190
H          7.40460       -4.17820       -1.51170
H          9.05990       -3.73990       -1.03040
H          8.45340       -3.28450       -2.64390
H          6.43470       -0.05940       -0.16220
H          9.13150       -0.53120       -0.12300
H          8.40520        0.93270        0.59330
H          9.72130        1.08410       -0.60130
H          6.09530        0.87170       -3.04470
H          5.57910        1.72510       -1.59540
H          3.79720        2.66440       -2.69310
H          0.92140        1.83020       -3.30560
H         -1.01020        2.85090       -3.69990
H         -0.66480        3.20270       -5.39640
H         -2.37830        4.87950       -3.50230
H         -4.69020        2.59170       -4.79710
H         -3.14740        2.01690       -4.12610
H         -4.04090        3.32770       -3.30830
H         -1.39150        5.44790       -6.33950
H         -3.11240        6.40110       -7.58560
H         -4.47300        7.09520       -6.66420
H         -4.13520        5.34400       -6.57740
H         -0.34630        7.40120       -5.34520
H         -1.22010        7.15720       -3.83260
H          3.20980        7.76280       -3.44510
H          0.38870        8.88320       -3.84820
H          1.95680        9.79510       -3.64050
