215

C         -6.37430      -15.21740       -0.56410
C         -6.75160      -14.50190       -1.64230
C         -5.97410      -13.31920       -1.82440
C         -6.11390      -12.33250       -2.81110
C         -7.08970      -12.45230       -3.90100
C         -7.14650      -13.59860       -4.68790
C         -8.04240      -13.70510       -5.73450
C         -8.92420      -12.67010       -6.02520
S        -10.10280      -12.65660       -7.33360
C        -10.14840      -14.38440       -7.92140
C        -10.83830      -15.31090       -6.93820
C         -8.85170      -11.52450       -5.22990
F         -9.68750      -10.49820       -5.48610
C         -7.95850      -11.40200       -4.19060
C         -5.26600      -11.23940       -2.71640
C         -4.28860      -11.09360       -1.70370
C         -4.14620      -12.08320       -0.71900
C         -3.16000      -11.95900        0.36000
C         -2.28010      -12.99810        0.64600
C         -1.35400      -12.89220        1.66530
C         -1.28530      -11.74590        2.44860
S         -0.15440      -11.47220        3.77050
C          0.55390      -13.12130        4.10520
C         -0.44670      -14.05980        4.75270
C         -2.17220      -10.70970        2.14780
C         -3.09190      -10.79760        1.12800
F         -2.13260       -9.58060        2.88410
C         -4.99410      -13.17860       -0.81300
S         -5.05430      -14.51550        0.30770
C         -3.52090       -9.91260       -1.87800
C         -3.87340       -9.18060       -2.97040
S         -5.21040       -9.91130       -3.84230
C         -3.31810       -7.91410       -3.34730
S         -2.64720       -6.91970       -2.08870
C         -2.30720       -5.63740       -3.20850
C         -2.70900       -5.97310       -4.48110
C         -3.25240       -7.27560       -4.56810
C         -3.60160       -7.91690       -5.88460
C         -2.52960       -8.95720       -6.21650
F         -2.76580       -9.55330       -7.39600
F         -2.42170       -9.94100       -5.31600
F         -1.30870       -8.40310       -6.30990
C         -3.65690       -6.92070       -7.05950
C         -3.90720       -5.49790       -6.58590
C         -2.75440       -5.05070       -5.66960
C         -3.00000       -3.67720       -5.28920
N         -3.24880       -2.58510       -5.06070
C         -1.68840       -4.43050       -2.74770
C         -0.83290       -3.61060       -3.41920
C         -0.45010       -2.46270       -2.67880
C          0.40490       -1.42510       -3.08350
C          0.96260       -1.37040       -4.43960
C          0.12990       -1.47520       -5.55330
C          0.65140       -1.37310       -6.82510
C          2.01560       -1.18160       -7.03840
S          2.57500       -1.10230       -8.71460
C          3.83620        0.22530       -8.69460
C          3.27460        1.53500       -8.18010
C          2.83630       -1.11180       -5.91680
F          4.17410       -0.97850       -6.04480
C          2.32590       -1.18170       -4.63630
C          0.65420       -0.42560       -2.15590
C          0.07270       -0.41520       -0.86470
C         -0.77100       -1.46000       -0.45180
C         -1.34320       -1.45920        0.89950
C         -0.52590       -1.25370        2.01200
C         -1.06170       -1.20800        3.27960
C         -2.43220       -1.35560        3.49390
S         -3.00110       -1.19560        5.15770
C         -4.47610       -2.28530        5.24470
C         -4.70810       -2.67730        6.69030
C         -3.23490       -1.56250        2.37610
C         -2.70770       -1.63030        1.10160
F         -4.57530       -1.68260        2.49950
C         -1.02300       -2.45500       -1.38240
S         -2.03140       -3.85170       -1.12970
C          0.39570        0.76340       -0.15200
C          1.20360        1.62000       -0.84200
S          1.62170        1.00250       -2.42460
C          1.66320        2.88530       -0.36290
C          1.18320        3.53000        0.73920
C          1.83190        4.75720        1.01310
C          1.58350        5.63120        2.08580
C          0.60720        5.27080        3.11920
C          0.62380        4.00070        3.69280
C         -0.33840        3.60920        4.60220
C         -1.35670        4.47860        4.97820
S         -2.67720        4.08760        6.07230
C         -2.62750        2.26470        6.20410
C         -1.72630        1.77100        7.31990
C         -1.32970        5.76660        4.43740
F         -2.28630        6.64490        4.79660
C         -0.37910        6.16740        3.52580
C          2.30160        6.81730        2.09100
C          3.27850        7.12660        1.11310
C          3.57330        6.22100        0.07950
C          4.65810        6.49150       -0.87040
C          5.91990        6.86920       -0.40820
C          6.93960        7.13870       -1.29430
C          6.75200        7.03510       -2.67260
S          8.15310        7.37380       -3.69620
C          7.45730        8.20550       -5.17190
C          6.69020        9.46100       -4.80920
C          5.50030        6.61920       -3.11600
C          4.46370        6.36270       -2.24080
F          5.24950        6.45540       -4.43360
C          2.81470        5.06110        0.03840
S          2.94380        3.78460       -1.14620
C          3.84910        8.40830        1.32090
C          3.38130        9.04420        2.43040
S          2.17850        8.08740        3.27510
C          3.69550       10.34460        2.95070
S          2.48330       11.14920        3.89800
C          3.51160       12.51890        4.14040
C          4.71810       12.35570        3.50930
C          4.83090       11.11850        2.83210
C          6.12570       10.71050        2.18270
C          6.85350        9.74020        3.11840
F          6.93120       10.17530        4.38440
F          6.24830        8.54450        3.16940
F          8.11430        9.49950        2.72350
C          6.99840       11.92710        1.84850
C          7.12980       12.88650        3.02680
C          5.75280       13.44620        3.40260
C          5.28340       14.34970        2.36870
N          4.89290       15.03710        1.54430
C          3.07850       13.67000        4.90360
S          1.81320       14.69620        4.30230
C          1.98020       15.74660        5.64480
C          2.94160       15.33460        6.51450
C          3.57610       14.13630        6.09350
C          4.59380       13.43500        6.95150
C          3.91260       12.25650        7.65900
F          2.70960       12.55890        8.16710
F          4.64350       11.77780        8.67690
F          3.71890       11.22810        6.82160
C          5.21840       14.40640        7.96060
C          4.15520       15.20450        8.71130
C          3.37410       16.09820        7.73720
C          4.22460       17.18090        7.28310
N          4.91410       18.01090        6.90720
H         -6.79100      -16.13810       -0.20470
H         -7.56550      -14.77740       -2.28800
H         -6.45950      -14.40930       -4.49670
H         -8.03770      -14.60270       -6.33100
H        -10.71200      -14.32030       -8.85210
H         -9.13250      -14.70110       -8.15400
H        -10.31050      -15.33710       -5.98720
H        -10.87530      -16.32010       -7.34390
H        -11.85510      -14.97200       -6.75510
H         -7.96030      -10.49850       -3.60160
H         -2.30240      -13.89610        0.04790
H         -0.67830      -13.71360        1.83780
H          0.96300      -13.52050        3.17800
H          1.38000      -12.90850        4.78380
H          0.02710      -15.01650        4.96420
H         -0.80690      -13.63590        5.68710
H         -1.30220      -14.23120        4.10280
H         -3.76750       -9.97410        0.95680
H         -2.70800       -9.63210       -1.23240
H         -4.54850       -8.45740       -5.79750
H         -4.44010       -7.22660       -7.75320
H         -2.70860       -6.94340       -7.60250
H         -3.97570       -4.82990       -7.44560
H         -4.84750       -5.44260       -6.03300
H         -1.80680       -5.08920       -6.22490
H         -0.44920       -3.82470       -4.39970
H         -0.93390       -1.59660       -5.41450
H          0.00390       -1.43220       -7.68610
H          4.69270       -0.10840       -8.11310
H          4.12760        0.30550       -9.74200
H          4.03140        2.31280       -8.25880
H          2.97980        1.44940       -7.13580
H          2.40430        1.83280       -8.76150
H          3.00770       -1.11830       -3.80250
H          0.54050       -1.15480        1.87860
H         -0.42500       -1.05560        4.13750
H         -5.32890       -1.74140        4.84120
H         -4.26700       -3.15790        4.62790
H         -3.84760       -3.21320        7.08480
H         -5.58230       -3.32110        6.75780
H         -4.87700       -1.79500        7.30400
H         -3.38100       -1.77700        0.27170
H          0.02380        0.97180        0.83350
H          0.36160        3.15940        1.32260
H          1.41560        3.31270        3.43670
H         -0.29110        2.61430        5.01360
H         -2.34510        1.86150        5.23310
H         -3.66240        1.98830        6.40400
H         -0.69900        2.09800        7.17700
H         -2.07210        2.15060        8.27830
H         -1.74800        0.68320        7.34360
H         -0.43620        7.16270        3.11480
H          6.10000        6.93450        0.65440
H          7.91300        7.43370       -0.93340
H          8.34320        8.44320       -5.76080
H          6.84420        7.49700       -5.72400
H          6.36920        9.96850       -5.71650
H          7.31660       10.13850       -4.23240
H          5.80660        9.22050       -4.22100
H          3.50800        6.06830       -2.64530
H          4.54110        8.84010        0.62270
H          5.94540       10.14560        1.26470
H          7.98570       11.58800        1.53090
H          6.53590       12.45370        1.01040
H          7.79310       13.70930        2.75340
H          7.56060       12.38010        3.89100
H          5.81370       14.02270        4.33200
H          1.36010       16.61800        5.71660
H          5.37890       12.97420        6.34140
H          5.86700       15.09790        7.41690
H          5.83620       13.85060        8.66760
H          4.63650       15.82760        9.46740
H          3.46000       14.53590        9.21940
H          2.50440       16.54060        8.23560
