
  xtb     02282222163D
 energy: -381.405861442936 gnorm: 0.000375065582 xtb: 6.4.1 (unknown)
190211  0     0  0            999 V2000
    2.1524   -5.5207   10.8692 C   0  0  0  0  0  0  0  0  0  0  0  0
    2.4273   -4.3398   10.2783 C   0  0  0  0  0  0  0  0  0  0  0  0
    1.5488   -4.0449    9.1954 C   0  0  0  0  0  0  0  0  0  0  0  0
    1.5744   -2.9348    8.3356 C   0  0  0  0  0  0  0  0  0  0  0  0
    2.5799   -1.8912    8.4638 C   0  0  0  0  0  0  0  0  0  0  0  0
    4.2800   -2.2560    8.4432 S   0  0  0  0  0  0  0  0  0  0  0  0
    4.7208   -0.5901    8.6015 C   0  0  0  0  0  0  0  0  0  0  0  0
    6.1468   -0.1625    8.6002 C   0  0  0  0  0  0  0  0  0  0  0  0
    6.6400    0.0898    7.1733 C   0  0  0  0  0  0  0  0  0  0  0  0
    3.6051    0.1906    8.6587 C   0  0  0  0  0  0  0  0  0  0  0  0
    3.6414    1.8985    8.8198 Cl  0  0  0  0  0  0  0  0  0  0  0  0
    2.3901   -0.5425    8.5828 C   0  0  0  0  0  0  0  0  0  0  0  0
    0.8545    0.2069    8.7143 Cl  0  0  0  0  0  0  0  0  0  0  0  0
    0.6066   -2.8850    7.3398 C   0  0  0  0  0  0  0  0  0  0  0  0
   -0.3854   -3.8841    7.1953 C   0  0  0  0  0  0  0  0  0  0  0  0
   -0.3983   -5.0089    8.0365 C   0  0  0  0  0  0  0  0  0  0  0  0
   -1.3544   -6.0782    7.8023 C   0  0  0  0  0  0  0  0  0  0  0  0
   -1.5131   -6.7661    6.2098 S   0  0  0  0  0  0  0  0  0  0  0  0
   -2.7642   -7.8499    6.7119 C   0  0  0  0  0  0  0  0  0  0  0  0
   -3.4454   -8.7341    5.7267 C   0  0  0  0  0  0  0  0  0  0  0  0
   -4.4338   -7.9364    4.8713 C   0  0  0  0  0  0  0  0  0  0  0  0
   -3.0268   -7.6829    8.0385 C   0  0  0  0  0  0  0  0  0  0  0  0
   -2.2252   -6.6861    8.6619 C   0  0  0  0  0  0  0  0  0  0  0  0
   -2.4245   -6.2472   10.3056 Cl  0  0  0  0  0  0  0  0  0  0  0  0
   -4.2125   -8.5746    8.9005 Cl  0  0  0  0  0  0  0  0  0  0  0  0
    0.5741   -5.0598    9.0274 C   0  0  0  0  0  0  0  0  0  0  0  0
    0.8082   -6.3508   10.1692 S   0  0  0  0  0  0  0  0  0  0  0  0
   -1.2664   -3.5986    6.1267 C   0  0  0  0  0  0  0  0  0  0  0  0
   -0.9302   -2.4792    5.4264 C   0  0  0  0  0  0  0  0  0  0  0  0
    0.4786   -1.6801    6.0856 S   0  0  0  0  0  0  0  0  0  0  0  0
   -1.5730   -2.0459    4.2289 C   0  0  0  0  0  0  0  0  0  0  0  0
   -1.1006   -1.2261    3.2499 C   0  0  0  0  0  0  0  0  0  0  0  0
   -1.9227   -1.1983    2.0947 C   0  0  0  0  0  0  0  0  0  0  0  0
   -1.7056   -0.5187    0.8847 C   0  0  0  0  0  0  0  0  0  0  0  0
   -0.5534    0.3386    0.6665 C   0  0  0  0  0  0  0  0  0  0  0  0
    1.0585   -0.1883    1.0627 S   0  0  0  0  0  0  0  0  0  0  0  0
    1.7838    1.2282    0.3906 C   0  0  0  0  0  0  0  0  0  0  0  0
    3.2595    1.4215    0.4110 C   0  0  0  0  0  0  0  0  0  0  0  0
    3.7106    2.0779    1.7176 C   0  0  0  0  0  0  0  0  0  0  0  0
    0.8210    2.0750   -0.0715 C   0  0  0  0  0  0  0  0  0  0  0  0
    1.1496    3.5873   -0.8145 Cl  0  0  0  0  0  0  0  0  0  0  0  0
   -0.5011    1.5789    0.0859 C   0  0  0  0  0  0  0  0  0  0  0  0
   -1.8662    2.5279   -0.3327 Cl  0  0  0  0  0  0  0  0  0  0  0  0
   -2.6293   -0.7518   -0.1327 C   0  0  0  0  0  0  0  0  0  0  0  0
   -3.7858   -1.5600    0.0237 C   0  0  0  0  0  0  0  0  0  0  0  0
   -4.0276   -2.1963    1.2552 C   0  0  0  0  0  0  0  0  0  0  0  0
   -5.1782   -3.0588    1.4629 C   0  0  0  0  0  0  0  0  0  0  0  0
   -4.9840   -4.6634    2.1093 S   0  0  0  0  0  0  0  0  0  0  0  0
   -6.6799   -4.9922    2.0368 C   0  0  0  0  0  0  0  0  0  0  0  0
   -7.2194   -6.3154    2.4522 C   0  0  0  0  0  0  0  0  0  0  0  0
   -6.7833   -7.4201    1.4885 C   0  0  0  0  0  0  0  0  0  0  0  0
   -7.3468   -3.9143    1.5371 C   0  0  0  0  0  0  0  0  0  0  0  0
   -6.5010   -2.8181    1.2133 C   0  0  0  0  0  0  0  0  0  0  0  0
   -7.1297   -1.3267    0.6515 Cl  0  0  0  0  0  0  0  0  0  0  0  0
   -9.0484   -3.8508    1.3184 Cl  0  0  0  0  0  0  0  0  0  0  0  0
   -3.0723   -2.0144    2.2450 C   0  0  0  0  0  0  0  0  0  0  0  0
   -3.1198   -2.7579    3.8156 S   0  0  0  0  0  0  0  0  0  0  0  0
   -4.5237   -1.6691   -1.1814 C   0  0  0  0  0  0  0  0  0  0  0  0
   -3.9419   -1.0041   -2.2175 C   0  0  0  0  0  0  0  0  0  0  0  0
   -2.4700   -0.1920   -1.7638 S   0  0  0  0  0  0  0  0  0  0  0  0
   -4.3994   -0.8186   -3.5602 C   0  0  0  0  0  0  0  0  0  0  0  0
   -5.7203   -0.8552   -3.8996 N   0  0  0  0  0  0  0  0  0  0  0  0
   -6.0126   -0.0969   -4.8837 N   0  0  0  0  0  0  0  0  0  0  0  0
   -5.0933    0.4494   -5.6622 C   0  0  0  0  0  0  0  0  0  0  0  0
   -3.8803   -0.1745   -5.6760 N   0  0  0  0  0  0  0  0  0  0  0  0
   -3.5449   -0.6691   -4.5511 N   0  0  0  0  0  0  0  0  0  0  0  0
   -5.3757    1.5576   -6.5212 C   0  0  0  0  0  0  0  0  0  0  0  0
   -4.3674    2.1685   -7.1717 C   0  0  0  0  0  0  0  0  0  0  0  0
   -4.4878    3.3542   -7.9593 C   0  0  0  0  0  0  0  0  0  0  0  0
   -5.6588    3.9359   -8.3227 N   0  0  0  0  0  0  0  0  0  0  0  0
   -5.5808    5.1931   -8.5676 N   0  0  0  0  0  0  0  0  0  0  0  0
   -4.4259    5.8106   -8.6858 C   0  0  0  0  0  0  0  0  0  0  0  0
   -3.3509    5.0302   -8.9960 N   0  0  0  0  0  0  0  0  0  0  0  0
   -3.3905    3.8556   -8.5114 N   0  0  0  0  0  0  0  0  0  0  0  0
   -4.2514    7.2486   -8.6585 C   0  0  0  0  0  0  0  0  0  0  0  0
   -3.2137    7.7597   -7.9870 C   0  0  0  0  0  0  0  0  0  0  0  0
   -2.4094    6.8959   -7.1318 C   0  0  0  0  0  0  0  0  0  0  0  0
   -1.1000    6.5563   -7.1852 C   0  0  0  0  0  0  0  0  0  0  0  0
   -0.7336    5.5543   -6.2411 C   0  0  0  0  0  0  0  0  0  0  0  0
    0.5014    4.9030   -6.0829 C   0  0  0  0  0  0  0  0  0  0  0  0
    1.6790    5.3377   -6.8123 C   0  0  0  0  0  0  0  0  0  0  0  0
    2.6726    4.2182   -7.6951 S   0  0  0  0  0  0  0  0  0  0  0  0
    3.7566    5.4643   -8.2076 C   0  0  0  0  0  0  0  0  0  0  0  0
    4.8999    5.1673   -9.1136 C   0  0  0  0  0  0  0  0  0  0  0  0
    4.4607    5.2108  -10.5793 C   0  0  0  0  0  0  0  0  0  0  0  0
    3.3576    6.6729   -7.7180 C   0  0  0  0  0  0  0  0  0  0  0  0
    4.1884    8.1459   -8.0113 Cl  0  0  0  0  0  0  0  0  0  0  0  0
    2.1825    6.6054   -6.9240 C   0  0  0  0  0  0  0  0  0  0  0  0
    1.5302    7.9762   -6.1228 Cl  0  0  0  0  0  0  0  0  0  0  0  0
    0.5368    3.8220   -5.2087 C   0  0  0  0  0  0  0  0  0  0  0  0
   -0.5759    3.4100   -4.4335 C   0  0  0  0  0  0  0  0  0  0  0  0
   -1.7713    4.1419   -4.4992 C   0  0  0  0  0  0  0  0  0  0  0  0
   -2.8924    3.9197   -3.6001 C   0  0  0  0  0  0  0  0  0  0  0  0
   -3.7350    2.4109   -3.4536 S   0  0  0  0  0  0  0  0  0  0  0  0
   -4.8303    3.0355   -2.2673 C   0  0  0  0  0  0  0  0  0  0  0  0
   -5.8762    2.1932   -1.6222 C   0  0  0  0  0  0  0  0  0  0  0  0
   -5.4972    1.8603   -0.1776 C   0  0  0  0  0  0  0  0  0  0  0  0
   -4.5434    4.3433   -2.0117 C   0  0  0  0  0  0  0  0  0  0  0  0
   -3.4505    4.8471   -2.7641 C   0  0  0  0  0  0  0  0  0  0  0  0
   -2.8571    6.4423   -2.5705 Cl  0  0  0  0  0  0  0  0  0  0  0  0
   -5.4183    5.3136   -0.9019 Cl  0  0  0  0  0  0  0  0  0  0  0  0
   -1.8289    5.1638   -5.4376 C   0  0  0  0  0  0  0  0  0  0  0  0
   -3.2659    6.0467   -5.8511 S   0  0  0  0  0  0  0  0  0  0  0  0
   -0.2817    2.2743   -3.6390 C   0  0  0  0  0  0  0  0  0  0  0  0
    1.0033    1.8426   -3.7691 C   0  0  0  0  0  0  0  0  0  0  0  0
    1.9290    2.8309   -4.8825 S   0  0  0  0  0  0  0  0  0  0  0  0
    1.6314    0.7264   -3.1394 C   0  0  0  0  0  0  0  0  0  0  0  0
    2.9642    0.4574   -3.0795 C   0  0  0  0  0  0  0  0  0  0  0  0
    3.2676   -0.7490   -2.4018 C   0  0  0  0  0  0  0  0  0  0  0  0
    4.5384   -1.2792   -2.1369 C   0  0  0  0  0  0  0  0  0  0  0  0
    5.7406   -0.6344   -2.6366 C   0  0  0  0  0  0  0  0  0  0  0  0
    7.0469   -0.2031   -1.5735 S   0  0  0  0  0  0  0  0  0  0  0  0
    7.9900    0.4475   -2.8700 C   0  0  0  0  0  0  0  0  0  0  0  0
    9.3157    1.0775   -2.6214 C   0  0  0  0  0  0  0  0  0  0  0  0
    9.1591    2.5495   -2.2318 C   0  0  0  0  0  0  0  0  0  0  0  0
    7.3149    0.3368   -4.0489 C   0  0  0  0  0  0  0  0  0  0  0  0
    7.9311    0.8717   -5.5578 Cl  0  0  0  0  0  0  0  0  0  0  0  0
    6.0404   -0.2784   -3.9225 C   0  0  0  0  0  0  0  0  0  0  0  0
    5.0311   -0.6004   -5.2734 Cl  0  0  0  0  0  0  0  0  0  0  0  0
    4.5856   -2.4461   -1.3856 C   0  0  0  0  0  0  0  0  0  0  0  0
    3.4296   -3.0959   -0.8936 C   0  0  0  0  0  0  0  0  0  0  0  0
    2.1512   -2.5569   -1.1425 C   0  0  0  0  0  0  0  0  0  0  0  0
    0.9702   -3.1684   -0.5540 C   0  0  0  0  0  0  0  0  0  0  0  0
    0.9989   -3.6492    1.1240 S   0  0  0  0  0  0  0  0  0  0  0  0
   -0.6066   -4.2854    1.0675 C   0  0  0  0  0  0  0  0  0  0  0  0
   -1.1772   -5.0224    2.2277 C   0  0  0  0  0  0  0  0  0  0  0  0
   -0.7404   -6.4889    2.2150 C   0  0  0  0  0  0  0  0  0  0  0  0
   -1.1348   -4.1005   -0.1743 C   0  0  0  0  0  0  0  0  0  0  0  0
   -0.2535   -3.4642   -1.0926 C   0  0  0  0  0  0  0  0  0  0  0  0
   -0.6977   -3.2335   -2.7325 Cl  0  0  0  0  0  0  0  0  0  0  0  0
   -2.7098   -4.6085   -0.6259 Cl  0  0  0  0  0  0  0  0  0  0  0  0
    2.1041   -1.4018   -1.9205 C   0  0  0  0  0  0  0  0  0  0  0  0
    0.6747   -0.5134   -2.3631 S   0  0  0  0  0  0  0  0  0  0  0  0
    3.7712   -4.3051   -0.2177 C   0  0  0  0  0  0  0  0  0  0  0  0
    5.0990   -4.5384   -0.1891 C   0  0  0  0  0  0  0  0  0  0  0  0
    6.0353   -3.3183   -0.9766 S   0  0  0  0  0  0  0  0  0  0  0  0
    2.6580   -5.9743   11.6991 H   0  0  0  0  0  0  0  0  0  0  0  0
    3.2232   -3.6893   10.5905 H   0  0  0  0  0  0  0  0  0  0  0  0
    6.2380    0.7550    9.1846 H   0  0  0  0  0  0  0  0  0  0  0  0
    6.7583   -0.9373    9.0654 H   0  0  0  0  0  0  0  0  0  0  0  0
    7.6800    0.4039    7.1889 H   0  0  0  0  0  0  0  0  0  0  0  0
    6.0469    0.8695    6.7026 H   0  0  0  0  0  0  0  0  0  0  0  0
    6.5570   -0.8169    6.5788 H   0  0  0  0  0  0  0  0  0  0  0  0
   -2.7009   -9.2006    5.0786 H   0  0  0  0  0  0  0  0  0  0  0  0
   -3.9762   -9.5177    6.2694 H   0  0  0  0  0  0  0  0  0  0  0  0
   -5.1900   -7.4789    5.5047 H   0  0  0  0  0  0  0  0  0  0  0  0
   -3.9179   -7.1509    4.3231 H   0  0  0  0  0  0  0  0  0  0  0  0
   -4.9245   -8.5952    4.1601 H   0  0  0  0  0  0  0  0  0  0  0  0
   -2.1162   -4.2028    5.8677 H   0  0  0  0  0  0  0  0  0  0  0  0
   -0.1702   -0.6967    3.3400 H   0  0  0  0  0  0  0  0  0  0  0  0
    3.5396    2.0540   -0.4337 H   0  0  0  0  0  0  0  0  0  0  0  0
    3.7529    0.4538    0.3005 H   0  0  0  0  0  0  0  0  0  0  0  0
    3.4359    1.4557    2.5661 H   0  0  0  0  0  0  0  0  0  0  0  0
    3.2409    3.0513    1.8324 H   0  0  0  0  0  0  0  0  0  0  0  0
    4.7892    2.2079    1.7143 H   0  0  0  0  0  0  0  0  0  0  0  0
   -8.3082   -6.2525    2.4776 H   0  0  0  0  0  0  0  0  0  0  0  0
   -6.8600   -6.5522    3.4561 H   0  0  0  0  0  0  0  0  0  0  0  0
   -7.1479   -7.2128    0.4857 H   0  0  0  0  0  0  0  0  0  0  0  0
   -7.1835   -8.3771    1.8119 H   0  0  0  0  0  0  0  0  0  0  0  0
   -5.6981   -7.4844    1.4567 H   0  0  0  0  0  0  0  0  0  0  0  0
   -5.4228   -2.2443   -1.2964 H   0  0  0  0  0  0  0  0  0  0  0  0
   -6.3948    1.9080   -6.5741 H   0  0  0  0  0  0  0  0  0  0  0  0
   -3.3613    1.7814   -7.0840 H   0  0  0  0  0  0  0  0  0  0  0  0
   -4.9577    7.8538   -9.2035 H   0  0  0  0  0  0  0  0  0  0  0  0
   -2.9906    8.8165   -8.0036 H   0  0  0  0  0  0  0  0  0  0  0  0
   -0.4261    6.9505   -7.9230 H   0  0  0  0  0  0  0  0  0  0  0  0
    5.6838    5.9081   -8.9450 H   0  0  0  0  0  0  0  0  0  0  0  0
    5.2961    4.1774   -8.8820 H   0  0  0  0  0  0  0  0  0  0  0  0
    3.6805    4.4756  -10.7608 H   0  0  0  0  0  0  0  0  0  0  0  0
    5.3045    4.9930  -11.2283 H   0  0  0  0  0  0  0  0  0  0  0  0
    4.0749    6.1962  -10.8280 H   0  0  0  0  0  0  0  0  0  0  0  0
   -6.8209    2.7427   -1.6262 H   0  0  0  0  0  0  0  0  0  0  0  0
   -6.0146    1.2718   -2.1896 H   0  0  0  0  0  0  0  0  0  0  0  0
   -6.2775    1.2613    0.2812 H   0  0  0  0  0  0  0  0  0  0  0  0
   -5.3742    2.7719    0.4006 H   0  0  0  0  0  0  0  0  0  0  0  0
   -4.5656    1.3017   -0.1431 H   0  0  0  0  0  0  0  0  0  0  0  0
   -0.9984    1.7902   -3.0016 H   0  0  0  0  0  0  0  0  0  0  0  0
    3.7065    1.1149   -3.4936 H   0  0  0  0  0  0  0  0  0  0  0  0
    9.9142    1.0025   -3.5312 H   0  0  0  0  0  0  0  0  0  0  0  0
    9.8267    0.5415   -1.8200 H   0  0  0  0  0  0  0  0  0  0  0  0
   10.1348    2.9955   -2.0597 H   0  0  0  0  0  0  0  0  0  0  0  0
    8.5684    2.6381   -1.3232 H   0  0  0  0  0  0  0  0  0  0  0  0
    8.6602    3.0983   -3.0264 H   0  0  0  0  0  0  0  0  0  0  0  0
   -0.8369   -4.5614    3.1558 H   0  0  0  0  0  0  0  0  0  0  0  0
   -2.2659   -4.9719    2.1817 H   0  0  0  0  0  0  0  0  0  0  0  0
    0.3438   -6.5601    2.2505 H   0  0  0  0  0  0  0  0  0  0  0  0
   -1.0945   -6.9810    1.3132 H   0  0  0  0  0  0  0  0  0  0  0  0
   -1.1500   -6.9996    3.0822 H   0  0  0  0  0  0  0  0  0  0  0  0
    3.0497   -4.9768    0.2073 H   0  0  0  0  0  0  0  0  0  0  0  0
    5.6096   -5.3731    0.2495 H   0  0  0  0  0  0  0  0  0  0  0  0
  1  2  2  0  0  0  0
  2  3  1  0  0  0  0
  3  4  2  0  0  0  0
  4  5  1  0  0  0  0
  5  6  1  0  0  0  0
  6  7  1  0  0  0  0
  7  8  1  0  0  0  0
  8  9  1  0  0  0  0
  7 10  2  0  0  0  0
 10 11  1  0  0  0  0
 10 12  1  0  0  0  0
 12 13  1  0  0  0  0
  4 14  1  0  0  0  0
 14 15  2  0  0  0  0
 15 16  1  0  0  0  0
 16 17  1  0  0  0  0
 17 18  1  0  0  0  0
 18 19  1  0  0  0  0
 19 20  1  0  0  0  0
 20 21  1  0  0  0  0
 19 22  2  0  0  0  0
 22 23  1  0  0  0  0
 23 24  1  0  0  0  0
 22 25  1  0  0  0  0
 16 26  2  0  0  0  0
 26 27  1  0  0  0  0
 15 28  1  0  0  0  0
 28 29  2  0  0  0  0
 29 30  1  0  0  0  0
 29 31  1  0  0  0  0
 31 32  2  0  0  0  0
 32 33  1  0  0  0  0
 33 34  2  0  0  0  0
 34 35  1  0  0  0  0
 35 36  1  0  0  0  0
 36 37  1  0  0  0  0
 37 38  1  0  0  0  0
 38 39  1  0  0  0  0
 37 40  2  0  0  0  0
 40 41  1  0  0  0  0
 40 42  1  0  0  0  0
 42 43  1  0  0  0  0
 34 44  1  0  0  0  0
 44 45  2  0  0  0  0
 45 46  1  0  0  0  0
 46 47  1  0  0  0  0
 47 48  1  0  0  0  0
 48 49  1  0  0  0  0
 49 50  1  0  0  0  0
 50 51  1  0  0  0  0
 49 52  2  0  0  0  0
 52 53  1  0  0  0  0
 53 54  1  0  0  0  0
 52 55  1  0  0  0  0
 46 56  2  0  0  0  0
 56 57  1  0  0  0  0
 45 58  1  0  0  0  0
 58 59  2  0  0  0  0
 59 60  1  0  0  0  0
 59 61  1  0  0  0  0
 61 62  2  0  0  0  0
 62 63  1  0  0  0  0
 63 64  2  0  0  0  0
 64 65  1  0  0  0  0
 65 66  2  0  0  0  0
 64 67  1  0  0  0  0
 67 68  2  0  0  0  0
 68 69  1  0  0  0  0
 69 70  2  0  0  0  0
 70 71  1  0  0  0  0
 71 72  2  0  0  0  0
 72 73  1  0  0  0  0
 73 74  2  0  0  0  0
 72 75  1  0  0  0  0
 75 76  2  0  0  0  0
 76 77  1  0  0  0  0
 77 78  2  0  0  0  0
 78 79  1  0  0  0  0
 79 80  2  0  0  0  0
 80 81  1  0  0  0  0
 81 82  1  0  0  0  0
 82 83  1  0  0  0  0
 83 84  1  0  0  0  0
 84 85  1  0  0  0  0
 83 86  2  0  0  0  0
 86 87  1  0  0  0  0
 86 88  1  0  0  0  0
 88 89  1  0  0  0  0
 80 90  1  0  0  0  0
 90 91  2  0  0  0  0
 91 92  1  0  0  0  0
 92 93  1  0  0  0  0
 93 94  1  0  0  0  0
 94 95  1  0  0  0  0
 95 96  1  0  0  0  0
 96 97  1  0  0  0  0
 95 98  2  0  0  0  0
 98 99  1  0  0  0  0
 99100  1  0  0  0  0
 98101  1  0  0  0  0
 92102  2  0  0  0  0
102103  1  0  0  0  0
 91104  1  0  0  0  0
104105  2  0  0  0  0
105106  1  0  0  0  0
105107  1  0  0  0  0
107108  2  0  0  0  0
108109  1  0  0  0  0
109110  2  0  0  0  0
110111  1  0  0  0  0
111112  1  0  0  0  0
112113  1  0  0  0  0
113114  1  0  0  0  0
114115  1  0  0  0  0
113116  2  0  0  0  0
116117  1  0  0  0  0
116118  1  0  0  0  0
118119  1  0  0  0  0
110120  1  0  0  0  0
120121  2  0  0  0  0
121122  1  0  0  0  0
122123  1  0  0  0  0
123124  1  0  0  0  0
124125  1  0  0  0  0
125126  1  0  0  0  0
126127  1  0  0  0  0
125128  2  0  0  0  0
128129  1  0  0  0  0
129130  1  0  0  0  0
128131  1  0  0  0  0
122132  2  0  0  0  0
132133  1  0  0  0  0
121134  1  0  0  0  0
134135  2  0  0  0  0
135136  1  0  0  0  0
 27  1  1  0  0  0  0
 57 31  1  0  0  0  0
 66 61  1  0  0  0  0
 74 69  1  0  0  0  0
103 77  1  0  0  0  0
133107  1  0  0  0  0
 26  3  1  0  0  0  0
 56 33  1  0  0  0  0
102 79  1  0  0  0  0
132109  1  0  0  0  0
 12  5  2  0  0  0  0
 30 14  1  0  0  0  0
 42 35  2  0  0  0  0
 60 44  1  0  0  0  0
 88 81  2  0  0  0  0
106 90  1  0  0  0  0
118111  2  0  0  0  0
136120  1  0  0  0  0
 23 17  2  0  0  0  0
 53 47  2  0  0  0  0
 99 93  2  0  0  0  0
129123  2  0  0  0  0
  1137  1  0  0  0  0
  2138  1  0  0  0  0
  8139  1  0  0  0  0
  8140  1  0  0  0  0
  9141  1  0  0  0  0
  9142  1  0  0  0  0
  9143  1  0  0  0  0
 20144  1  0  0  0  0
 20145  1  0  0  0  0
 21146  1  0  0  0  0
 21147  1  0  0  0  0
 21148  1  0  0  0  0
 28149  1  0  0  0  0
 32150  1  0  0  0  0
 38151  1  0  0  0  0
 38152  1  0  0  0  0
 39153  1  0  0  0  0
 39154  1  0  0  0  0
 39155  1  0  0  0  0
 50156  1  0  0  0  0
 50157  1  0  0  0  0
 51158  1  0  0  0  0
 51159  1  0  0  0  0
 51160  1  0  0  0  0
 58161  1  0  0  0  0
 67162  1  0  0  0  0
 68163  1  0  0  0  0
 75164  1  0  0  0  0
 76165  1  0  0  0  0
 78166  1  0  0  0  0
 84167  1  0  0  0  0
 84168  1  0  0  0  0
 85169  1  0  0  0  0
 85170  1  0  0  0  0
 85171  1  0  0  0  0
 96172  1  0  0  0  0
 96173  1  0  0  0  0
 97174  1  0  0  0  0
 97175  1  0  0  0  0
 97176  1  0  0  0  0
104177  1  0  0  0  0
108178  1  0  0  0  0
114179  1  0  0  0  0
114180  1  0  0  0  0
115181  1  0  0  0  0
115182  1  0  0  0  0
115183  1  0  0  0  0
126184  1  0  0  0  0
126185  1  0  0  0  0
127186  1  0  0  0  0
127187  1  0  0  0  0
127188  1  0  0  0  0
134189  1  0  0  0  0
135190  1  0  0  0  0
M  END
