190

C          2.15240       -5.52070       10.86920
C          2.42730       -4.33980       10.27830
C          1.54880       -4.04490        9.19540
C          1.57440       -2.93480        8.33560
C          2.57990       -1.89120        8.46380
S          4.28000       -2.25600        8.44320
C          4.72080       -0.59010        8.60150
C          6.14680       -0.16250        8.60020
C          6.64000        0.08980        7.17330
C          3.60510        0.19060        8.65870
Cl         3.64140        1.89850        8.81980
C          2.39010       -0.54250        8.58280
Cl         0.85450        0.20690        8.71430
C          0.60660       -2.88500        7.33980
C         -0.38540       -3.88410        7.19530
C         -0.39830       -5.00890        8.03650
C         -1.35440       -6.07820        7.80230
S         -1.51310       -6.76610        6.20980
C         -2.76420       -7.84990        6.71190
C         -3.44540       -8.73410        5.72670
C         -4.43380       -7.93640        4.87130
C         -3.02680       -7.68290        8.03850
C         -2.22520       -6.68610        8.66190
Cl        -2.42450       -6.24720       10.30560
Cl        -4.21250       -8.57460        8.90050
C          0.57410       -5.05980        9.02740
S          0.80820       -6.35080       10.16920
C         -1.26640       -3.59860        6.12670
C         -0.93020       -2.47920        5.42640
S          0.47860       -1.68010        6.08560
C         -1.57300       -2.04590        4.22890
C         -1.10060       -1.22610        3.24990
C         -1.92270       -1.19830        2.09470
C         -1.70560       -0.51870        0.88470
C         -0.55340        0.33860        0.66650
S          1.05850       -0.18830        1.06270
C          1.78380        1.22820        0.39060
C          3.25950        1.42150        0.41100
C          3.71060        2.07790        1.71760
C          0.82100        2.07500       -0.07150
Cl         1.14960        3.58730       -0.81450
C         -0.50110        1.57890        0.08590
Cl        -1.86620        2.52790       -0.33270
C         -2.62930       -0.75180       -0.13270
C         -3.78580       -1.56000        0.02370
C         -4.02760       -2.19630        1.25520
C         -5.17820       -3.05880        1.46290
S         -4.98400       -4.66340        2.10930
C         -6.67990       -4.99220        2.03680
C         -7.21940       -6.31540        2.45220
C         -6.78330       -7.42010        1.48850
C         -7.34680       -3.91430        1.53710
C         -6.50100       -2.81810        1.21330
Cl        -7.12970       -1.32670        0.65150
Cl        -9.04840       -3.85080        1.31840
C         -3.07230       -2.01440        2.24500
S         -3.11980       -2.75790        3.81560
C         -4.52370       -1.66910       -1.18140
C         -3.94190       -1.00410       -2.21750
S         -2.47000       -0.19200       -1.76380
C         -4.39940       -0.81860       -3.56020
N         -5.72030       -0.85520       -3.89960
N         -6.01260       -0.09690       -4.88370
C         -5.09330        0.44940       -5.66220
N         -3.88030       -0.17450       -5.67600
N         -3.54490       -0.66910       -4.55110
C         -5.37570        1.55760       -6.52120
C         -4.36740        2.16850       -7.17170
C         -4.48780        3.35420       -7.95930
N         -5.65880        3.93590       -8.32270
N         -5.58080        5.19310       -8.56760
C         -4.42590        5.81060       -8.68580
N         -3.35090        5.03020       -8.99600
N         -3.39050        3.85560       -8.51140
C         -4.25140        7.24860       -8.65850
C         -3.21370        7.75970       -7.98700
C         -2.40940        6.89590       -7.13180
C         -1.10000        6.55630       -7.18520
C         -0.73360        5.55430       -6.24110
C          0.50140        4.90300       -6.08290
C          1.67900        5.33770       -6.81230
S          2.67260        4.21820       -7.69510
C          3.75660        5.46430       -8.20760
C          4.89990        5.16730       -9.11360
C          4.46070        5.21080      -10.57930
C          3.35760        6.67290       -7.71800
Cl         4.18840        8.14590       -8.01130
C          2.18250        6.60540       -6.92400
Cl         1.53020        7.97620       -6.12280
C          0.53680        3.82200       -5.20870
C         -0.57590        3.41000       -4.43350
C         -1.77130        4.14190       -4.49920
C         -2.89240        3.91970       -3.60010
S         -3.73500        2.41090       -3.45360
C         -4.83030        3.03550       -2.26730
C         -5.87620        2.19320       -1.62220
C         -5.49720        1.86030       -0.17760
C         -4.54340        4.34330       -2.01170
C         -3.45050        4.84710       -2.76410
Cl        -2.85710        6.44230       -2.57050
Cl        -5.41830        5.31360       -0.90190
C         -1.82890        5.16380       -5.43760
S         -3.26590        6.04670       -5.85110
C         -0.28170        2.27430       -3.63900
C          1.00330        1.84260       -3.76910
S          1.92900        2.83090       -4.88250
C          1.63140        0.72640       -3.13940
C          2.96420        0.45740       -3.07950
C          3.26760       -0.74900       -2.40180
C          4.53840       -1.27920       -2.13690
C          5.74060       -0.63440       -2.63660
S          7.04690       -0.20310       -1.57350
C          7.99000        0.44750       -2.87000
C          9.31570        1.07750       -2.62140
C          9.15910        2.54950       -2.23180
C          7.31490        0.33680       -4.04890
Cl         7.93110        0.87170       -5.55780
C          6.04040       -0.27840       -3.92250
Cl         5.03110       -0.60040       -5.27340
C          4.58560       -2.44610       -1.38560
C          3.42960       -3.09590       -0.89360
C          2.15120       -2.55690       -1.14250
C          0.97020       -3.16840       -0.55400
S          0.99890       -3.64920        1.12400
C         -0.60660       -4.28540        1.06750
C         -1.17720       -5.02240        2.22770
C         -0.74040       -6.48890        2.21500
C         -1.13480       -4.10050       -0.17430
C         -0.25350       -3.46420       -1.09260
Cl        -0.69770       -3.23350       -2.73250
Cl        -2.70980       -4.60850       -0.62590
C          2.10410       -1.40180       -1.92050
S          0.67470       -0.51340       -2.36310
C          3.77120       -4.30510       -0.21770
C          5.09900       -4.53840       -0.18910
S          6.03530       -3.31830       -0.97660
H          2.65800       -5.97430       11.69910
H          3.22320       -3.68930       10.59050
H          6.23800        0.75500        9.18460
H          6.75830       -0.93730        9.06540
H          7.68000        0.40390        7.18890
H          6.04690        0.86950        6.70260
H          6.55700       -0.81690        6.57880
H         -2.70090       -9.20060        5.07860
H         -3.97620       -9.51770        6.26940
H         -5.19000       -7.47890        5.50470
H         -3.91790       -7.15090        4.32310
H         -4.92450       -8.59520        4.16010
H         -2.11620       -4.20280        5.86770
H         -0.17020       -0.69670        3.34000
H          3.53960        2.05400       -0.43370
H          3.75290        0.45380        0.30050
H          3.43590        1.45570        2.56610
H          3.24090        3.05130        1.83240
H          4.78920        2.20790        1.71430
H         -8.30820       -6.25250        2.47760
H         -6.86000       -6.55220        3.45610
H         -7.14790       -7.21280        0.48570
H         -7.18350       -8.37710        1.81190
H         -5.69810       -7.48440        1.45670
H         -5.42280       -2.24430       -1.29640
H         -6.39480        1.90800       -6.57410
H         -3.36130        1.78140       -7.08400
H         -4.95770        7.85380       -9.20350
H         -2.99060        8.81650       -8.00360
H         -0.42610        6.95050       -7.92300
H          5.68380        5.90810       -8.94500
H          5.29610        4.17740       -8.88200
H          3.68050        4.47560      -10.76080
H          5.30450        4.99300      -11.22830
H          4.07490        6.19620      -10.82800
H         -6.82090        2.74270       -1.62620
H         -6.01460        1.27180       -2.18960
H         -6.27750        1.26130        0.28120
H         -5.37420        2.77190        0.40060
H         -4.56560        1.30170       -0.14310
H         -0.99840        1.79020       -3.00160
H          3.70650        1.11490       -3.49360
H          9.91420        1.00250       -3.53120
H          9.82670        0.54150       -1.82000
H         10.13480        2.99550       -2.05970
H          8.56840        2.63810       -1.32320
H          8.66020        3.09830       -3.02640
H         -0.83690       -4.56140        3.15580
H         -2.26590       -4.97190        2.18170
H          0.34380       -6.56010        2.25050
H         -1.09450       -6.98100        1.31320
H         -1.15000       -6.99960        3.08220
H          3.04970       -4.97680        0.20730
H          5.60960       -5.37310        0.24950
