
  xtb     03072223573D
 energy: -345.508532963955 gnorm: 0.000263986060 xtb: 6.4.1 (unknown)
182202  0     0  0            999 V2000
    5.7870   -7.9486   11.0799 C   0  0  0  0  0  0  0  0  0  0  0  0
    5.9174   -6.9874   10.1425 C   0  0  0  0  0  0  0  0  0  0  0  0
    4.9572   -7.1009    9.0945 C   0  0  0  0  0  0  0  0  0  0  0  0
    4.8248   -6.3009    7.9496 C   0  0  0  0  0  0  0  0  0  0  0  0
    5.6480   -5.1055    7.7288 C   0  0  0  0  0  0  0  0  0  0  0  0
    5.7665   -4.1281    8.7123 C   0  0  0  0  0  0  0  0  0  0  0  0
    6.4982   -2.9759    8.4942 C   0  0  0  0  0  0  0  0  0  0  0  0
    7.1424   -2.7625    7.2803 C   0  0  0  0  0  0  0  0  0  0  0  0
    8.0949   -1.3464    6.8595 S   0  0  0  0  0  0  0  0  0  0  0  0
    7.9789   -0.2893    8.3511 C   0  0  0  0  0  0  0  0  0  0  0  0
    8.7482    0.9930    8.0944 C   0  0  0  0  0  0  0  0  0  0  0  0
    7.0211   -3.7563    6.3057 C   0  0  0  0  0  0  0  0  0  0  0  0
    7.6404   -3.5839    5.1212 F   0  0  0  0  0  0  0  0  0  0  0  0
    6.2920   -4.9046    6.5089 C   0  0  0  0  0  0  0  0  0  0  0  0
    3.8449   -6.6760    7.0422 C   0  0  0  0  0  0  0  0  0  0  0  0
    2.9848   -7.7867    7.2382 C   0  0  0  0  0  0  0  0  0  0  0  0
    3.1133   -8.5833    8.3897 C   0  0  0  0  0  0  0  0  0  0  0  0
    2.2461   -9.7439    8.6178 C   0  0  0  0  0  0  0  0  0  0  0  0
    1.5660   -9.9025    9.8243 C   0  0  0  0  0  0  0  0  0  0  0  0
    0.7553  -10.9963   10.0319 C   0  0  0  0  0  0  0  0  0  0  0  0
    0.5904  -11.9790    9.0555 C   0  0  0  0  0  0  0  0  0  0  0  0
   -0.5204  -13.2945    9.4462 S   0  0  0  0  0  0  0  0  0  0  0  0
    0.1669  -14.7705    8.6099 C   0  0  0  0  0  0  0  0  0  0  0  0
    1.5709  -15.0881    9.0835 C   0  0  0  0  0  0  0  0  0  0  0  0
    1.2671  -11.8007    7.8516 C   0  0  0  0  0  0  0  0  0  0  0  0
    2.0859  -10.7118    7.6316 C   0  0  0  0  0  0  0  0  0  0  0  0
    1.1553  -12.6973    6.8494 F   0  0  0  0  0  0  0  0  0  0  0  0
    4.0997   -8.2114    9.2920 C   0  0  0  0  0  0  0  0  0  0  0  0
    4.4976   -9.0570   10.7662 S   0  0  0  0  0  0  0  0  0  0  0  0
    2.0190   -7.9046    6.2100 C   0  0  0  0  0  0  0  0  0  0  0  0
    2.1286   -6.9398    5.2479 C   0  0  0  0  0  0  0  0  0  0  0  0
    3.4527   -5.8270    5.5743 S   0  0  0  0  0  0  0  0  0  0  0  0
    1.3331   -6.7102    4.0916 C   0  0  0  0  0  0  0  0  0  0  0  0
    1.7070   -5.3166    3.1104 S   0  0  0  0  0  0  0  0  0  0  0  0
    0.3855   -5.6152    2.0112 C   0  0  0  0  0  0  0  0  0  0  0  0
   -0.2903   -6.7609    2.3919 C   0  0  0  0  0  0  0  0  0  0  0  0
    0.2432   -7.3782    3.5600 C   0  0  0  0  0  0  0  0  0  0  0  0
   -0.4424   -8.5877    3.9784 C   0  0  0  0  0  0  0  0  0  0  0  0
   -0.2406   -9.3141    4.9106 O   0  0  0  0  0  0  0  0  0  0  0  0
   -1.7770   -8.9049    2.8029 S   0  0  0  0  0  0  0  0  0  0  0  0
   -1.4280   -7.4438    1.8024 C   0  0  0  0  0  0  0  0  0  0  0  0
   -2.0821   -7.1705    0.8346 O   0  0  0  0  0  0  0  0  0  0  0  0
    0.1557   -4.6702    0.9735 C   0  0  0  0  0  0  0  0  0  0  0  0
   -0.9313   -4.5211    0.1579 C   0  0  0  0  0  0  0  0  0  0  0  0
   -0.8607   -3.3761   -0.6699 C   0  0  0  0  0  0  0  0  0  0  0  0
   -1.8539   -2.8875   -1.5398 C   0  0  0  0  0  0  0  0  0  0  0  0
   -3.0550   -3.6766   -1.8291 C   0  0  0  0  0  0  0  0  0  0  0  0
   -2.9383   -5.0164   -2.2018 C   0  0  0  0  0  0  0  0  0  0  0  0
   -4.0580   -5.7633   -2.4921 C   0  0  0  0  0  0  0  0  0  0  0  0
   -5.3369   -5.2125   -2.4213 C   0  0  0  0  0  0  0  0  0  0  0  0
   -6.6894   -6.2580   -2.8673 S   0  0  0  0  0  0  0  0  0  0  0  0
   -8.0040   -5.8309   -1.6665 C   0  0  0  0  0  0  0  0  0  0  0  0
   -7.5508   -6.0459   -0.2366 C   0  0  0  0  0  0  0  0  0  0  0  0
   -5.4363   -3.8701   -2.0664 C   0  0  0  0  0  0  0  0  0  0  0  0
   -6.6375   -3.2574   -2.0007 F   0  0  0  0  0  0  0  0  0  0  0  0
   -4.3235   -3.1100   -1.7675 C   0  0  0  0  0  0  0  0  0  0  0  0
   -1.6191   -1.6445   -2.1084 C   0  0  0  0  0  0  0  0  0  0  0  0
   -0.4146   -0.9190   -1.9123 C   0  0  0  0  0  0  0  0  0  0  0  0
    0.6014   -1.4344   -1.0894 C   0  0  0  0  0  0  0  0  0  0  0  0
    1.8728   -0.7286   -0.8814 C   0  0  0  0  0  0  0  0  0  0  0  0
    3.0824   -1.3911   -1.0835 C   0  0  0  0  0  0  0  0  0  0  0  0
    4.2821   -0.7403   -0.8877 C   0  0  0  0  0  0  0  0  0  0  0  0
    4.3223    0.5913   -0.4847 C   0  0  0  0  0  0  0  0  0  0  0  0
    5.9096    1.3611   -0.3064 S   0  0  0  0  0  0  0  0  0  0  0  0
    5.7753    2.2099    1.3098 C   0  0  0  0  0  0  0  0  0  0  0  0
    5.4933    1.2335    2.4337 C   0  0  0  0  0  0  0  0  0  0  0  0
    3.1083    1.2461   -0.3013 C   0  0  0  0  0  0  0  0  0  0  0  0
    1.8995    0.6036   -0.4808 C   0  0  0  0  0  0  0  0  0  0  0  0
    3.0783    2.5458    0.0584 F   0  0  0  0  0  0  0  0  0  0  0  0
    0.3378   -2.6444   -0.4698 C   0  0  0  0  0  0  0  0  0  0  0  0
    1.3581   -3.4115    0.7135 S   0  0  0  0  0  0  0  0  0  0  0  0
   -0.4142    0.3038   -2.6216 C   0  0  0  0  0  0  0  0  0  0  0  0
   -1.5739    0.5424   -3.3045 C   0  0  0  0  0  0  0  0  0  0  0  0
   -2.7123   -0.7761   -3.1545 S   0  0  0  0  0  0  0  0  0  0  0  0
   -1.9135    1.7475   -3.9916 C   0  0  0  0  0  0  0  0  0  0  0  0
   -1.1182    2.8519   -4.1168 C   0  0  0  0  0  0  0  0  0  0  0  0
   -1.7606    3.9489   -4.7339 C   0  0  0  0  0  0  0  0  0  0  0  0
   -1.2203    5.2237   -4.9849 C   0  0  0  0  0  0  0  0  0  0  0  0
    0.1305    5.5606   -4.5204 C   0  0  0  0  0  0  0  0  0  0  0  0
    1.0834    6.1202   -5.3682 C   0  0  0  0  0  0  0  0  0  0  0  0
    2.3699    6.3457   -4.9229 C   0  0  0  0  0  0  0  0  0  0  0  0
    2.7491    6.0418   -3.6179 C   0  0  0  0  0  0  0  0  0  0  0  0
    4.4274    6.3236   -3.1338 S   0  0  0  0  0  0  0  0  0  0  0  0
    4.8507    4.7659   -2.2645 C   0  0  0  0  0  0  0  0  0  0  0  0
    4.7008    3.5598   -3.1696 C   0  0  0  0  0  0  0  0  0  0  0  0
    1.7651    5.5576   -2.7599 C   0  0  0  0  0  0  0  0  0  0  0  0
    2.0375    5.3185   -1.4613 F   0  0  0  0  0  0  0  0  0  0  0  0
    0.4832    5.3016   -3.1981 C   0  0  0  0  0  0  0  0  0  0  0  0
   -2.0394    6.1223   -5.6464 C   0  0  0  0  0  0  0  0  0  0  0  0
   -3.3699    5.8093   -6.0356 C   0  0  0  0  0  0  0  0  0  0  0  0
   -3.9145    4.5349   -5.7750 C   0  0  0  0  0  0  0  0  0  0  0  0
   -5.2859    4.2085   -6.1729 C   0  0  0  0  0  0  0  0  0  0  0  0
   -5.7454    4.4930   -7.4569 C   0  0  0  0  0  0  0  0  0  0  0  0
   -7.0463    4.2211   -7.8296 C   0  0  0  0  0  0  0  0  0  0  0  0
   -7.9418    3.6545   -6.9287 C   0  0  0  0  0  0  0  0  0  0  0  0
   -9.6335    3.2958   -7.2393 S   0  0  0  0  0  0  0  0  0  0  0  0
   -9.8791    3.7286   -8.9959 C   0  0  0  0  0  0  0  0  0  0  0  0
   -9.3350    2.6673   -9.9341 C   0  0  0  0  0  0  0  0  0  0  0  0
   -7.4621    3.3589   -5.6494 C   0  0  0  0  0  0  0  0  0  0  0  0
   -6.1671    3.6194   -5.2665 C   0  0  0  0  0  0  0  0  0  0  0  0
   -8.3024    2.8128   -4.7491 F   0  0  0  0  0  0  0  0  0  0  0  0
   -3.0902    3.6356   -5.1170 C   0  0  0  0  0  0  0  0  0  0  0  0
   -3.5025    1.9977   -4.6768 S   0  0  0  0  0  0  0  0  0  0  0  0
   -4.0299    6.9193   -6.6038 C   0  0  0  0  0  0  0  0  0  0  0  0
   -3.2497    8.0432   -6.6786 C   0  0  0  0  0  0  0  0  0  0  0  0
   -1.6358    7.7723   -6.0313 S   0  0  0  0  0  0  0  0  0  0  0  0
   -3.5889    9.3345   -7.1586 C   0  0  0  0  0  0  0  0  0  0  0  0
   -2.4608   10.6367   -6.8908 S   0  0  0  0  0  0  0  0  0  0  0  0
   -3.5049   11.8162   -7.6589 C   0  0  0  0  0  0  0  0  0  0  0  0
   -4.6612   11.1872   -8.0993 C   0  0  0  0  0  0  0  0  0  0  0  0
   -4.7150    9.7971   -7.8276 C   0  0  0  0  0  0  0  0  0  0  0  0
   -5.8998    9.1249   -8.3236 C   0  0  0  0  0  0  0  0  0  0  0  0
   -6.2289    7.9737   -8.2825 O   0  0  0  0  0  0  0  0  0  0  0  0
   -6.9497   10.3704   -9.1284 S   0  0  0  0  0  0  0  0  0  0  0  0
   -5.8162   11.7153   -8.8027 C   0  0  0  0  0  0  0  0  0  0  0  0
   -6.0416   12.8466   -9.1437 O   0  0  0  0  0  0  0  0  0  0  0  0
   -3.1327   13.1874   -7.7575 C   0  0  0  0  0  0  0  0  0  0  0  0
   -4.1812   14.3964   -8.4841 S   0  0  0  0  0  0  0  0  0  0  0  0
   -3.0540   15.6518   -8.1882 C   0  0  0  0  0  0  0  0  0  0  0  0
   -1.9289   15.1916   -7.5716 C   0  0  0  0  0  0  0  0  0  0  0  0
   -1.9624   13.7970   -7.3220 C   0  0  0  0  0  0  0  0  0  0  0  0
   -0.7738   13.2804   -6.6691 C   0  0  0  0  0  0  0  0  0  0  0  0
   -0.5170   12.1540   -6.3397 O   0  0  0  0  0  0  0  0  0  0  0  0
    0.3680   14.6442   -6.3906 S   0  0  0  0  0  0  0  0  0  0  0  0
   -0.7242   15.8884   -7.1366 C   0  0  0  0  0  0  0  0  0  0  0  0
   -0.4391   17.0429   -7.2189 O   0  0  0  0  0  0  0  0  0  0  0  0
    6.3791   -8.0901   11.9631 H   0  0  0  0  0  0  0  0  0  0  0  0
    6.6772   -6.2276   10.1664 H   0  0  0  0  0  0  0  0  0  0  0  0
    5.2551   -4.2566    9.6544 H   0  0  0  0  0  0  0  0  0  0  0  0
    6.5567   -2.2400    9.2793 H   0  0  0  0  0  0  0  0  0  0  0  0
    8.4072   -0.8388    9.1895 H   0  0  0  0  0  0  0  0  0  0  0  0
    6.9246   -0.0810    8.5343 H   0  0  0  0  0  0  0  0  0  0  0  0
    8.3357    1.5186    7.2363 H   0  0  0  0  0  0  0  0  0  0  0  0
    9.7946    0.7756    7.8940 H   0  0  0  0  0  0  0  0  0  0  0  0
    8.6863    1.6422    8.9651 H   0  0  0  0  0  0  0  0  0  0  0  0
    6.2454   -5.6411    5.7226 H   0  0  0  0  0  0  0  0  0  0  0  0
    1.6611   -9.1546   10.5962 H   0  0  0  0  0  0  0  0  0  0  0  0
    0.2259  -11.1131   10.9646 H   0  0  0  0  0  0  0  0  0  0  0  0
   -0.5304  -15.5596    8.8922 H   0  0  0  0  0  0  0  0  0  0  0  0
    0.1197  -14.6248    7.5334 H   0  0  0  0  0  0  0  0  0  0  0  0
    2.2637  -14.2962    8.8058 H   0  0  0  0  0  0  0  0  0  0  0  0
    1.9098  -16.0156    8.6265 H   0  0  0  0  0  0  0  0  0  0  0  0
    1.5921  -15.2021   10.1654 H   0  0  0  0  0  0  0  0  0  0  0  0
    2.6009  -10.6372    6.6865 H   0  0  0  0  0  0  0  0  0  0  0  0
    1.2572   -8.6611    6.1958 H   0  0  0  0  0  0  0  0  0  0  0  0
   -1.7734   -5.1871    0.1764 H   0  0  0  0  0  0  0  0  0  0  0  0
   -1.9615   -5.4680   -2.2763 H   0  0  0  0  0  0  0  0  0  0  0  0
   -3.9628   -6.7990   -2.7774 H   0  0  0  0  0  0  0  0  0  0  0  0
   -8.8116   -6.5139   -1.9303 H   0  0  0  0  0  0  0  0  0  0  0  0
   -8.3314   -4.8092   -1.8443 H   0  0  0  0  0  0  0  0  0  0  0  0
   -7.1958   -7.0648   -0.0970 H   0  0  0  0  0  0  0  0  0  0  0  0
   -8.3831   -5.8687    0.4416 H   0  0  0  0  0  0  0  0  0  0  0  0
   -6.7447   -5.3622    0.0229 H   0  0  0  0  0  0  0  0  0  0  0  0
   -4.4662   -2.0808   -1.4768 H   0  0  0  0  0  0  0  0  0  0  0  0
    3.0797   -2.4207   -1.4063 H   0  0  0  0  0  0  0  0  0  0  0  0
    5.2161   -1.2562   -1.0450 H   0  0  0  0  0  0  0  0  0  0  0  0
    5.0154    2.9851    1.2394 H   0  0  0  0  0  0  0  0  0  0  0  0
    6.7517    2.6790    1.4295 H   0  0  0  0  0  0  0  0  0  0  0  0
    4.5233    0.7570    2.2999 H   0  0  0  0  0  0  0  0  0  0  0  0
    5.4887    1.7624    3.3846 H   0  0  0  0  0  0  0  0  0  0  0  0
    6.2560    0.4585    2.4695 H   0  0  0  0  0  0  0  0  0  0  0  0
    0.9876    1.1490   -0.2923 H   0  0  0  0  0  0  0  0  0  0  0  0
    0.4172    0.9831   -2.6160 H   0  0  0  0  0  0  0  0  0  0  0  0
   -0.0973    2.8809   -3.7859 H   0  0  0  0  0  0  0  0  0  0  0  0
    0.8253    6.3417   -6.3921 H   0  0  0  0  0  0  0  0  0  0  0  0
    3.1142    6.7520   -5.5895 H   0  0  0  0  0  0  0  0  0  0  0  0
    5.8914    4.9107   -1.9766 H   0  0  0  0  0  0  0  0  0  0  0  0
    4.2424    4.6807   -1.3672 H   0  0  0  0  0  0  0  0  0  0  0  0
    5.0636    2.6717   -2.6563 H   0  0  0  0  0  0  0  0  0  0  0  0
    3.6574    3.4033   -3.4401 H   0  0  0  0  0  0  0  0  0  0  0  0
    5.2775    3.6927   -4.0824 H   0  0  0  0  0  0  0  0  0  0  0  0
   -0.2437    4.9306   -2.4918 H   0  0  0  0  0  0  0  0  0  0  0  0
   -5.0712    4.9170   -8.1847 H   0  0  0  0  0  0  0  0  0  0  0  0
   -7.3561    4.4711   -8.8302 H   0  0  0  0  0  0  0  0  0  0  0  0
   -9.4435    4.7109   -9.1725 H   0  0  0  0  0  0  0  0  0  0  0  0
  -10.9621    3.8072   -9.0913 H   0  0  0  0  0  0  0  0  0  0  0  0
   -9.8236    1.7145   -9.7448 H   0  0  0  0  0  0  0  0  0  0  0  0
   -9.5230    2.9554  -10.9667 H   0  0  0  0  0  0  0  0  0  0  0  0
   -8.2640    2.5333   -9.7995 H   0  0  0  0  0  0  0  0  0  0  0  0
   -5.8660    3.3926   -4.2562 H   0  0  0  0  0  0  0  0  0  0  0  0
   -5.0544    6.8973   -6.9221 H   0  0  0  0  0  0  0  0  0  0  0  0
   -3.2701   16.6603   -8.4820 H   0  0  0  0  0  0  0  0  0  0  0  0
  1  2  2  0  0  0  0
  2  3  1  0  0  0  0
  3  4  2  0  0  0  0
  4  5  1  0  0  0  0
  5  6  2  0  0  0  0
  6  7  1  0  0  0  0
  7  8  2  0  0  0  0
  8  9  1  0  0  0  0
  9 10  1  0  0  0  0
 10 11  1  0  0  0  0
  8 12  1  0  0  0  0
 12 13  1  0  0  0  0
 12 14  2  0  0  0  0
  4 15  1  0  0  0  0
 15 16  2  0  0  0  0
 16 17  1  0  0  0  0
 17 18  1  0  0  0  0
 18 19  2  0  0  0  0
 19 20  1  0  0  0  0
 20 21  2  0  0  0  0
 21 22  1  0  0  0  0
 22 23  1  0  0  0  0
 23 24  1  0  0  0  0
 21 25  1  0  0  0  0
 25 26  2  0  0  0  0
 25 27  1  0  0  0  0
 17 28  2  0  0  0  0
 28 29  1  0  0  0  0
 16 30  1  0  0  0  0
 30 31  2  0  0  0  0
 31 32  1  0  0  0  0
 31 33  1  0  0  0  0
 33 34  1  0  0  0  0
 34 35  1  0  0  0  0
 35 36  2  0  0  0  0
 36 37  1  0  0  0  0
 37 38  1  0  0  0  0
 38 39  2  0  0  0  0
 38 40  1  0  0  0  0
 40 41  1  0  0  0  0
 41 42  2  0  0  0  0
 35 43  1  0  0  0  0
 43 44  2  0  0  0  0
 44 45  1  0  0  0  0
 45 46  2  0  0  0  0
 46 47  1  0  0  0  0
 47 48  2  0  0  0  0
 48 49  1  0  0  0  0
 49 50  2  0  0  0  0
 50 51  1  0  0  0  0
 51 52  1  0  0  0  0
 52 53  1  0  0  0  0
 50 54  1  0  0  0  0
 54 55  1  0  0  0  0
 54 56  2  0  0  0  0
 46 57  1  0  0  0  0
 57 58  2  0  0  0  0
 58 59  1  0  0  0  0
 59 60  1  0  0  0  0
 60 61  2  0  0  0  0
 61 62  1  0  0  0  0
 62 63  2  0  0  0  0
 63 64  1  0  0  0  0
 64 65  1  0  0  0  0
 65 66  1  0  0  0  0
 63 67  1  0  0  0  0
 67 68  2  0  0  0  0
 67 69  1  0  0  0  0
 59 70  2  0  0  0  0
 70 71  1  0  0  0  0
 58 72  1  0  0  0  0
 72 73  2  0  0  0  0
 73 74  1  0  0  0  0
 73 75  1  0  0  0  0
 75 76  2  0  0  0  0
 76 77  1  0  0  0  0
 77 78  2  0  0  0  0
 78 79  1  0  0  0  0
 79 80  2  0  0  0  0
 80 81  1  0  0  0  0
 81 82  2  0  0  0  0
 82 83  1  0  0  0  0
 83 84  1  0  0  0  0
 84 85  1  0  0  0  0
 82 86  1  0  0  0  0
 86 87  1  0  0  0  0
 86 88  2  0  0  0  0
 78 89  1  0  0  0  0
 89 90  2  0  0  0  0
 90 91  1  0  0  0  0
 91 92  1  0  0  0  0
 92 93  2  0  0  0  0
 93 94  1  0  0  0  0
 94 95  2  0  0  0  0
 95 96  1  0  0  0  0
 96 97  1  0  0  0  0
 97 98  1  0  0  0  0
 95 99  1  0  0  0  0
 99100  2  0  0  0  0
 99101  1  0  0  0  0
 91102  2  0  0  0  0
102103  1  0  0  0  0
 90104  1  0  0  0  0
104105  2  0  0  0  0
105106  1  0  0  0  0
105107  1  0  0  0  0
107108  1  0  0  0  0
108109  1  0  0  0  0
109110  2  0  0  0  0
110111  1  0  0  0  0
111112  1  0  0  0  0
112113  2  0  0  0  0
112114  1  0  0  0  0
114115  1  0  0  0  0
115116  2  0  0  0  0
109117  1  0  0  0  0
117118  1  0  0  0  0
118119  1  0  0  0  0
119120  2  0  0  0  0
120121  1  0  0  0  0
121122  1  0  0  0  0
122123  2  0  0  0  0
122124  1  0  0  0  0
124125  1  0  0  0  0
125126  2  0  0  0  0
 29  1  1  0  0  0  0
 37 33  2  0  0  0  0
 71 43  1  0  0  0  0
103 75  1  0  0  0  0
111107  2  0  0  0  0
121117  2  0  0  0  0
 28  3  1  0  0  0  0
 41 36  1  0  0  0  0
 70 45  1  0  0  0  0
102 77  1  0  0  0  0
115110  1  0  0  0  0
125120  1  0  0  0  0
 14  5  1  0  0  0  0
 32 15  1  0  0  0  0
 56 47  1  0  0  0  0
 74 57  1  0  0  0  0
 88 79  1  0  0  0  0
106 89  1  0  0  0  0
 26 18  1  0  0  0  0
 68 60  1  0  0  0  0
100 92  1  0  0  0  0
  1127  1  0  0  0  0
  2128  1  0  0  0  0
  6129  1  0  0  0  0
  7130  1  0  0  0  0
 10131  1  0  0  0  0
 10132  1  0  0  0  0
 11133  1  0  0  0  0
 11134  1  0  0  0  0
 11135  1  0  0  0  0
 14136  1  0  0  0  0
 19137  1  0  0  0  0
 20138  1  0  0  0  0
 23139  1  0  0  0  0
 23140  1  0  0  0  0
 24141  1  0  0  0  0
 24142  1  0  0  0  0
 24143  1  0  0  0  0
 26144  1  0  0  0  0
 30145  1  0  0  0  0
 44146  1  0  0  0  0
 48147  1  0  0  0  0
 49148  1  0  0  0  0
 52149  1  0  0  0  0
 52150  1  0  0  0  0
 53151  1  0  0  0  0
 53152  1  0  0  0  0
 53153  1  0  0  0  0
 56154  1  0  0  0  0
 61155  1  0  0  0  0
 62156  1  0  0  0  0
 65157  1  0  0  0  0
 65158  1  0  0  0  0
 66159  1  0  0  0  0
 66160  1  0  0  0  0
 66161  1  0  0  0  0
 68162  1  0  0  0  0
 72163  1  0  0  0  0
 76164  1  0  0  0  0
 80165  1  0  0  0  0
 81166  1  0  0  0  0
 84167  1  0  0  0  0
 84168  1  0  0  0  0
 85169  1  0  0  0  0
 85170  1  0  0  0  0
 85171  1  0  0  0  0
 88172  1  0  0  0  0
 93173  1  0  0  0  0
 94174  1  0  0  0  0
 97175  1  0  0  0  0
 97176  1  0  0  0  0
 98177  1  0  0  0  0
 98178  1  0  0  0  0
 98179  1  0  0  0  0
100180  1  0  0  0  0
104181  1  0  0  0  0
119182  1  0  0  0  0
M  END
