170

C          5.29350      -12.92060        8.97180
C          5.73860      -11.68920        8.64860
C          4.73440      -10.88090        8.04110
C          4.85570       -9.57760        7.53480
C          6.07970       -8.80740        7.68100
S          6.83730       -8.05170        6.31110
C          8.08990       -7.36120        7.28600
C          9.12800       -6.48240        6.68100
C          8.52770       -5.14170        6.25250
C          7.91400       -7.70160        8.59390
Cl         8.94940       -7.19760        9.86710
C          6.77850       -8.52590        8.82160
Cl         6.30390       -9.03210       10.39160
C          3.75060       -9.05230        6.87800
C          2.52860       -9.75330        6.74060
C          2.39340      -11.04290        7.28210
C          1.15050      -11.78410        7.14820
S          0.41260      -12.01640        5.58970
C         -0.90450      -12.91900        6.25800
C         -2.01060      -13.40900        5.39030
C         -2.88480      -12.24960        4.90700
C         -0.76670      -13.02380        7.60940
C          0.39980      -12.38870        8.11740
Cl         0.75330      -12.32360        9.79240
Cl        -1.88030      -13.84010        8.62830
C          3.50820      -11.57910        7.91630
S          3.63470      -13.18800        8.56700
C          1.55770       -8.98770        6.04910
C          2.00930       -7.76260        5.65910
S          3.66540       -7.47340        6.15020
C          1.31480       -6.79050        4.88300
C          1.77920       -5.58040        4.46050
C          0.87680       -4.89390        3.61400
C          1.04740       -3.64090        2.99940
C          2.28080       -2.88510        3.13200
S          2.25810       -1.20950        3.59610
C          3.98020       -1.07680        3.49700
C          4.66220        0.22360        3.74080
C          4.54450        1.13600        2.51750
C          4.52540       -2.26680        3.11680
Cl         6.20830       -2.52760        2.90600
C          3.56700       -3.29560        2.91060
Cl         4.00560       -4.85680        2.34590
C         -0.01280       -3.16770        2.23850
C         -1.21310       -3.89350        2.04810
C         -1.39870       -5.13230        2.69060
C         -2.65950       -5.84320        2.59250
S         -2.72890       -7.54030        2.22170
C         -4.45530       -7.57150        2.31780
C         -5.22320       -8.81370        2.03020
C         -5.54240       -8.92460        0.53720
C         -4.93840       -6.33170        2.61760
C         -3.92430       -5.35140        2.78010
Cl        -4.28170       -3.74450        3.26260
Cl        -6.60610       -5.96740        2.79420
C         -0.33110       -5.61510        3.43520
S         -0.29980       -7.12790        4.29440
C         -2.08750       -3.24960        1.14170
C         -1.61470       -2.05110        0.68820
S         -0.02860       -1.67770        1.34310
C         -2.21850       -1.11500       -0.19830
S         -1.26470        0.21470       -0.78560
C         -2.58920        0.85010       -1.69830
C         -3.70990        0.05200       -1.55170
C         -3.51090       -1.05650       -0.69670
S         -4.73900       -2.28630       -0.38250
C         -6.24520       -1.36950       -0.08470
O         -7.24260       -1.97790        0.15350
C         -6.13870        0.13100       -0.19780
C         -6.06220        0.46830       -1.68000
O         -6.99810        0.79870       -2.34180
O         -4.84730        0.35510       -2.25010
C         -2.48590        2.04600       -2.45990
C         -1.37990        2.83480       -2.61060
C         -1.61920        3.98300       -3.39960
C         -0.70920        4.99210       -3.77170
C          0.63940        5.01880       -3.23600
S          2.02810        5.21640       -4.26370
C          3.12510        5.13900       -2.92890
C          4.59790        5.19350       -3.13580
C          5.15700        3.80380       -3.45130
C          2.44160        4.96720       -1.76150
Cl         3.19040        4.83910       -0.22290
C          1.03320        4.90680       -1.92920
Cl        -0.04320        4.80350       -0.59580
C         -1.17350        5.95550       -4.65670
C         -2.50780        5.99060       -5.13640
C         -3.42320        4.99760       -4.74480
C         -4.78810        4.94840       -5.23590
S         -6.11480        4.70750       -4.13650
C         -7.27030        4.64330       -5.41870
C         -8.70020        4.34860       -5.13500
C         -8.90730        2.84290       -4.94360
C         -6.65180        4.80240       -6.62410
C         -5.24580        4.98090       -6.52570
Cl        -4.24080        5.11130       -7.91040
Cl        -7.47040        4.78750       -8.13160
C         -2.95290        4.02250       -3.87510
S         -3.88270        2.66750       -3.30660
C         -2.74650        7.10590       -5.97140
C         -1.64160        7.88570       -6.16930
S         -0.24690        7.28660       -5.28380
C         -1.47810        9.04400       -6.98160
S          0.10860        9.74180       -7.11860
C         -0.44900       10.97540       -8.19800
C         -1.80810       10.83090       -8.43350
C         -2.39730        9.74550       -7.74770
S         -4.07910        9.24530       -7.96310
C         -5.02530       10.75720       -7.84890
O         -6.21310       10.69730       -7.93050
C         -4.21790       12.02270       -7.69440
C         -3.58540       12.31710       -9.04570
O         -4.05050       13.05360       -9.85860
O         -2.42760       11.67380       -9.31340
C          0.38700       11.97880       -8.76160
S         -0.27910       13.17440       -9.83470
C          1.24690       13.91890      -10.02980
C          2.23100       13.28240       -9.32820
C          1.74720       12.17020       -8.58670
S          2.74920       11.05360       -7.66040
C          3.83460       12.11850       -6.70730
O          4.60690       11.61230       -5.95390
C          3.70520       13.59260       -6.98380
C          4.33250       13.85900       -8.35010
O          5.46510       14.19880       -8.50050
O          3.53510       13.68630       -9.41960
H          5.84180      -13.71780        9.43440
H          6.74670      -11.35720        8.81320
H          9.91740       -6.31850        7.41620
H          9.56120       -6.97740        5.80920
H          8.10180       -4.62690        7.11020
H          9.29650       -4.51120        5.81420
H          7.74230       -5.29850        5.51680
H         -2.61370      -14.11540        5.96260
H         -1.59210      -13.92860        4.52570
H         -3.68730      -12.62580        4.27810
H         -2.29030      -11.54280        4.33220
H         -3.32220      -11.72760        5.75440
H          0.55980       -9.32710        5.83880
H          2.74010       -5.19840        4.75210
H          5.71410        0.03260        3.95930
H          4.20890        0.71580        4.60330
H          5.00860        0.66900        1.65230
H          3.49880        1.32820        2.28940
H          5.04010        2.08370        2.70960
H         -6.15350       -8.78960        2.60060
H         -4.63970       -9.68050        2.34480
H         -6.13200       -8.07070        0.21420
H         -6.10790       -9.83180        0.34310
H         -4.62380       -8.95350       -0.04390
H         -3.01120       -3.68370        0.81320
H         -7.05050        0.56900        0.21080
H         -5.25730        0.50490        0.32670
H         -0.42770        2.58110       -2.18230
H          4.82280        5.87220       -3.95990
H          5.06560        5.57780       -2.22740
H          4.95510        3.12040       -2.63030
H          4.69800        3.40900       -4.35440
H          6.23140        3.86050       -3.60170
H         -9.00760        4.87450       -4.22950
H         -9.30690        4.70270       -5.97030
H         -8.62690        2.30740       -5.84700
H         -9.95220        2.63740       -4.72830
H         -8.30220        2.47160       -4.11970
H         -3.70610        7.31250       -6.40170
H         -3.45230       11.90910       -6.92490
H         -4.90280       12.83550       -7.44830
H          1.36690       14.77260      -10.66510
H          4.28330       14.13200       -6.23180
H          2.66030       13.90710       -6.97190
