
  xtb     03012200203D
 energy: -358.630895857642 gnorm: 0.000310225446 xtb: 6.4.1 (unknown)
170190  0     0  0            999 V2000
    5.2935  -12.9206    8.9718 C   0  0  0  0  0  0  0  0  0  0  0  0
    5.7386  -11.6892    8.6486 C   0  0  0  0  0  0  0  0  0  0  0  0
    4.7344  -10.8809    8.0411 C   0  0  0  0  0  0  0  0  0  0  0  0
    4.8557   -9.5776    7.5348 C   0  0  0  0  0  0  0  0  0  0  0  0
    6.0797   -8.8074    7.6810 C   0  0  0  0  0  0  0  0  0  0  0  0
    6.8373   -8.0517    6.3111 S   0  0  0  0  0  0  0  0  0  0  0  0
    8.0899   -7.3612    7.2860 C   0  0  0  0  0  0  0  0  0  0  0  0
    9.1280   -6.4824    6.6810 C   0  0  0  0  0  0  0  0  0  0  0  0
    8.5277   -5.1417    6.2525 C   0  0  0  0  0  0  0  0  0  0  0  0
    7.9140   -7.7016    8.5939 C   0  0  0  0  0  0  0  0  0  0  0  0
    8.9494   -7.1976    9.8671 Cl  0  0  0  0  0  0  0  0  0  0  0  0
    6.7785   -8.5259    8.8216 C   0  0  0  0  0  0  0  0  0  0  0  0
    6.3039   -9.0321   10.3916 Cl  0  0  0  0  0  0  0  0  0  0  0  0
    3.7506   -9.0523    6.8780 C   0  0  0  0  0  0  0  0  0  0  0  0
    2.5286   -9.7533    6.7406 C   0  0  0  0  0  0  0  0  0  0  0  0
    2.3934  -11.0429    7.2821 C   0  0  0  0  0  0  0  0  0  0  0  0
    1.1505  -11.7841    7.1482 C   0  0  0  0  0  0  0  0  0  0  0  0
    0.4126  -12.0164    5.5897 S   0  0  0  0  0  0  0  0  0  0  0  0
   -0.9045  -12.9190    6.2580 C   0  0  0  0  0  0  0  0  0  0  0  0
   -2.0106  -13.4090    5.3903 C   0  0  0  0  0  0  0  0  0  0  0  0
   -2.8848  -12.2496    4.9070 C   0  0  0  0  0  0  0  0  0  0  0  0
   -0.7667  -13.0238    7.6094 C   0  0  0  0  0  0  0  0  0  0  0  0
    0.3998  -12.3887    8.1174 C   0  0  0  0  0  0  0  0  0  0  0  0
    0.7533  -12.3236    9.7924 Cl  0  0  0  0  0  0  0  0  0  0  0  0
   -1.8803  -13.8401    8.6283 Cl  0  0  0  0  0  0  0  0  0  0  0  0
    3.5082  -11.5791    7.9163 C   0  0  0  0  0  0  0  0  0  0  0  0
    3.6347  -13.1880    8.5670 S   0  0  0  0  0  0  0  0  0  0  0  0
    1.5577   -8.9877    6.0491 C   0  0  0  0  0  0  0  0  0  0  0  0
    2.0093   -7.7626    5.6591 C   0  0  0  0  0  0  0  0  0  0  0  0
    3.6654   -7.4734    6.1502 S   0  0  0  0  0  0  0  0  0  0  0  0
    1.3148   -6.7905    4.8830 C   0  0  0  0  0  0  0  0  0  0  0  0
    1.7792   -5.5804    4.4605 C   0  0  0  0  0  0  0  0  0  0  0  0
    0.8768   -4.8939    3.6140 C   0  0  0  0  0  0  0  0  0  0  0  0
    1.0474   -3.6409    2.9994 C   0  0  0  0  0  0  0  0  0  0  0  0
    2.2808   -2.8851    3.1320 C   0  0  0  0  0  0  0  0  0  0  0  0
    2.2581   -1.2095    3.5961 S   0  0  0  0  0  0  0  0  0  0  0  0
    3.9802   -1.0768    3.4970 C   0  0  0  0  0  0  0  0  0  0  0  0
    4.6622    0.2236    3.7408 C   0  0  0  0  0  0  0  0  0  0  0  0
    4.5445    1.1360    2.5175 C   0  0  0  0  0  0  0  0  0  0  0  0
    4.5254   -2.2668    3.1168 C   0  0  0  0  0  0  0  0  0  0  0  0
    6.2083   -2.5276    2.9060 Cl  0  0  0  0  0  0  0  0  0  0  0  0
    3.5670   -3.2956    2.9106 C   0  0  0  0  0  0  0  0  0  0  0  0
    4.0056   -4.8568    2.3459 Cl  0  0  0  0  0  0  0  0  0  0  0  0
   -0.0128   -3.1677    2.2385 C   0  0  0  0  0  0  0  0  0  0  0  0
   -1.2131   -3.8935    2.0481 C   0  0  0  0  0  0  0  0  0  0  0  0
   -1.3987   -5.1323    2.6906 C   0  0  0  0  0  0  0  0  0  0  0  0
   -2.6595   -5.8432    2.5925 C   0  0  0  0  0  0  0  0  0  0  0  0
   -2.7289   -7.5403    2.2217 S   0  0  0  0  0  0  0  0  0  0  0  0
   -4.4553   -7.5715    2.3178 C   0  0  0  0  0  0  0  0  0  0  0  0
   -5.2232   -8.8137    2.0302 C   0  0  0  0  0  0  0  0  0  0  0  0
   -5.5424   -8.9246    0.5372 C   0  0  0  0  0  0  0  0  0  0  0  0
   -4.9384   -6.3317    2.6176 C   0  0  0  0  0  0  0  0  0  0  0  0
   -3.9243   -5.3514    2.7801 C   0  0  0  0  0  0  0  0  0  0  0  0
   -4.2817   -3.7445    3.2626 Cl  0  0  0  0  0  0  0  0  0  0  0  0
   -6.6061   -5.9674    2.7942 Cl  0  0  0  0  0  0  0  0  0  0  0  0
   -0.3311   -5.6151    3.4352 C   0  0  0  0  0  0  0  0  0  0  0  0
   -0.2998   -7.1279    4.2944 S   0  0  0  0  0  0  0  0  0  0  0  0
   -2.0875   -3.2496    1.1417 C   0  0  0  0  0  0  0  0  0  0  0  0
   -1.6147   -2.0511    0.6882 C   0  0  0  0  0  0  0  0  0  0  0  0
   -0.0286   -1.6777    1.3431 S   0  0  0  0  0  0  0  0  0  0  0  0
   -2.2185   -1.1150   -0.1983 C   0  0  0  0  0  0  0  0  0  0  0  0
   -1.2647    0.2147   -0.7856 S   0  0  0  0  0  0  0  0  0  0  0  0
   -2.5892    0.8501   -1.6983 C   0  0  0  0  0  0  0  0  0  0  0  0
   -3.7099    0.0520   -1.5517 C   0  0  0  0  0  0  0  0  0  0  0  0
   -3.5109   -1.0565   -0.6967 C   0  0  0  0  0  0  0  0  0  0  0  0
   -4.7390   -2.2863   -0.3825 S   0  0  0  0  0  0  0  0  0  0  0  0
   -6.2452   -1.3695   -0.0847 C   0  0  0  0  0  0  0  0  0  0  0  0
   -7.2426   -1.9779    0.1535 O   0  0  0  0  0  0  0  0  0  0  0  0
   -6.1387    0.1310   -0.1978 C   0  0  0  0  0  0  0  0  0  0  0  0
   -6.0622    0.4683   -1.6800 C   0  0  0  0  0  0  0  0  0  0  0  0
   -6.9981    0.7987   -2.3418 O   0  0  0  0  0  0  0  0  0  0  0  0
   -4.8473    0.3551   -2.2501 O   0  0  0  0  0  0  0  0  0  0  0  0
   -2.4859    2.0460   -2.4599 C   0  0  0  0  0  0  0  0  0  0  0  0
   -1.3799    2.8348   -2.6106 C   0  0  0  0  0  0  0  0  0  0  0  0
   -1.6192    3.9830   -3.3996 C   0  0  0  0  0  0  0  0  0  0  0  0
   -0.7092    4.9921   -3.7717 C   0  0  0  0  0  0  0  0  0  0  0  0
    0.6394    5.0188   -3.2360 C   0  0  0  0  0  0  0  0  0  0  0  0
    2.0281    5.2164   -4.2637 S   0  0  0  0  0  0  0  0  0  0  0  0
    3.1251    5.1390   -2.9289 C   0  0  0  0  0  0  0  0  0  0  0  0
    4.5979    5.1935   -3.1358 C   0  0  0  0  0  0  0  0  0  0  0  0
    5.1570    3.8038   -3.4513 C   0  0  0  0  0  0  0  0  0  0  0  0
    2.4416    4.9672   -1.7615 C   0  0  0  0  0  0  0  0  0  0  0  0
    3.1904    4.8391   -0.2229 Cl  0  0  0  0  0  0  0  0  0  0  0  0
    1.0332    4.9068   -1.9292 C   0  0  0  0  0  0  0  0  0  0  0  0
   -0.0432    4.8035   -0.5958 Cl  0  0  0  0  0  0  0  0  0  0  0  0
   -1.1735    5.9555   -4.6567 C   0  0  0  0  0  0  0  0  0  0  0  0
   -2.5078    5.9906   -5.1364 C   0  0  0  0  0  0  0  0  0  0  0  0
   -3.4232    4.9976   -4.7448 C   0  0  0  0  0  0  0  0  0  0  0  0
   -4.7881    4.9484   -5.2359 C   0  0  0  0  0  0  0  0  0  0  0  0
   -6.1148    4.7075   -4.1365 S   0  0  0  0  0  0  0  0  0  0  0  0
   -7.2703    4.6433   -5.4187 C   0  0  0  0  0  0  0  0  0  0  0  0
   -8.7002    4.3486   -5.1350 C   0  0  0  0  0  0  0  0  0  0  0  0
   -8.9073    2.8429   -4.9436 C   0  0  0  0  0  0  0  0  0  0  0  0
   -6.6518    4.8024   -6.6241 C   0  0  0  0  0  0  0  0  0  0  0  0
   -5.2458    4.9809   -6.5257 C   0  0  0  0  0  0  0  0  0  0  0  0
   -4.2408    5.1113   -7.9104 Cl  0  0  0  0  0  0  0  0  0  0  0  0
   -7.4704    4.7875   -8.1316 Cl  0  0  0  0  0  0  0  0  0  0  0  0
   -2.9529    4.0225   -3.8751 C   0  0  0  0  0  0  0  0  0  0  0  0
   -3.8827    2.6675   -3.3066 S   0  0  0  0  0  0  0  0  0  0  0  0
   -2.7465    7.1059   -5.9714 C   0  0  0  0  0  0  0  0  0  0  0  0
   -1.6416    7.8857   -6.1693 C   0  0  0  0  0  0  0  0  0  0  0  0
   -0.2469    7.2866   -5.2838 S   0  0  0  0  0  0  0  0  0  0  0  0
   -1.4781    9.0440   -6.9816 C   0  0  0  0  0  0  0  0  0  0  0  0
    0.1086    9.7418   -7.1186 S   0  0  0  0  0  0  0  0  0  0  0  0
   -0.4490   10.9754   -8.1980 C   0  0  0  0  0  0  0  0  0  0  0  0
   -1.8081   10.8309   -8.4335 C   0  0  0  0  0  0  0  0  0  0  0  0
   -2.3973    9.7455   -7.7477 C   0  0  0  0  0  0  0  0  0  0  0  0
   -4.0791    9.2453   -7.9631 S   0  0  0  0  0  0  0  0  0  0  0  0
   -5.0253   10.7572   -7.8489 C   0  0  0  0  0  0  0  0  0  0  0  0
   -6.2131   10.6973   -7.9305 O   0  0  0  0  0  0  0  0  0  0  0  0
   -4.2179   12.0227   -7.6944 C   0  0  0  0  0  0  0  0  0  0  0  0
   -3.5854   12.3171   -9.0457 C   0  0  0  0  0  0  0  0  0  0  0  0
   -4.0505   13.0536   -9.8586 O   0  0  0  0  0  0  0  0  0  0  0  0
   -2.4276   11.6738   -9.3134 O   0  0  0  0  0  0  0  0  0  0  0  0
    0.3870   11.9788   -8.7616 C   0  0  0  0  0  0  0  0  0  0  0  0
   -0.2791   13.1744   -9.8347 S   0  0  0  0  0  0  0  0  0  0  0  0
    1.2469   13.9189  -10.0298 C   0  0  0  0  0  0  0  0  0  0  0  0
    2.2310   13.2824   -9.3282 C   0  0  0  0  0  0  0  0  0  0  0  0
    1.7472   12.1702   -8.5867 C   0  0  0  0  0  0  0  0  0  0  0  0
    2.7492   11.0536   -7.6604 S   0  0  0  0  0  0  0  0  0  0  0  0
    3.8346   12.1185   -6.7073 C   0  0  0  0  0  0  0  0  0  0  0  0
    4.6069   11.6123   -5.9539 O   0  0  0  0  0  0  0  0  0  0  0  0
    3.7052   13.5926   -6.9838 C   0  0  0  0  0  0  0  0  0  0  0  0
    4.3325   13.8590   -8.3501 C   0  0  0  0  0  0  0  0  0  0  0  0
    5.4651   14.1988   -8.5005 O   0  0  0  0  0  0  0  0  0  0  0  0
    3.5351   13.6863   -9.4196 O   0  0  0  0  0  0  0  0  0  0  0  0
    5.8418  -13.7178    9.4344 H   0  0  0  0  0  0  0  0  0  0  0  0
    6.7467  -11.3572    8.8132 H   0  0  0  0  0  0  0  0  0  0  0  0
    9.9174   -6.3185    7.4162 H   0  0  0  0  0  0  0  0  0  0  0  0
    9.5612   -6.9774    5.8092 H   0  0  0  0  0  0  0  0  0  0  0  0
    8.1018   -4.6269    7.1102 H   0  0  0  0  0  0  0  0  0  0  0  0
    9.2965   -4.5112    5.8142 H   0  0  0  0  0  0  0  0  0  0  0  0
    7.7423   -5.2985    5.5168 H   0  0  0  0  0  0  0  0  0  0  0  0
   -2.6137  -14.1154    5.9626 H   0  0  0  0  0  0  0  0  0  0  0  0
   -1.5921  -13.9286    4.5257 H   0  0  0  0  0  0  0  0  0  0  0  0
   -3.6873  -12.6258    4.2781 H   0  0  0  0  0  0  0  0  0  0  0  0
   -2.2903  -11.5428    4.3322 H   0  0  0  0  0  0  0  0  0  0  0  0
   -3.3222  -11.7276    5.7544 H   0  0  0  0  0  0  0  0  0  0  0  0
    0.5598   -9.3271    5.8388 H   0  0  0  0  0  0  0  0  0  0  0  0
    2.7401   -5.1984    4.7521 H   0  0  0  0  0  0  0  0  0  0  0  0
    5.7141    0.0326    3.9593 H   0  0  0  0  0  0  0  0  0  0  0  0
    4.2089    0.7158    4.6033 H   0  0  0  0  0  0  0  0  0  0  0  0
    5.0086    0.6690    1.6523 H   0  0  0  0  0  0  0  0  0  0  0  0
    3.4988    1.3282    2.2894 H   0  0  0  0  0  0  0  0  0  0  0  0
    5.0401    2.0837    2.7096 H   0  0  0  0  0  0  0  0  0  0  0  0
   -6.1535   -8.7896    2.6006 H   0  0  0  0  0  0  0  0  0  0  0  0
   -4.6397   -9.6805    2.3448 H   0  0  0  0  0  0  0  0  0  0  0  0
   -6.1320   -8.0707    0.2142 H   0  0  0  0  0  0  0  0  0  0  0  0
   -6.1079   -9.8318    0.3431 H   0  0  0  0  0  0  0  0  0  0  0  0
   -4.6238   -8.9535   -0.0439 H   0  0  0  0  0  0  0  0  0  0  0  0
   -3.0112   -3.6837    0.8132 H   0  0  0  0  0  0  0  0  0  0  0  0
   -7.0505    0.5690    0.2108 H   0  0  0  0  0  0  0  0  0  0  0  0
   -5.2573    0.5049    0.3267 H   0  0  0  0  0  0  0  0  0  0  0  0
   -0.4277    2.5811   -2.1823 H   0  0  0  0  0  0  0  0  0  0  0  0
    4.8228    5.8722   -3.9599 H   0  0  0  0  0  0  0  0  0  0  0  0
    5.0656    5.5778   -2.2274 H   0  0  0  0  0  0  0  0  0  0  0  0
    4.9551    3.1204   -2.6303 H   0  0  0  0  0  0  0  0  0  0  0  0
    4.6980    3.4090   -4.3544 H   0  0  0  0  0  0  0  0  0  0  0  0
    6.2314    3.8605   -3.6017 H   0  0  0  0  0  0  0  0  0  0  0  0
   -9.0076    4.8745   -4.2295 H   0  0  0  0  0  0  0  0  0  0  0  0
   -9.3069    4.7027   -5.9703 H   0  0  0  0  0  0  0  0  0  0  0  0
   -8.6269    2.3074   -5.8470 H   0  0  0  0  0  0  0  0  0  0  0  0
   -9.9522    2.6374   -4.7283 H   0  0  0  0  0  0  0  0  0  0  0  0
   -8.3022    2.4716   -4.1197 H   0  0  0  0  0  0  0  0  0  0  0  0
   -3.7061    7.3125   -6.4017 H   0  0  0  0  0  0  0  0  0  0  0  0
   -3.4523   11.9091   -6.9249 H   0  0  0  0  0  0  0  0  0  0  0  0
   -4.9028   12.8355   -7.4483 H   0  0  0  0  0  0  0  0  0  0  0  0
    1.3669   14.7726  -10.6651 H   0  0  0  0  0  0  0  0  0  0  0  0
    4.2833   14.1320   -6.2318 H   0  0  0  0  0  0  0  0  0  0  0  0
    2.6603   13.9071   -6.9719 H   0  0  0  0  0  0  0  0  0  0  0  0
  1  2  2  0  0  0  0
  2  3  1  0  0  0  0
  3  4  2  0  0  0  0
  4  5  1  0  0  0  0
  5  6  1  0  0  0  0
  6  7  1  0  0  0  0
  7  8  1  0  0  0  0
  8  9  1  0  0  0  0
  7 10  2  0  0  0  0
 10 11  1  0  0  0  0
 10 12  1  0  0  0  0
 12 13  1  0  0  0  0
  4 14  1  0  0  0  0
 14 15  2  0  0  0  0
 15 16  1  0  0  0  0
 16 17  1  0  0  0  0
 17 18  1  0  0  0  0
 18 19  1  0  0  0  0
 19 20  1  0  0  0  0
 20 21  1  0  0  0  0
 19 22  2  0  0  0  0
 22 23  1  0  0  0  0
 23 24  1  0  0  0  0
 22 25  1  0  0  0  0
 16 26  2  0  0  0  0
 26 27  1  0  0  0  0
 15 28  1  0  0  0  0
 28 29  2  0  0  0  0
 29 30  1  0  0  0  0
 29 31  1  0  0  0  0
 31 32  2  0  0  0  0
 32 33  1  0  0  0  0
 33 34  2  0  0  0  0
 34 35  1  0  0  0  0
 35 36  1  0  0  0  0
 36 37  1  0  0  0  0
 37 38  1  0  0  0  0
 38 39  1  0  0  0  0
 37 40  2  0  0  0  0
 40 41  1  0  0  0  0
 40 42  1  0  0  0  0
 42 43  1  0  0  0  0
 34 44  1  0  0  0  0
 44 45  2  0  0  0  0
 45 46  1  0  0  0  0
 46 47  1  0  0  0  0
 47 48  1  0  0  0  0
 48 49  1  0  0  0  0
 49 50  1  0  0  0  0
 50 51  1  0  0  0  0
 49 52  2  0  0  0  0
 52 53  1  0  0  0  0
 53 54  1  0  0  0  0
 52 55  1  0  0  0  0
 46 56  2  0  0  0  0
 56 57  1  0  0  0  0
 45 58  1  0  0  0  0
 58 59  2  0  0  0  0
 59 60  1  0  0  0  0
 59 61  1  0  0  0  0
 61 62  1  0  0  0  0
 62 63  1  0  0  0  0
 63 64  2  0  0  0  0
 64 65  1  0  0  0  0
 65 66  1  0  0  0  0
 66 67  1  0  0  0  0
 67 68  2  0  0  0  0
 67 69  1  0  0  0  0
 69 70  1  0  0  0  0
 70 71  2  0  0  0  0
 70 72  1  0  0  0  0
 63 73  1  0  0  0  0
 73 74  2  0  0  0  0
 74 75  1  0  0  0  0
 75 76  2  0  0  0  0
 76 77  1  0  0  0  0
 77 78  1  0  0  0  0
 78 79  1  0  0  0  0
 79 80  1  0  0  0  0
 80 81  1  0  0  0  0
 79 82  2  0  0  0  0
 82 83  1  0  0  0  0
 82 84  1  0  0  0  0
 84 85  1  0  0  0  0
 76 86  1  0  0  0  0
 86 87  2  0  0  0  0
 87 88  1  0  0  0  0
 88 89  1  0  0  0  0
 89 90  1  0  0  0  0
 90 91  1  0  0  0  0
 91 92  1  0  0  0  0
 92 93  1  0  0  0  0
 91 94  2  0  0  0  0
 94 95  1  0  0  0  0
 95 96  1  0  0  0  0
 94 97  1  0  0  0  0
 88 98  2  0  0  0  0
 98 99  1  0  0  0  0
 87100  1  0  0  0  0
100101  2  0  0  0  0
101102  1  0  0  0  0
101103  1  0  0  0  0
103104  1  0  0  0  0
104105  1  0  0  0  0
105106  2  0  0  0  0
106107  1  0  0  0  0
107108  1  0  0  0  0
108109  1  0  0  0  0
109110  2  0  0  0  0
109111  1  0  0  0  0
111112  1  0  0  0  0
112113  2  0  0  0  0
112114  1  0  0  0  0
105115  1  0  0  0  0
115116  1  0  0  0  0
116117  1  0  0  0  0
117118  2  0  0  0  0
118119  1  0  0  0  0
119120  1  0  0  0  0
120121  1  0  0  0  0
121122  2  0  0  0  0
121123  1  0  0  0  0
123124  1  0  0  0  0
124125  2  0  0  0  0
124126  1  0  0  0  0
 27  1  1  0  0  0  0
 57 31  1  0  0  0  0
 65 61  2  0  0  0  0
 99 73  1  0  0  0  0
107103  2  0  0  0  0
119115  2  0  0  0  0
 26  3  1  0  0  0  0
 56 33  1  0  0  0  0
 72 64  1  0  0  0  0
 98 75  1  0  0  0  0
114106  1  0  0  0  0
126118  1  0  0  0  0
 12  5  2  0  0  0  0
 30 14  1  0  0  0  0
 42 35  2  0  0  0  0
 60 44  1  0  0  0  0
 84 77  2  0  0  0  0
102 86  1  0  0  0  0
 23 17  2  0  0  0  0
 53 47  2  0  0  0  0
 95 89  2  0  0  0  0
  1127  1  0  0  0  0
  2128  1  0  0  0  0
  8129  1  0  0  0  0
  8130  1  0  0  0  0
  9131  1  0  0  0  0
  9132  1  0  0  0  0
  9133  1  0  0  0  0
 20134  1  0  0  0  0
 20135  1  0  0  0  0
 21136  1  0  0  0  0
 21137  1  0  0  0  0
 21138  1  0  0  0  0
 28139  1  0  0  0  0
 32140  1  0  0  0  0
 38141  1  0  0  0  0
 38142  1  0  0  0  0
 39143  1  0  0  0  0
 39144  1  0  0  0  0
 39145  1  0  0  0  0
 50146  1  0  0  0  0
 50147  1  0  0  0  0
 51148  1  0  0  0  0
 51149  1  0  0  0  0
 51150  1  0  0  0  0
 58151  1  0  0  0  0
 69152  1  0  0  0  0
 69153  1  0  0  0  0
 74154  1  0  0  0  0
 80155  1  0  0  0  0
 80156  1  0  0  0  0
 81157  1  0  0  0  0
 81158  1  0  0  0  0
 81159  1  0  0  0  0
 92160  1  0  0  0  0
 92161  1  0  0  0  0
 93162  1  0  0  0  0
 93163  1  0  0  0  0
 93164  1  0  0  0  0
100165  1  0  0  0  0
111166  1  0  0  0  0
111167  1  0  0  0  0
117168  1  0  0  0  0
123169  1  0  0  0  0
123170  1  0  0  0  0
M  END
