230

C         -1.35030        0.02260        8.43880
C         -1.03950        0.47530        7.20710
C         -1.21640       -0.51050        6.19080
C         -1.03250       -0.36280        4.80620
C         -0.48500        0.88270        4.25830
C          0.68270        1.42850        4.79430
C          1.21350        2.58810        4.28180
C          0.61720        3.26200        3.21160
S          1.51200        4.66190        2.62190
C          0.40850        5.57060        1.47540
C          1.13520        6.82020        1.01710
C         -0.55800        2.71720        2.70520
F         -1.23030        3.31300        1.69020
C         -1.10040        1.54910        3.20700
C         -1.36970       -1.45100        4.01470
C         -1.83480       -2.67660        4.55530
C         -2.01060       -2.83130        5.94340
C         -2.47790       -4.10110        6.50380
C         -3.52920       -4.80520        5.91590
C         -3.87740       -6.06340        6.35750
C         -3.19340       -6.66870        7.40670
S         -3.51990       -8.31260        7.95390
C         -3.81000       -9.17420        6.36490
C         -2.60380       -9.08540        5.45270
C         -2.21250       -5.91760        8.04990
C         -1.85380       -4.66030        7.61720
F         -1.55870       -6.43930        9.10440
C         -1.69070       -1.73110        6.72750
S         -1.87320       -1.62400        8.46000
C         -2.02880       -3.65540        3.55180
C         -1.75750       -3.21740        2.28830
S         -1.24290       -1.53760        2.27660
C         -1.90110       -3.93270        1.06230
S         -1.82490       -3.07580       -0.44740
C         -2.22090       -4.50010       -1.36090
C         -2.34690       -5.58820       -0.52220
C         -2.17080       -5.27490        0.84790
S         -2.40240       -6.46930        2.12950
C         -1.39730       -7.85100        1.62600
O         -1.32240       -8.80160        2.34670
C         -0.75020       -7.72370        0.27180
C         -1.86310       -7.91460       -0.75200
O         -2.10860       -8.95500       -1.27830
O         -2.61160       -6.82830       -1.03340
C         -2.47540       -4.42870       -2.76700
S         -1.50440       -3.40580       -3.77600
C         -2.51990       -3.70000       -5.15500
C         -3.51860       -4.59640       -4.84220
C         -3.50660       -5.00590       -3.48300
S         -4.68610       -6.07020       -2.72000
C         -6.26870       -5.54470       -3.36980
O         -7.24900       -6.07590       -2.94150
C         -6.25700       -4.47360       -4.42900
C         -5.69450       -5.06070       -5.71280
O         -6.36150       -5.50890       -6.59340
O         -4.35200       -5.05010       -5.82570
C         -2.42640       -2.79400       -6.26250
C         -1.31140       -2.15300       -6.70400
C         -1.58730       -0.91230       -7.33410
C         -0.64950        0.08590       -7.63990
C          0.80570       -0.13680       -7.60460
C          1.44860       -0.48820       -6.42290
C          2.82290       -0.62480       -6.37690
C          3.59890       -0.41100       -7.51020
S          5.35300       -0.56230       -7.58060
C          5.87620       -0.38450       -5.83920
C          5.61250        1.00810       -5.29910
C          2.93570       -0.07110       -8.69090
F          3.65360        0.13030       -9.81090
C          1.56740        0.07720       -8.74880
C         -1.14480        1.37270       -7.72790
C         -2.52300        1.68160       -7.64360
C         -3.48120        0.64780       -7.61180
C         -4.90610        0.98200       -7.67190
C         -5.85450        0.45560       -6.79960
C         -7.19070        0.78670       -6.91190
C         -7.63380        1.65220       -7.90590
S         -9.30200        2.14950       -8.15790
C        -10.27900        0.89630       -7.25730
C        -10.20130       -0.47130       -7.90830
C         -6.66750        2.19990       -8.75390
C         -5.33310        1.88510       -8.64790
F         -7.05240        3.06400       -9.71250
C         -2.97670       -0.62580       -7.37380
S         -3.90300       -1.99560       -6.80040
C         -2.73310        2.98660       -7.11210
C         -1.57420        3.60080       -6.72970
S         -0.15140        2.78170       -7.41510
C         -1.33140        4.12180       -5.40330
C         -1.88230        3.41030       -4.37070
C         -1.06450        3.35360       -3.22140
C         -1.13060        2.38480       -2.21020
C         -2.15060        1.32890       -2.15910
C         -2.42610        0.52650       -3.26640
C         -3.33110       -0.50540       -3.17000
C         -3.98200       -0.80390       -1.97110
S         -5.07180       -2.19160       -2.05920
C         -6.03840       -2.32040       -0.51290
C         -5.32800       -3.11550        0.56290
C         -3.68660       -0.00560       -0.87300
F         -4.25830       -0.22400        0.33220
C         -2.79610        1.04610       -0.96140
C         -0.06980        2.35420       -1.32160
C          1.00190        3.28010       -1.35350
C          1.06800        4.24610       -2.37720
C          2.18860        5.18940       -2.44560
C          1.95450        6.55590       -2.59150
C          2.99600        7.45680       -2.52930
C          4.31010        7.03360       -2.33930
S          5.57280        8.26580       -2.22950
C          6.61300        7.67280       -0.83970
C          5.81340        7.48230        0.43250
C          4.53730        5.66160       -2.28320
C          3.50320        4.74970       -2.31940
F          5.79280        5.17010       -2.18090
C          0.05490        4.21800       -3.32390
S          0.09250        5.00440       -4.89200
C          1.94940        3.00470       -0.33320
C          1.66480        1.87620        0.37870
S          0.17780        1.11150       -0.13060
C          2.40020        1.30150        1.45640
C          3.50080        1.79560        2.08740
C          3.93170        0.99320        3.17400
C          5.00070        1.23500        4.05020
C          5.81620        2.44910        3.91590
C          7.20440        2.37990        3.84740
C          7.97020        3.51540        3.66330
C          7.37390        4.76510        3.54300
S          8.22730        6.28960        3.30800
C          9.86660        5.79030        2.67940
C          9.78910        5.20290        1.28340
C          5.98290        4.82430        3.64480
F          5.37090        6.02190        3.55440
C          5.20840        3.70120        3.82270
C          5.23360        0.26960        5.02000
C          4.43190       -0.88940        5.17450
C          3.34560       -1.11720        4.31390
C          2.46740       -2.28690        4.45750
C          1.93870       -2.64220        5.69750
C          1.16200       -3.77400        5.83430
C          0.85770       -4.57730        4.74140
S         -0.14780       -6.02150        4.98190
C          0.92490       -7.32920        4.28060
C          2.15770       -7.54790        5.13360
C          1.33170       -4.17410        3.49880
C          2.13940       -3.06570        3.35010
F          1.01600       -4.88070        2.38600
C          3.13990       -0.17260        3.31890
S          1.86780       -0.21960        2.13320
C          4.90700       -1.71300        6.23880
C          5.98030       -1.19400        6.86850
S          6.50060        0.32200        6.21890
H         -1.30830        0.55840        9.36700
H         -0.71870        1.48120        7.00680
H          1.19120        0.91880        5.59850
H          2.11920        2.99750        4.70140
H         -0.50290        5.81620        2.01880
H          0.17790        4.92450        0.63050
H          1.41210        7.43820        1.86820
H          0.49090        7.39740        0.35820
H          2.03980        6.55880        0.47190
H         -2.01340        1.17480        2.77060
H         -4.09400       -4.35230        5.11580
H         -4.68790       -6.58640        5.87510
H         -4.00340      -10.20390        6.66430
H         -4.70870       -8.77060        5.90100
H         -2.78330       -9.63940        4.53410
H         -1.72880       -9.50380        5.94500
H         -2.38930       -8.05030        5.19060
H         -1.05920       -4.14720        8.13440
H         -2.34140       -4.65550        3.77330
H         -0.26660       -6.75210        0.15660
H         -0.03030       -8.53510        0.15500
H         -5.65730       -3.61990       -4.10960
H         -7.29020       -4.17380       -4.61130
H         -0.31660       -2.50800       -6.50620
H          0.87170       -0.63360       -5.52110
H          3.28620       -0.90210       -5.44380
H          6.94580       -0.59030       -5.87660
H          5.39590       -1.16080       -5.24470
H          4.54810        1.23510       -5.30360
H          5.98110        1.08510       -4.27790
H          6.12280        1.74950       -5.90900
H          1.10410        0.35510       -9.68240
H         -5.54820       -0.19770       -5.99830
H         -7.88830        0.36730       -6.20560
H         -9.95900        0.88310       -6.21620
H        -11.29430        1.29030       -7.30190
H        -10.83240       -1.17400       -7.36790
H         -9.18130       -0.85000       -7.90800
H        -10.54590       -0.41630       -8.93810
H         -4.63170        2.32470       -9.33980
H         -3.70720        3.34430       -6.82870
H         -2.76650        2.81160       -4.49000
H         -1.91210        0.69440       -4.20090
H         -3.54990       -1.11460       -4.03340
H         -6.94440       -2.83490       -0.83640
H         -6.29650       -1.31610       -0.18670
H         -6.00280       -3.26670        1.40250
H         -5.02730       -4.08930        0.18060
H         -4.44870       -2.58820        0.92240
H         -2.61970        1.64680       -0.08300
H          0.94320        6.91230       -2.71370
H          2.80800        8.51590       -2.60880
H          7.34750        8.46990       -0.72570
H          7.12200        6.76130       -1.14630
H          5.10100        6.66570        0.33000
H          6.48150        7.25110        1.25900
H          5.26420        8.38780        0.67970
H          3.73690        3.69700       -2.28050
H          2.80580        3.61970       -0.12950
H          3.98420        2.70870        1.79650
H          7.69550        1.42130        3.91490
H          9.04240        3.41620        3.61410
H         10.32400        5.10870        3.39520
H         10.43230        6.72200        2.67880
H         10.78760        4.94800        0.93380
H          9.35370        5.92440        0.59580
H          9.17620        4.30390        1.27090
H          4.13830        3.81700        3.89300
H          2.13970       -2.02610        6.56090
H          0.78600       -4.06550        6.80120
H          1.18070       -7.05840        3.25820
H          0.28800       -8.21300        4.26250
H          2.77820       -6.65270        5.15310
H          2.74490       -8.36890        4.72710
H          1.87310       -7.79430        6.15400
H          2.51660       -2.82610        2.36840
H          4.46620       -2.65830        6.49780
H          6.52600       -1.61140        7.69200
