
  xtb     03012209343D
 energy: -450.068626344117 gnorm: 0.000170203917 xtb: 6.4.1 (unknown)
223248  0     0  0            999 V2000
    2.0248   -5.4963    8.8730 C   0  0  0  0  0  0  0  0  0  0  0  0
    1.4661   -6.5404    8.2280 C   0  0  0  0  0  0  0  0  0  0  0  0
    0.8544   -6.1693    6.9944 C   0  0  0  0  0  0  0  0  0  0  0  0
    0.2115   -6.9941    6.0553 C   0  0  0  0  0  0  0  0  0  0  0  0
    0.2025   -8.4400    6.2021 C   0  0  0  0  0  0  0  0  0  0  0  0
   -1.2699   -9.3584    6.1082 S   0  0  0  0  0  0  0  0  0  0  0  0
   -0.4404  -10.8582    6.3430 C   0  0  0  0  0  0  0  0  0  0  0  0
   -1.1690  -12.1561    6.3162 C   0  0  0  0  0  0  0  0  0  0  0  0
   -1.2959  -12.6769    4.8823 C   0  0  0  0  0  0  0  0  0  0  0  0
    0.9000  -10.6448    6.4704 C   0  0  0  0  0  0  0  0  0  0  0  0
    2.0500  -11.8969    6.7048 Cl  0  0  0  0  0  0  0  0  0  0  0  0
    1.2684   -9.2750    6.3961 C   0  0  0  0  0  0  0  0  0  0  0  0
    2.9030   -8.7542    6.4595 Cl  0  0  0  0  0  0  0  0  0  0  0  0
   -0.3897   -6.3660    4.9712 C   0  0  0  0  0  0  0  0  0  0  0  0
   -0.3093   -4.9684    4.7733 C   0  0  0  0  0  0  0  0  0  0  0  0
    0.4192   -4.1550    5.6547 C   0  0  0  0  0  0  0  0  0  0  0  0
    0.6475   -2.7524    5.3204 C   0  0  0  0  0  0  0  0  0  0  0  0
   -0.0105   -1.4119    6.2011 S   0  0  0  0  0  0  0  0  0  0  0  0
    0.6775   -0.2544    5.1073 C   0  0  0  0  0  0  0  0  0  0  0  0
    0.4346    1.2068    5.2614 C   0  0  0  0  0  0  0  0  0  0  0  0
   -1.0524    1.5213    5.4086 C   0  0  0  0  0  0  0  0  0  0  0  0
    1.3888   -0.8890    4.1339 C   0  0  0  0  0  0  0  0  0  0  0  0
    1.3648   -2.3040    4.2494 C   0  0  0  0  0  0  0  0  0  0  0  0
    2.1943   -3.3509    3.1767 Cl  0  0  0  0  0  0  0  0  0  0  0  0
    2.2502   -0.0863    2.8850 Cl  0  0  0  0  0  0  0  0  0  0  0  0
    0.9595   -4.7745    6.7687 C   0  0  0  0  0  0  0  0  0  0  0  0
    1.8520   -3.9899    8.0395 S   0  0  0  0  0  0  0  0  0  0  0  0
   -1.0190   -4.5563    3.6235 C   0  0  0  0  0  0  0  0  0  0  0  0
   -1.5927   -5.5808    2.9300 C   0  0  0  0  0  0  0  0  0  0  0  0
   -1.2778   -7.1341    3.6773 S   0  0  0  0  0  0  0  0  0  0  0  0
   -2.3235   -5.4049    1.7130 C   0  0  0  0  0  0  0  0  0  0  0  0
   -2.6340   -6.2684    0.7037 C   0  0  0  0  0  0  0  0  0  0  0  0
   -3.1908   -5.6252   -0.4366 C   0  0  0  0  0  0  0  0  0  0  0  0
   -3.5373   -6.1579   -1.6939 C   0  0  0  0  0  0  0  0  0  0  0  0
   -3.4251   -7.5785   -1.9865 C   0  0  0  0  0  0  0  0  0  0  0  0
   -4.7931   -8.4431   -2.6274 S   0  0  0  0  0  0  0  0  0  0  0  0
   -3.9251   -9.9378   -2.6853 C   0  0  0  0  0  0  0  0  0  0  0  0
   -4.5582  -11.1717   -3.2255 C   0  0  0  0  0  0  0  0  0  0  0  0
   -4.5703  -11.1518   -4.7558 C   0  0  0  0  0  0  0  0  0  0  0  0
   -2.6487   -9.7604   -2.2426 C   0  0  0  0  0  0  0  0  0  0  0  0
   -1.4765  -11.0131   -2.1632 Cl  0  0  0  0  0  0  0  0  0  0  0  0
   -2.3634   -8.4275   -1.8397 C   0  0  0  0  0  0  0  0  0  0  0  0
   -0.8003   -7.9668   -1.3022 Cl  0  0  0  0  0  0  0  0  0  0  0  0
   -4.0050   -5.2657   -2.6554 C   0  0  0  0  0  0  0  0  0  0  0  0
   -4.1210   -3.8712   -2.4329 C   0  0  0  0  0  0  0  0  0  0  0  0
   -3.7816   -3.3368   -1.1816 C   0  0  0  0  0  0  0  0  0  0  0  0
   -3.8190   -1.9101   -0.8907 C   0  0  0  0  0  0  0  0  0  0  0  0
   -4.7361   -1.2817    0.4445 S   0  0  0  0  0  0  0  0  0  0  0  0
   -4.2012    0.3385    0.1528 C   0  0  0  0  0  0  0  0  0  0  0  0
   -4.6713    1.4713    0.9975 C   0  0  0  0  0  0  0  0  0  0  0  0
   -4.6937    1.1096    2.4794 C   0  0  0  0  0  0  0  0  0  0  0  0
   -3.3577    0.3721   -0.9175 C   0  0  0  0  0  0  0  0  0  0  0  0
   -3.1374   -0.9008   -1.5088 C   0  0  0  0  0  0  0  0  0  0  0  0
   -2.0660   -1.1382   -2.8281 Cl  0  0  0  0  0  0  0  0  0  0  0  0
   -2.6211    1.8015   -1.5254 Cl  0  0  0  0  0  0  0  0  0  0  0  0
   -3.3459   -4.2338   -0.2194 C   0  0  0  0  0  0  0  0  0  0  0  0
   -2.8221   -3.7640    1.3598 S   0  0  0  0  0  0  0  0  0  0  0  0
   -4.5778   -3.1754   -3.5760 C   0  0  0  0  0  0  0  0  0  0  0  0
   -4.7850   -3.9826   -4.6572 C   0  0  0  0  0  0  0  0  0  0  0  0
   -4.4450   -5.6646   -4.2982 S   0  0  0  0  0  0  0  0  0  0  0  0
   -5.1960   -3.5654   -5.9605 C   0  0  0  0  0  0  0  0  0  0  0  0
   -5.2838   -4.6352   -7.3315 S   0  0  0  0  0  0  0  0  0  0  0  0
   -5.7212   -3.3558   -8.4230 C   0  0  0  0  0  0  0  0  0  0  0  0
   -5.8243   -2.1798   -7.7250 C   0  0  0  0  0  0  0  0  0  0  0  0
   -5.5327   -2.2893   -6.3546 C   0  0  0  0  0  0  0  0  0  0  0  0
   -5.5753   -1.2344   -5.5324 F   0  0  0  0  0  0  0  0  0  0  0  0
   -6.1706   -1.0201   -8.2950 F   0  0  0  0  0  0  0  0  0  0  0  0
   -5.8462   -3.4861   -9.8692 C   0  0  0  0  0  0  0  0  0  0  0  0
   -5.1308   -2.7154  -10.7022 C   0  0  0  0  0  0  0  0  0  0  0  0
   -4.0623   -1.8870  -10.1803 C   0  0  0  0  0  0  0  0  0  0  0  0
   -3.1894   -2.3137   -9.2299 C   0  0  0  0  0  0  0  0  0  0  0  0
   -2.4160   -1.2789   -8.6593 C   0  0  0  0  0  0  0  0  0  0  0  0
   -1.5570   -1.3923   -7.5580 C   0  0  0  0  0  0  0  0  0  0  0  0
   -1.2348   -2.6942   -7.0019 C   0  0  0  0  0  0  0  0  0  0  0  0
   -1.4213   -3.0252   -5.3082 S   0  0  0  0  0  0  0  0  0  0  0  0
   -0.8744   -4.6561   -5.4806 C   0  0  0  0  0  0  0  0  0  0  0  0
   -0.7474   -5.5590   -4.3026 C   0  0  0  0  0  0  0  0  0  0  0  0
   -0.5068   -4.7736   -3.0198 C   0  0  0  0  0  0  0  0  0  0  0  0
   -0.5821   -4.9184   -6.7859 C   0  0  0  0  0  0  0  0  0  0  0  0
   -0.0093   -6.4361   -7.3451 Cl  0  0  0  0  0  0  0  0  0  0  0  0
   -0.7857   -3.8114   -7.6517 C   0  0  0  0  0  0  0  0  0  0  0  0
   -0.4062   -3.8688   -9.3245 Cl  0  0  0  0  0  0  0  0  0  0  0  0
   -1.1064   -0.2038   -7.0037 C   0  0  0  0  0  0  0  0  0  0  0  0
   -1.3939    1.0691   -7.5549 C   0  0  0  0  0  0  0  0  0  0  0  0
   -2.1966    1.1681   -8.7077 C   0  0  0  0  0  0  0  0  0  0  0  0
   -2.4868    2.4639   -9.3019 C   0  0  0  0  0  0  0  0  0  0  0  0
   -1.1919    3.5049   -9.8187 S   0  0  0  0  0  0  0  0  0  0  0  0
   -2.2888    4.7184  -10.3832 C   0  0  0  0  0  0  0  0  0  0  0  0
   -1.7955    5.9561  -11.0474 C   0  0  0  0  0  0  0  0  0  0  0  0
   -1.5435    5.7133  -12.5373 C   0  0  0  0  0  0  0  0  0  0  0  0
   -3.5764    4.3235  -10.1766 C   0  0  0  0  0  0  0  0  0  0  0  0
   -3.6955    3.0486   -9.5581 C   0  0  0  0  0  0  0  0  0  0  0  0
   -5.2094    2.3800   -9.1086 Cl  0  0  0  0  0  0  0  0  0  0  0  0
   -4.9438    5.2659  -10.6051 Cl  0  0  0  0  0  0  0  0  0  0  0  0
   -2.7225   -0.0149   -9.2181 C   0  0  0  0  0  0  0  0  0  0  0  0
   -3.8779   -0.1801  -10.5172 S   0  0  0  0  0  0  0  0  0  0  0  0
   -0.8901    2.1208   -6.7385 C   0  0  0  0  0  0  0  0  0  0  0  0
   -0.2783    1.6779   -5.6057 C   0  0  0  0  0  0  0  0  0  0  0  0
   -0.1998   -0.0746   -5.5342 S   0  0  0  0  0  0  0  0  0  0  0  0
    0.1897    2.3611   -4.4378 C   0  0  0  0  0  0  0  0  0  0  0  0
    0.2295    1.7729   -3.2101 C   0  0  0  0  0  0  0  0  0  0  0  0
    0.7051    2.6171   -2.1860 C   0  0  0  0  0  0  0  0  0  0  0  0
    0.8534    2.2968   -0.8305 C   0  0  0  0  0  0  0  0  0  0  0  0
    0.4445    1.0161   -0.2852 C   0  0  0  0  0  0  0  0  0  0  0  0
    0.9895   -0.4889   -0.9541 S   0  0  0  0  0  0  0  0  0  0  0  0
    0.1611   -1.4190    0.2462 C   0  0  0  0  0  0  0  0  0  0  0  0
    0.2307   -2.9059    0.2252 C   0  0  0  0  0  0  0  0  0  0  0  0
    1.5774   -3.4115   -0.2785 C   0  0  0  0  0  0  0  0  0  0  0  0
   -0.5032   -0.5913    1.1014 C   0  0  0  0  0  0  0  0  0  0  0  0
   -1.4400   -1.0947    2.4436 Cl  0  0  0  0  0  0  0  0  0  0  0  0
   -0.3445    0.7863    0.8062 C   0  0  0  0  0  0  0  0  0  0  0  0
   -1.1444    2.0058    1.6984 Cl  0  0  0  0  0  0  0  0  0  0  0  0
    1.4331    3.2612   -0.0230 C   0  0  0  0  0  0  0  0  0  0  0  0
    1.8317    4.5358   -0.4937 C   0  0  0  0  0  0  0  0  0  0  0  0
    1.6005    4.8830   -1.8414 C   0  0  0  0  0  0  0  0  0  0  0  0
    1.9631    6.1968   -2.3454 C   0  0  0  0  0  0  0  0  0  0  0  0
    3.5557    6.8499   -2.0911 S   0  0  0  0  0  0  0  0  0  0  0  0
    3.1785    8.3165   -2.9288 C   0  0  0  0  0  0  0  0  0  0  0  0
    4.1738    9.4194   -3.0241 C   0  0  0  0  0  0  0  0  0  0  0  0
    4.3186   10.1421   -1.6826 C   0  0  0  0  0  0  0  0  0  0  0  0
    1.8909    8.2866   -3.3729 C   0  0  0  0  0  0  0  0  0  0  0  0
    1.2010    7.0860   -3.0513 C   0  0  0  0  0  0  0  0  0  0  0  0
   -0.4514    6.8497   -3.4388 Cl  0  0  0  0  0  0  0  0  0  0  0  0
    1.1457    9.5659   -4.2406 Cl  0  0  0  0  0  0  0  0  0  0  0  0
    1.0454    3.9059   -2.6643 C   0  0  0  0  0  0  0  0  0  0  0  0
    0.7382    4.0234   -4.3825 S   0  0  0  0  0  0  0  0  0  0  0  0
    2.4428    5.2952    0.5393 C   0  0  0  0  0  0  0  0  0  0  0  0
    2.5422    4.6224    1.7220 C   0  0  0  0  0  0  0  0  0  0  0  0
    1.8484    3.0219    1.6412 S   0  0  0  0  0  0  0  0  0  0  0  0
    3.1346    5.0128    2.9585 C   0  0  0  0  0  0  0  0  0  0  0  0
    3.2059    4.2442    4.0824 C   0  0  0  0  0  0  0  0  0  0  0  0
    3.8892    4.8654    5.1540 C   0  0  0  0  0  0  0  0  0  0  0  0
    4.1635    4.3374    6.4266 C   0  0  0  0  0  0  0  0  0  0  0  0
    3.8264    2.9631    6.7635 C   0  0  0  0  0  0  0  0  0  0  0  0
    2.9243    2.5762    8.2000 S   0  0  0  0  0  0  0  0  0  0  0  0
    2.9919    0.8737    7.8829 C   0  0  0  0  0  0  0  0  0  0  0  0
    2.3752   -0.1164    8.8088 C   0  0  0  0  0  0  0  0  0  0  0  0
    0.9900    0.3137    9.2813 C   0  0  0  0  0  0  0  0  0  0  0  0
    3.6805    0.6371    6.7303 C   0  0  0  0  0  0  0  0  0  0  0  0
    3.9780   -0.9337    6.1029 Cl  0  0  0  0  0  0  0  0  0  0  0  0
    4.1490    1.8166    6.0895 C   0  0  0  0  0  0  0  0  0  0  0  0
    5.0880    1.7671    4.6547 Cl  0  0  0  0  0  0  0  0  0  0  0  0
    4.7881    5.1877    7.3319 C   0  0  0  0  0  0  0  0  0  0  0  0
    5.1908    6.5042    7.0024 C   0  0  0  0  0  0  0  0  0  0  0  0
    4.9788    7.0029    5.7071 C   0  0  0  0  0  0  0  0  0  0  0  0
    5.4564    8.3152    5.3033 C   0  0  0  0  0  0  0  0  0  0  0  0
    4.4005    9.4699    4.5467 S   0  0  0  0  0  0  0  0  0  0  0  0
    5.6728   10.6283    4.3600 C   0  0  0  0  0  0  0  0  0  0  0  0
    5.4299   11.9262    3.6725 C   0  0  0  0  0  0  0  0  0  0  0  0
    5.3445   11.7305    2.1569 C   0  0  0  0  0  0  0  0  0  0  0  0
    6.8418   10.1319    4.8540 C   0  0  0  0  0  0  0  0  0  0  0  0
    6.7224    8.8228    5.3946 C   0  0  0  0  0  0  0  0  0  0  0  0
    8.0669    7.9536    6.0137 Cl  0  0  0  0  0  0  0  0  0  0  0  0
    8.3309   10.9854    4.8377 Cl  0  0  0  0  0  0  0  0  0  0  0  0
    4.3073    6.1754    4.8174 C   0  0  0  0  0  0  0  0  0  0  0  0
    3.8992    6.5723    3.1694 S   0  0  0  0  0  0  0  0  0  0  0  0
    5.7825    7.1664    8.1176 C   0  0  0  0  0  0  0  0  0  0  0  0
    5.8532    6.3841    9.2133 C   0  0  0  0  0  0  0  0  0  0  0  0
    5.2039    4.7982    8.9774 S   0  0  0  0  0  0  0  0  0  0  0  0
    2.5431   -5.5041    9.8118 H   0  0  0  0  0  0  0  0  0  0  0  0
    1.4665   -7.5443    8.6105 H   0  0  0  0  0  0  0  0  0  0  0  0
   -2.1637  -12.0227    6.7443 H   0  0  0  0  0  0  0  0  0  0  0  0
   -0.6200  -12.8804    6.9209 H   0  0  0  0  0  0  0  0  0  0  0  0
   -1.8381  -11.9618    4.2682 H   0  0  0  0  0  0  0  0  0  0  0  0
   -0.3108  -12.8304    4.4491 H   0  0  0  0  0  0  0  0  0  0  0  0
   -1.8312  -13.6224    4.8746 H   0  0  0  0  0  0  0  0  0  0  0  0
    0.8317    1.7086    4.3766 H   0  0  0  0  0  0  0  0  0  0  0  0
    0.9706    1.5825    6.1373 H   0  0  0  0  0  0  0  0  0  0  0  0
   -1.6002    1.1641    4.5410 H   0  0  0  0  0  0  0  0  0  0  0  0
   -1.1986    2.5946    5.4939 H   0  0  0  0  0  0  0  0  0  0  0  0
   -1.4581    1.0402    6.2956 H   0  0  0  0  0  0  0  0  0  0  0  0
   -1.1045   -3.5257    3.3322 H   0  0  0  0  0  0  0  0  0  0  0  0
   -2.4385   -7.3228    0.7645 H   0  0  0  0  0  0  0  0  0  0  0  0
   -5.5830  -11.2455   -2.8567 H   0  0  0  0  0  0  0  0  0  0  0  0
   -3.9961  -12.0377   -2.8719 H   0  0  0  0  0  0  0  0  0  0  0  0
   -3.5552  -11.0952   -5.1406 H   0  0  0  0  0  0  0  0  0  0  0  0
   -5.1268  -10.2901   -5.1168 H   0  0  0  0  0  0  0  0  0  0  0  0
   -5.0376  -12.0556   -5.1369 H   0  0  0  0  0  0  0  0  0  0  0  0
   -5.6779    1.7617    0.6803 H   0  0  0  0  0  0  0  0  0  0  0  0
   -4.0091    2.3221    0.8263 H   0  0  0  0  0  0  0  0  0  0  0  0
   -5.3766    0.2820    2.6576 H   0  0  0  0  0  0  0  0  0  0  0  0
   -5.0170    1.9634    3.0687 H   0  0  0  0  0  0  0  0  0  0  0  0
   -3.7018    0.8149    2.8106 H   0  0  0  0  0  0  0  0  0  0  0  0
   -4.7364   -2.1144   -3.5832 H   0  0  0  0  0  0  0  0  0  0  0  0
   -6.5673   -4.1976  -10.2447 H   0  0  0  0  0  0  0  0  0  0  0  0
   -5.3277   -2.7111  -11.7638 H   0  0  0  0  0  0  0  0  0  0  0  0
   -3.1289   -3.3380   -8.9120 H   0  0  0  0  0  0  0  0  0  0  0  0
    0.0786   -6.2503   -4.4858 H   0  0  0  0  0  0  0  0  0  0  0  0
   -1.6567   -6.1603   -4.2031 H   0  0  0  0  0  0  0  0  0  0  0  0
    0.4021   -4.1837   -3.1056 H   0  0  0  0  0  0  0  0  0  0  0  0
   -0.4094   -5.4485   -2.1750 H   0  0  0  0  0  0  0  0  0  0  0  0
   -1.3381   -4.0980   -2.8290 H   0  0  0  0  0  0  0  0  0  0  0  0
   -2.5452    6.7401  -10.9264 H   0  0  0  0  0  0  0  0  0  0  0  0
   -0.8688    6.2792  -10.5700 H   0  0  0  0  0  0  0  0  0  0  0  0
   -0.7963    4.9346  -12.6715 H   0  0  0  0  0  0  0  0  0  0  0  0
   -1.1869    6.6249  -13.0090 H   0  0  0  0  0  0  0  0  0  0  0  0
   -2.4620    5.4025  -13.0285 H   0  0  0  0  0  0  0  0  0  0  0  0
   -1.0325    3.1642   -6.9550 H   0  0  0  0  0  0  0  0  0  0  0  0
   -0.0872    0.7608   -3.0424 H   0  0  0  0  0  0  0  0  0  0  0  0
   -0.5614   -3.2889   -0.4261 H   0  0  0  0  0  0  0  0  0  0  0  0
    0.0474   -3.2795    1.2341 H   0  0  0  0  0  0  0  0  0  0  0  0
    1.7537   -3.0734   -1.2970 H   0  0  0  0  0  0  0  0  0  0  0  0
    1.5965   -4.4980   -0.2625 H   0  0  0  0  0  0  0  0  0  0  0  0
    2.3819   -3.0408    0.3508 H   0  0  0  0  0  0  0  0  0  0  0  0
    5.1425    9.0117   -3.3202 H   0  0  0  0  0  0  0  0  0  0  0  0
    3.8420   10.1225   -3.7897 H   0  0  0  0  0  0  0  0  0  0  0  0
    3.3651   10.5661   -1.3775 H   0  0  0  0  0  0  0  0  0  0  0  0
    4.6526    9.4481   -0.9147 H   0  0  0  0  0  0  0  0  0  0  0  0
    5.0455   10.9452   -1.7669 H   0  0  0  0  0  0  0  0  0  0  0  0
    2.8096    6.2981    0.4183 H   0  0  0  0  0  0  0  0  0  0  0  0
    2.7756    3.2613    4.1421 H   0  0  0  0  0  0  0  0  0  0  0  0
    3.0272   -0.2423    9.6785 H   0  0  0  0  0  0  0  0  0  0  0  0
    2.3146   -1.0776    8.2950 H   0  0  0  0  0  0  0  0  0  0  0  0
    0.3142    0.4136    8.4361 H   0  0  0  0  0  0  0  0  0  0  0  0
    0.5827   -0.4311    9.9589 H   0  0  0  0  0  0  0  0  0  0  0  0
    1.0458    1.2677    9.8006 H   0  0  0  0  0  0  0  0  0  0  0  0
    6.2478   12.6074    3.9122 H   0  0  0  0  0  0  0  0  0  0  0  0
    4.4956   12.3604    4.0337 H   0  0  0  0  0  0  0  0  0  0  0  0
    6.2729   11.3109    1.7780 H   0  0  0  0  0  0  0  0  0  0  0  0
    4.5310   11.0525    1.9102 H   0  0  0  0  0  0  0  0  0  0  0  0
    5.1668   12.6836    1.6665 H   0  0  0  0  0  0  0  0  0  0  0  0
    6.1220    8.1852    8.0889 H   0  0  0  0  0  0  0  0  0  0  0  0
    6.2503    6.6354   10.1772 H   0  0  0  0  0  0  0  0  0  0  0  0
  1  2  2  0  0  0  0
  2  3  1  0  0  0  0
  3  4  2  0  0  0  0
  4  5  1  0  0  0  0
  5  6  1  0  0  0  0
  6  7  1  0  0  0  0
  7  8  1  0  0  0  0
  8  9  1  0  0  0  0
  7 10  2  0  0  0  0
 10 11  1  0  0  0  0
 10 12  1  0  0  0  0
 12 13  1  0  0  0  0
  4 14  1  0  0  0  0
 14 15  2  0  0  0  0
 15 16  1  0  0  0  0
 16 17  1  0  0  0  0
 17 18  1  0  0  0  0
 18 19  1  0  0  0  0
 19 20  1  0  0  0  0
 20 21  1  0  0  0  0
 19 22  2  0  0  0  0
 22 23  1  0  0  0  0
 23 24  1  0  0  0  0
 22 25  1  0  0  0  0
 16 26  2  0  0  0  0
 26 27  1  0  0  0  0
 15 28  1  0  0  0  0
 28 29  2  0  0  0  0
 29 30  1  0  0  0  0
 29 31  1  0  0  0  0
 31 32  2  0  0  0  0
 32 33  1  0  0  0  0
 33 34  2  0  0  0  0
 34 35  1  0  0  0  0
 35 36  1  0  0  0  0
 36 37  1  0  0  0  0
 37 38  1  0  0  0  0
 38 39  1  0  0  0  0
 37 40  2  0  0  0  0
 40 41  1  0  0  0  0
 40 42  1  0  0  0  0
 42 43  1  0  0  0  0
 34 44  1  0  0  0  0
 44 45  2  0  0  0  0
 45 46  1  0  0  0  0
 46 47  1  0  0  0  0
 47 48  1  0  0  0  0
 48 49  1  0  0  0  0
 49 50  1  0  0  0  0
 50 51  1  0  0  0  0
 49 52  2  0  0  0  0
 52 53  1  0  0  0  0
 53 54  1  0  0  0  0
 52 55  1  0  0  0  0
 46 56  2  0  0  0  0
 56 57  1  0  0  0  0
 45 58  1  0  0  0  0
 58 59  2  0  0  0  0
 59 60  1  0  0  0  0
 59 61  1  0  0  0  0
 61 62  1  0  0  0  0
 62 63  1  0  0  0  0
 63 64  2  0  0  0  0
 64 65  1  0  0  0  0
 65 66  1  0  0  0  0
 64 67  1  0  0  0  0
 63 68  1  0  0  0  0
 68 69  2  0  0  0  0
 69 70  1  0  0  0  0
 70 71  2  0  0  0  0
 71 72  1  0  0  0  0
 72 73  2  0  0  0  0
 73 74  1  0  0  0  0
 74 75  1  0  0  0  0
 75 76  1  0  0  0  0
 76 77  1  0  0  0  0
 77 78  1  0  0  0  0
 76 79  2  0  0  0  0
 79 80  1  0  0  0  0
 79 81  1  0  0  0  0
 81 82  1  0  0  0  0
 73 83  1  0  0  0  0
 83 84  2  0  0  0  0
 84 85  1  0  0  0  0
 85 86  1  0  0  0  0
 86 87  1  0  0  0  0
 87 88  1  0  0  0  0
 88 89  1  0  0  0  0
 89 90  1  0  0  0  0
 88 91  2  0  0  0  0
 91 92  1  0  0  0  0
 92 93  1  0  0  0  0
 91 94  1  0  0  0  0
 85 95  2  0  0  0  0
 95 96  1  0  0  0  0
 84 97  1  0  0  0  0
 97 98  2  0  0  0  0
 98 99  1  0  0  0  0
 98100  1  0  0  0  0
100101  2  0  0  0  0
101102  1  0  0  0  0
102103  2  0  0  0  0
103104  1  0  0  0  0
104105  1  0  0  0  0
105106  1  0  0  0  0
106107  1  0  0  0  0
107108  1  0  0  0  0
106109  2  0  0  0  0
109110  1  0  0  0  0
109111  1  0  0  0  0
111112  1  0  0  0  0
103113  1  0  0  0  0
113114  2  0  0  0  0
114115  1  0  0  0  0
115116  1  0  0  0  0
116117  1  0  0  0  0
117118  1  0  0  0  0
118119  1  0  0  0  0
119120  1  0  0  0  0
118121  2  0  0  0  0
121122  1  0  0  0  0
122123  1  0  0  0  0
121124  1  0  0  0  0
115125  2  0  0  0  0
125126  1  0  0  0  0
114127  1  0  0  0  0
127128  2  0  0  0  0
128129  1  0  0  0  0
128130  1  0  0  0  0
130131  2  0  0  0  0
131132  1  0  0  0  0
132133  2  0  0  0  0
133134  1  0  0  0  0
134135  1  0  0  0  0
135136  1  0  0  0  0
136137  1  0  0  0  0
137138  1  0  0  0  0
136139  2  0  0  0  0
139140  1  0  0  0  0
139141  1  0  0  0  0
141142  1  0  0  0  0
133143  1  0  0  0  0
143144  2  0  0  0  0
144145  1  0  0  0  0
145146  1  0  0  0  0
146147  1  0  0  0  0
147148  1  0  0  0  0
148149  1  0  0  0  0
149150  1  0  0  0  0
148151  2  0  0  0  0
151152  1  0  0  0  0
152153  1  0  0  0  0
151154  1  0  0  0  0
145155  2  0  0  0  0
155156  1  0  0  0  0
144157  1  0  0  0  0
157158  2  0  0  0  0
158159  1  0  0  0  0
 27  1  1  0  0  0  0
 57 31  1  0  0  0  0
 65 61  2  0  0  0  0
 96 70  1  0  0  0  0
126100  1  0  0  0  0
156130  1  0  0  0  0
 26  3  1  0  0  0  0
 56 33  1  0  0  0  0
 95 72  1  0  0  0  0
125102  1  0  0  0  0
155132  1  0  0  0  0
 12  5  2  0  0  0  0
 30 14  1  0  0  0  0
 42 35  2  0  0  0  0
 60 44  1  0  0  0  0
 81 74  2  0  0  0  0
 99 83  1  0  0  0  0
111104  2  0  0  0  0
129113  1  0  0  0  0
141134  2  0  0  0  0
159143  1  0  0  0  0
 23 17  2  0  0  0  0
 53 47  2  0  0  0  0
 92 86  2  0  0  0  0
122116  2  0  0  0  0
152146  2  0  0  0  0
  1160  1  0  0  0  0
  2161  1  0  0  0  0
  8162  1  0  0  0  0
  8163  1  0  0  0  0
  9164  1  0  0  0  0
  9165  1  0  0  0  0
  9166  1  0  0  0  0
 20167  1  0  0  0  0
 20168  1  0  0  0  0
 21169  1  0  0  0  0
 21170  1  0  0  0  0
 21171  1  0  0  0  0
 28172  1  0  0  0  0
 32173  1  0  0  0  0
 38174  1  0  0  0  0
 38175  1  0  0  0  0
 39176  1  0  0  0  0
 39177  1  0  0  0  0
 39178  1  0  0  0  0
 50179  1  0  0  0  0
 50180  1  0  0  0  0
 51181  1  0  0  0  0
 51182  1  0  0  0  0
 51183  1  0  0  0  0
 58184  1  0  0  0  0
 68185  1  0  0  0  0
 69186  1  0  0  0  0
 71187  1  0  0  0  0
 77188  1  0  0  0  0
 77189  1  0  0  0  0
 78190  1  0  0  0  0
 78191  1  0  0  0  0
 78192  1  0  0  0  0
 89193  1  0  0  0  0
 89194  1  0  0  0  0
 90195  1  0  0  0  0
 90196  1  0  0  0  0
 90197  1  0  0  0  0
 97198  1  0  0  0  0
101199  1  0  0  0  0
107200  1  0  0  0  0
107201  1  0  0  0  0
108202  1  0  0  0  0
108203  1  0  0  0  0
108204  1  0  0  0  0
119205  1  0  0  0  0
119206  1  0  0  0  0
120207  1  0  0  0  0
120208  1  0  0  0  0
120209  1  0  0  0  0
127210  1  0  0  0  0
131211  1  0  0  0  0
137212  1  0  0  0  0
137213  1  0  0  0  0
138214  1  0  0  0  0
138215  1  0  0  0  0
138216  1  0  0  0  0
149217  1  0  0  0  0
149218  1  0  0  0  0
150219  1  0  0  0  0
150220  1  0  0  0  0
150221  1  0  0  0  0
157222  1  0  0  0  0
158223  1  0  0  0  0
M  END
