
  xtb     03032201063D
 energy: -457.436508900769 gnorm: 0.000455247111 xtb: 6.4.1 (unknown)
226251  0     0  0            999 V2000
    1.4726   -4.1981   10.1354 C   0  0  0  0  0  0  0  0  0  0  0  0
    2.4026   -4.0203    9.1741 C   0  0  0  0  0  0  0  0  0  0  0  0
    1.8394   -3.9094    7.8695 C   0  0  0  0  0  0  0  0  0  0  0  0
    2.5062   -3.7913    6.6359 C   0  0  0  0  0  0  0  0  0  0  0  0
    3.9527   -3.6781    6.5770 C   0  0  0  0  0  0  0  0  0  0  0  0
    4.7903   -2.5552    7.6129 S   0  0  0  0  0  0  0  0  0  0  0  0
    6.3330   -2.9287    6.9211 C   0  0  0  0  0  0  0  0  0  0  0  0
    7.5601   -2.1996    7.3425 C   0  0  0  0  0  0  0  0  0  0  0  0
    7.6245   -0.8148    6.6930 C   0  0  0  0  0  0  0  0  0  0  0  0
    6.1925   -3.8811    5.9581 C   0  0  0  0  0  0  0  0  0  0  0  0
    7.4978   -4.5127    5.0393 Cl  0  0  0  0  0  0  0  0  0  0  0  0
    4.8523   -4.3168    5.7673 C   0  0  0  0  0  0  0  0  0  0  0  0
    4.4703   -5.5887    4.6865 Cl  0  0  0  0  0  0  0  0  0  0  0  0
    1.7136   -3.7715    5.4910 C   0  0  0  0  0  0  0  0  0  0  0  0
    0.3000   -3.8628    5.5388 C   0  0  0  0  0  0  0  0  0  0  0  0
   -0.3653   -3.9844    6.7701 C   0  0  0  0  0  0  0  0  0  0  0  0
   -1.8117   -4.1004    6.8421 C   0  0  0  0  0  0  0  0  0  0  0  0
   -2.6551   -5.3108    5.9170 S   0  0  0  0  0  0  0  0  0  0  0  0
   -4.1929   -4.8429    6.5547 C   0  0  0  0  0  0  0  0  0  0  0  0
   -5.4397   -5.5667    6.1832 C   0  0  0  0  0  0  0  0  0  0  0  0
   -5.7002   -6.7317    7.1409 C   0  0  0  0  0  0  0  0  0  0  0  0
   -4.0455   -3.8133    7.4352 C   0  0  0  0  0  0  0  0  0  0  0  0
   -2.6997   -3.3874    7.6006 C   0  0  0  0  0  0  0  0  0  0  0  0
   -2.2863   -2.0549    8.5905 Cl  0  0  0  0  0  0  0  0  0  0  0  0
   -5.3518   -3.0787    8.2704 Cl  0  0  0  0  0  0  0  0  0  0  0  0
    0.4278   -4.0087    7.9108 C   0  0  0  0  0  0  0  0  0  0  0  0
   -0.1445   -4.2393    9.5366 S   0  0  0  0  0  0  0  0  0  0  0  0
   -0.2811   -3.7741    4.2515 C   0  0  0  0  0  0  0  0  0  0  0  0
    0.6284   -3.6399    3.2445 C   0  0  0  0  0  0  0  0  0  0  0  0
    2.2671   -3.5914    3.8488 S   0  0  0  0  0  0  0  0  0  0  0  0
    0.3340   -3.6077    1.8481 C   0  0  0  0  0  0  0  0  0  0  0  0
    1.1734   -3.6511    0.7730 C   0  0  0  0  0  0  0  0  0  0  0  0
    0.4963   -3.6717   -0.4754 C   0  0  0  0  0  0  0  0  0  0  0  0
    1.0209   -3.7444   -1.7807 C   0  0  0  0  0  0  0  0  0  0  0  0
    2.4427   -3.9077   -2.0366 C   0  0  0  0  0  0  0  0  0  0  0  0
    3.6304   -2.8421   -1.3569 S   0  0  0  0  0  0  0  0  0  0  0  0
    4.9404   -3.6785   -2.1088 C   0  0  0  0  0  0  0  0  0  0  0  0
    6.3473   -3.2561   -1.8707 C   0  0  0  0  0  0  0  0  0  0  0  0
    6.8537   -3.7843   -0.5268 C   0  0  0  0  0  0  0  0  0  0  0  0
    4.4710   -4.7328   -2.8342 C   0  0  0  0  0  0  0  0  0  0  0  0
    5.4724   -5.8109   -3.7166 Cl  0  0  0  0  0  0  0  0  0  0  0  0
    3.0570   -4.8642   -2.7999 C   0  0  0  0  0  0  0  0  0  0  0  0
    2.2440   -6.1617   -3.5682 Cl  0  0  0  0  0  0  0  0  0  0  0  0
    0.1122   -3.6992   -2.8334 C   0  0  0  0  0  0  0  0  0  0  0  0
   -1.2914   -3.6833   -2.6441 C   0  0  0  0  0  0  0  0  0  0  0  0
   -1.8162   -3.6883   -1.3440 C   0  0  0  0  0  0  0  0  0  0  0  0
   -3.2511   -3.7738   -1.1003 C   0  0  0  0  0  0  0  0  0  0  0  0
   -3.9394   -5.2013   -0.3879 S   0  0  0  0  0  0  0  0  0  0  0  0
   -5.5448   -4.5630   -0.4852 C   0  0  0  0  0  0  0  0  0  0  0  0
   -6.7234   -5.3675   -0.0598 C   0  0  0  0  0  0  0  0  0  0  0  0
   -7.1847   -6.2986   -1.1836 C   0  0  0  0  0  0  0  0  0  0  0  0
   -5.5282   -3.3190   -1.0408 C   0  0  0  0  0  0  0  0  0  0  0  0
   -4.2261   -2.8633   -1.3830 C   0  0  0  0  0  0  0  0  0  0  0  0
   -3.9052   -1.3049   -2.0188 Cl  0  0  0  0  0  0  0  0  0  0  0  0
   -6.9380   -2.3878   -1.3133 Cl  0  0  0  0  0  0  0  0  0  0  0  0
   -0.9101   -3.6539   -0.2989 C   0  0  0  0  0  0  0  0  0  0  0  0
   -1.3536   -3.5887    1.3767 S   0  0  0  0  0  0  0  0  0  0  0  0
   -1.9965   -3.6946   -3.8706 C   0  0  0  0  0  0  0  0  0  0  0  0
   -1.1845   -3.6744   -4.9674 C   0  0  0  0  0  0  0  0  0  0  0  0
    0.5123   -3.6407   -4.5298 S   0  0  0  0  0  0  0  0  0  0  0  0
   -1.6073   -3.7082   -6.3310 C   0  0  0  0  0  0  0  0  0  0  0  0
   -3.3031   -3.8325   -6.6908 S   0  0  0  0  0  0  0  0  0  0  0  0
   -2.9712   -3.7984   -8.3811 C   0  0  0  0  0  0  0  0  0  0  0  0
   -4.0809   -3.8223   -9.3665 C   0  0  0  0  0  0  0  0  0  0  0  0
   -3.6318   -3.9119  -10.6258 F   0  0  0  0  0  0  0  0  0  0  0  0
   -4.8440   -2.7103   -9.3181 F   0  0  0  0  0  0  0  0  0  0  0  0
   -4.9282   -4.8510   -9.1877 F   0  0  0  0  0  0  0  0  0  0  0  0
   -1.6366   -3.7020   -8.6507 C   0  0  0  0  0  0  0  0  0  0  0  0
   -0.8469   -3.6409   -7.4828 C   0  0  0  0  0  0  0  0  0  0  0  0
    0.6137   -3.4858   -7.5093 C   0  0  0  0  0  0  0  0  0  0  0  0
    1.2422   -2.3055   -7.4778 C   0  0  0  0  0  0  0  0  0  0  0  0
    0.6195   -1.0163   -7.3571 C   0  0  0  0  0  0  0  0  0  0  0  0
    1.2446    0.1454   -7.0082 C   0  0  0  0  0  0  0  0  0  0  0  0
    0.3644    1.2449   -6.8436 C   0  0  0  0  0  0  0  0  0  0  0  0
    0.6539    2.5402   -6.3784 C   0  0  0  0  0  0  0  0  0  0  0  0
    2.0142    2.9457   -6.0690 C   0  0  0  0  0  0  0  0  0  0  0  0
    2.4189    3.5962   -4.5060 S   0  0  0  0  0  0  0  0  0  0  0  0
    4.0922    3.7480   -4.9130 C   0  0  0  0  0  0  0  0  0  0  0  0
    5.0713    4.2711   -3.9219 C   0  0  0  0  0  0  0  0  0  0  0  0
    5.1616    3.3624   -2.6966 C   0  0  0  0  0  0  0  0  0  0  0  0
    4.3099    3.3164   -6.1874 C   0  0  0  0  0  0  0  0  0  0  0  0
    5.8445    3.3227   -6.9579 Cl  0  0  0  0  0  0  0  0  0  0  0  0
    3.1360    2.8587   -6.8445 C   0  0  0  0  0  0  0  0  0  0  0  0
    3.1374    2.3314   -8.4781 Cl  0  0  0  0  0  0  0  0  0  0  0  0
   -0.4305    3.3586   -6.0932 C   0  0  0  0  0  0  0  0  0  0  0  0
   -1.7807    2.9604   -6.2592 C   0  0  0  0  0  0  0  0  0  0  0  0
   -2.0657    1.6944   -6.7936 C   0  0  0  0  0  0  0  0  0  0  0  0
   -3.4287    1.1946   -6.9145 C   0  0  0  0  0  0  0  0  0  0  0  0
   -4.6049    1.9314   -7.9575 S   0  0  0  0  0  0  0  0  0  0  0  0
   -5.8144    0.7591   -7.5505 C   0  0  0  0  0  0  0  0  0  0  0  0
   -7.1530    0.7780   -8.1997 C   0  0  0  0  0  0  0  0  0  0  0  0
   -7.0818    0.1832   -9.6081 C   0  0  0  0  0  0  0  0  0  0  0  0
   -5.3199   -0.1409   -6.6553 C   0  0  0  0  0  0  0  0  0  0  0  0
   -3.9720    0.1094   -6.2871 C   0  0  0  0  0  0  0  0  0  0  0  0
   -3.1575   -0.8170   -5.1011 Cl  0  0  0  0  0  0  0  0  0  0  0  0
   -6.2093   -1.4589   -6.0143 Cl  0  0  0  0  0  0  0  0  0  0  0  0
   -0.9824    0.8712   -7.0712 C   0  0  0  0  0  0  0  0  0  0  0  0
   -1.1036   -0.7866   -7.5706 S   0  0  0  0  0  0  0  0  0  0  0  0
   -2.6818    3.8318   -5.5956 C   0  0  0  0  0  0  0  0  0  0  0  0
   -2.0550    4.8435   -4.9246 C   0  0  0  0  0  0  0  0  0  0  0  0
   -0.3303    4.8851   -5.2671 S   0  0  0  0  0  0  0  0  0  0  0  0
   -2.4645    5.4723   -3.7043 C   0  0  0  0  0  0  0  0  0  0  0  0
   -3.4098    4.9623   -2.8566 C   0  0  0  0  0  0  0  0  0  0  0  0
   -3.1023    5.1591   -1.4859 C   0  0  0  0  0  0  0  0  0  0  0  0
   -3.5883    4.4180   -0.3894 C   0  0  0  0  0  0  0  0  0  0  0  0
   -4.7910    3.6075   -0.4570 C   0  0  0  0  0  0  0  0  0  0  0  0
   -5.1542    2.5401   -1.7826 S   0  0  0  0  0  0  0  0  0  0  0  0
   -6.6493    2.0357   -1.0819 C   0  0  0  0  0  0  0  0  0  0  0  0
   -7.5640    1.0810   -1.7676 C   0  0  0  0  0  0  0  0  0  0  0  0
   -7.0728    0.6825   -3.1518 C   0  0  0  0  0  0  0  0  0  0  0  0
   -6.8347    2.6498    0.1221 C   0  0  0  0  0  0  0  0  0  0  0  0
   -8.2185    2.3967    1.1049 Cl  0  0  0  0  0  0  0  0  0  0  0  0
   -5.7836    3.5308    0.4844 C   0  0  0  0  0  0  0  0  0  0  0  0
   -5.8207    4.4640    1.9205 Cl  0  0  0  0  0  0  0  0  0  0  0  0
   -2.7655    4.3641    0.7348 C   0  0  0  0  0  0  0  0  0  0  0  0
   -1.5800    5.1247    0.8598 C   0  0  0  0  0  0  0  0  0  0  0  0
   -1.1911    5.9921   -0.1689 C   0  0  0  0  0  0  0  0  0  0  0  0
    0.1308    6.6207   -0.1749 C   0  0  0  0  0  0  0  0  0  0  0  0
    0.4115    8.2895    0.1843 S   0  0  0  0  0  0  0  0  0  0  0  0
    2.1096    8.1437   -0.1276 C   0  0  0  0  0  0  0  0  0  0  0  0
    3.0112    9.3255   -0.0434 C   0  0  0  0  0  0  0  0  0  0  0  0
    2.9570   10.1449   -1.3349 C   0  0  0  0  0  0  0  0  0  0  0  0
    2.4180    6.8693   -0.4990 C   0  0  0  0  0  0  0  0  0  0  0  0
    1.2953    5.9997   -0.5228 C   0  0  0  0  0  0  0  0  0  0  0  0
    1.3880    4.3396   -0.9557 Cl  0  0  0  0  0  0  0  0  0  0  0  0
    3.9995    6.3415   -0.8962 Cl  0  0  0  0  0  0  0  0  0  0  0  0
   -1.9356    5.9497   -1.3324 C   0  0  0  0  0  0  0  0  0  0  0  0
   -1.3279    6.5145   -2.8655 S   0  0  0  0  0  0  0  0  0  0  0  0
   -0.7176    4.6158    1.8678 C   0  0  0  0  0  0  0  0  0  0  0  0
   -1.1716    3.4680    2.4326 C   0  0  0  0  0  0  0  0  0  0  0  0
   -2.8065    3.0821    1.9225 S   0  0  0  0  0  0  0  0  0  0  0  0
   -0.2666    2.4198    2.8803 C   0  0  0  0  0  0  0  0  0  0  0  0
    0.3544    1.6982    1.9127 C   0  0  0  0  0  0  0  0  0  0  0  0
    1.3416    0.8069    2.3975 C   0  0  0  0  0  0  0  0  0  0  0  0
    2.2102    0.0093    1.6326 C   0  0  0  0  0  0  0  0  0  0  0  0
    2.0063   -0.0739    0.1951 C   0  0  0  0  0  0  0  0  0  0  0  0
    0.4123   -0.3885   -0.4391 S   0  0  0  0  0  0  0  0  0  0  0  0
    0.9289   -0.1929   -2.0763 C   0  0  0  0  0  0  0  0  0  0  0  0
   -0.0595   -0.1712   -3.1882 C   0  0  0  0  0  0  0  0  0  0  0  0
   -0.7270    1.2056   -3.2574 C   0  0  0  0  0  0  0  0  0  0  0  0
    2.2631    0.0772   -2.1176 C   0  0  0  0  0  0  0  0  0  0  0  0
    3.1380    0.2954   -3.5743 Cl  0  0  0  0  0  0  0  0  0  0  0  0
    2.8765    0.1471   -0.8362 C   0  0  0  0  0  0  0  0  0  0  0  0
    4.5247    0.5508   -0.6409 Cl  0  0  0  0  0  0  0  0  0  0  0  0
    3.2347   -0.6232    2.3267 C   0  0  0  0  0  0  0  0  0  0  0  0
    3.3836   -0.5114    3.7320 C   0  0  0  0  0  0  0  0  0  0  0  0
    2.4479    0.2029    4.4969 C   0  0  0  0  0  0  0  0  0  0  0  0
    2.4903    0.1881    5.9504 C   0  0  0  0  0  0  0  0  0  0  0  0
    3.8840    0.6773    6.8613 S   0  0  0  0  0  0  0  0  0  0  0  0
    3.1384    0.2778    8.3716 C   0  0  0  0  0  0  0  0  0  0  0  0
    3.8492    0.4905    9.6612 C   0  0  0  0  0  0  0  0  0  0  0  0
    3.7956    1.9598   10.0852 C   0  0  0  0  0  0  0  0  0  0  0  0
    1.8746   -0.1858    8.1646 C   0  0  0  0  0  0  0  0  0  0  0  0
    1.5003   -0.2293    6.7947 C   0  0  0  0  0  0  0  0  0  0  0  0
   -0.0277   -0.7985    6.2690 Cl  0  0  0  0  0  0  0  0  0  0  0  0
    0.8257   -0.7012    9.4179 Cl  0  0  0  0  0  0  0  0  0  0  0  0
    1.4529    0.8818    3.8030 C   0  0  0  0  0  0  0  0  0  0  0  0
    0.2953    2.0067    4.4774 S   0  0  0  0  0  0  0  0  0  0  0  0
    4.5223   -1.2322    4.1969 C   0  0  0  0  0  0  0  0  0  0  0  0
    5.1796   -1.8730    3.2107 C   0  0  0  0  0  0  0  0  0  0  0  0
    4.4645   -1.6509    1.6544 S   0  0  0  0  0  0  0  0  0  0  0  0
    1.6326   -4.3098   11.1900 H   0  0  0  0  0  0  0  0  0  0  0  0
    3.4565   -3.9824    9.3769 H   0  0  0  0  0  0  0  0  0  0  0  0
    7.5639   -2.0906    8.4287 H   0  0  0  0  0  0  0  0  0  0  0  0
    8.4321   -2.7854    7.0473 H   0  0  0  0  0  0  0  0  0  0  0  0
    8.5265   -0.2982    7.0089 H   0  0  0  0  0  0  0  0  0  0  0  0
    6.7612   -0.2183    6.9801 H   0  0  0  0  0  0  0  0  0  0  0  0
    7.6363   -0.9056    5.6098 H   0  0  0  0  0  0  0  0  0  0  0  0
   -5.3479   -5.9450    5.1638 H   0  0  0  0  0  0  0  0  0  0  0  0
   -6.2769   -4.8672    6.2249 H   0  0  0  0  0  0  0  0  0  0  0  0
   -4.8747   -7.4388    7.1087 H   0  0  0  0  0  0  0  0  0  0  0  0
   -5.8046   -6.3652    8.1588 H   0  0  0  0  0  0  0  0  0  0  0  0
   -6.6143   -7.2482    6.8608 H   0  0  0  0  0  0  0  0  0  0  0  0
   -1.3401   -3.8130    4.0710 H   0  0  0  0  0  0  0  0  0  0  0  0
    2.2437   -3.6725    0.8750 H   0  0  0  0  0  0  0  0  0  0  0  0
    6.9718   -3.6409   -2.6787 H   0  0  0  0  0  0  0  0  0  0  0  0
    6.4013   -2.1659   -1.8719 H   0  0  0  0  0  0  0  0  0  0  0  0
    6.2374   -3.3980    0.2821 H   0  0  0  0  0  0  0  0  0  0  0  0
    7.8809   -3.4690   -0.3656 H   0  0  0  0  0  0  0  0  0  0  0  0
    6.8147   -4.8706   -0.5082 H   0  0  0  0  0  0  0  0  0  0  0  0
   -7.5346   -4.6880    0.2089 H   0  0  0  0  0  0  0  0  0  0  0  0
   -6.4585   -5.9605    0.8172 H   0  0  0  0  0  0  0  0  0  0  0  0
   -6.3866   -6.9854   -1.4552 H   0  0  0  0  0  0  0  0  0  0  0  0
   -7.4610   -5.7218   -2.0626 H   0  0  0  0  0  0  0  0  0  0  0  0
   -8.0471   -6.8751   -0.8605 H   0  0  0  0  0  0  0  0  0  0  0  0
   -3.0698   -3.7180   -3.9362 H   0  0  0  0  0  0  0  0  0  0  0  0
   -1.2325   -3.6605   -9.6460 H   0  0  0  0  0  0  0  0  0  0  0  0
    1.1888   -4.3996   -7.5713 H   0  0  0  0  0  0  0  0  0  0  0  0
    2.3236   -2.2835   -7.4902 H   0  0  0  0  0  0  0  0  0  0  0  0
    2.3012    0.2014   -6.8201 H   0  0  0  0  0  0  0  0  0  0  0  0
    6.0469    4.3493   -4.4046 H   0  0  0  0  0  0  0  0  0  0  0  0
    4.7626    5.2702   -3.6032 H   0  0  0  0  0  0  0  0  0  0  0  0
    5.8814    3.7605   -1.9861 H   0  0  0  0  0  0  0  0  0  0  0  0
    5.4745    2.3627   -2.9867 H   0  0  0  0  0  0  0  0  0  0  0  0
    4.1927    3.2941   -2.2075 H   0  0  0  0  0  0  0  0  0  0  0  0
   -7.5175    1.8057   -8.2570 H   0  0  0  0  0  0  0  0  0  0  0  0
   -7.8438    0.1949   -7.5882 H   0  0  0  0  0  0  0  0  0  0  0  0
   -8.0699    0.1748  -10.0598 H   0  0  0  0  0  0  0  0  0  0  0  0
   -6.4164    0.7742  -10.2329 H   0  0  0  0  0  0  0  0  0  0  0  0
   -6.7043   -0.8349   -9.5677 H   0  0  0  0  0  0  0  0  0  0  0  0
   -3.7373    3.6401   -5.5329 H   0  0  0  0  0  0  0  0  0  0  0  0
   -4.1971    4.3197   -3.2006 H   0  0  0  0  0  0  0  0  0  0  0  0
   -7.6706    0.1911   -1.1406 H   0  0  0  0  0  0  0  0  0  0  0  0
   -8.5548    1.5409   -1.8369 H   0  0  0  0  0  0  0  0  0  0  0  0
   -6.0935    0.2144   -3.0879 H   0  0  0  0  0  0  0  0  0  0  0  0
   -6.9947    1.5543   -3.7987 H   0  0  0  0  0  0  0  0  0  0  0  0
   -7.7619   -0.0249   -3.6051 H   0  0  0  0  0  0  0  0  0  0  0  0
    4.0315    8.9769    0.1275 H   0  0  0  0  0  0  0  0  0  0  0  0
    2.7103    9.9531    0.7972 H   0  0  0  0  0  0  0  0  0  0  0  0
    3.6224   11.0008   -1.2621 H   0  0  0  0  0  0  0  0  0  0  0  0
    1.9455   10.5018   -1.5125 H   0  0  0  0  0  0  0  0  0  0  0  0
    3.2633    9.5352   -2.1811 H   0  0  0  0  0  0  0  0  0  0  0  0
    0.2645    5.0120    2.0535 H   0  0  0  0  0  0  0  0  0  0  0  0
    0.1431    1.8494    0.8705 H   0  0  0  0  0  0  0  0  0  0  0  0
   -0.8237   -0.9321   -3.0212 H   0  0  0  0  0  0  0  0  0  0  0  0
    0.4501   -0.3851   -4.1300 H   0  0  0  0  0  0  0  0  0  0  0  0
    0.0179    1.9814   -3.4224 H   0  0  0  0  0  0  0  0  0  0  0  0
   -1.4463    1.2330   -4.0703 H   0  0  0  0  0  0  0  0  0  0  0  0
   -1.2506    1.4179   -2.3275 H   0  0  0  0  0  0  0  0  0  0  0  0
    4.8899    0.1787    9.5547 H   0  0  0  0  0  0  0  0  0  0  0  0
    3.3755   -0.1312   10.4225 H   0  0  0  0  0  0  0  0  0  0  0  0
    2.7638    2.2783   10.2090 H   0  0  0  0  0  0  0  0  0  0  0  0
    4.2645    2.5872    9.3310 H   0  0  0  0  0  0  0  0  0  0  0  0
    4.3178    2.0963   11.0282 H   0  0  0  0  0  0  0  0  0  0  0  0
    4.8305   -1.2441    5.2236 H   0  0  0  0  0  0  0  0  0  0  0  0
    6.0605   -2.4792    3.2895 H   0  0  0  0  0  0  0  0  0  0  0  0
  1  2  2  0  0  0  0
  2  3  1  0  0  0  0
  3  4  2  0  0  0  0
  4  5  1  0  0  0  0
  5  6  1  0  0  0  0
  6  7  1  0  0  0  0
  7  8  1  0  0  0  0
  8  9  1  0  0  0  0
  7 10  2  0  0  0  0
 10 11  1  0  0  0  0
 10 12  1  0  0  0  0
 12 13  1  0  0  0  0
  4 14  1  0  0  0  0
 14 15  2  0  0  0  0
 15 16  1  0  0  0  0
 16 17  1  0  0  0  0
 17 18  1  0  0  0  0
 18 19  1  0  0  0  0
 19 20  1  0  0  0  0
 20 21  1  0  0  0  0
 19 22  2  0  0  0  0
 22 23  1  0  0  0  0
 23 24  1  0  0  0  0
 22 25  1  0  0  0  0
 16 26  2  0  0  0  0
 26 27  1  0  0  0  0
 15 28  1  0  0  0  0
 28 29  2  0  0  0  0
 29 30  1  0  0  0  0
 29 31  1  0  0  0  0
 31 32  2  0  0  0  0
 32 33  1  0  0  0  0
 33 34  2  0  0  0  0
 34 35  1  0  0  0  0
 35 36  1  0  0  0  0
 36 37  1  0  0  0  0
 37 38  1  0  0  0  0
 38 39  1  0  0  0  0
 37 40  2  0  0  0  0
 40 41  1  0  0  0  0
 40 42  1  0  0  0  0
 42 43  1  0  0  0  0
 34 44  1  0  0  0  0
 44 45  2  0  0  0  0
 45 46  1  0  0  0  0
 46 47  1  0  0  0  0
 47 48  1  0  0  0  0
 48 49  1  0  0  0  0
 49 50  1  0  0  0  0
 50 51  1  0  0  0  0
 49 52  2  0  0  0  0
 52 53  1  0  0  0  0
 53 54  1  0  0  0  0
 52 55  1  0  0  0  0
 46 56  2  0  0  0  0
 56 57  1  0  0  0  0
 45 58  1  0  0  0  0
 58 59  2  0  0  0  0
 59 60  1  0  0  0  0
 59 61  1  0  0  0  0
 61 62  1  0  0  0  0
 62 63  1  0  0  0  0
 63 64  1  0  0  0  0
 64 65  1  0  0  0  0
 64 66  1  0  0  0  0
 64 67  1  0  0  0  0
 63 68  2  0  0  0  0
 68 69  1  0  0  0  0
 69 70  1  0  0  0  0
 70 71  2  0  0  0  0
 71 72  1  0  0  0  0
 72 73  2  0  0  0  0
 73 74  1  0  0  0  0
 74 75  2  0  0  0  0
 75 76  1  0  0  0  0
 76 77  1  0  0  0  0
 77 78  1  0  0  0  0
 78 79  1  0  0  0  0
 79 80  1  0  0  0  0
 78 81  2  0  0  0  0
 81 82  1  0  0  0  0
 81 83  1  0  0  0  0
 83 84  1  0  0  0  0
 75 85  1  0  0  0  0
 85 86  2  0  0  0  0
 86 87  1  0  0  0  0
 87 88  1  0  0  0  0
 88 89  1  0  0  0  0
 89 90  1  0  0  0  0
 90 91  1  0  0  0  0
 91 92  1  0  0  0  0
 90 93  2  0  0  0  0
 93 94  1  0  0  0  0
 94 95  1  0  0  0  0
 93 96  1  0  0  0  0
 87 97  2  0  0  0  0
 97 98  1  0  0  0  0
 86 99  1  0  0  0  0
 99100  2  0  0  0  0
100101  1  0  0  0  0
100102  1  0  0  0  0
102103  2  0  0  0  0
103104  1  0  0  0  0
104105  2  0  0  0  0
105106  1  0  0  0  0
106107  1  0  0  0  0
107108  1  0  0  0  0
108109  1  0  0  0  0
109110  1  0  0  0  0
108111  2  0  0  0  0
111112  1  0  0  0  0
111113  1  0  0  0  0
113114  1  0  0  0  0
105115  1  0  0  0  0
115116  2  0  0  0  0
116117  1  0  0  0  0
117118  1  0  0  0  0
118119  1  0  0  0  0
119120  1  0  0  0  0
120121  1  0  0  0  0
121122  1  0  0  0  0
120123  2  0  0  0  0
123124  1  0  0  0  0
124125  1  0  0  0  0
123126  1  0  0  0  0
117127  2  0  0  0  0
127128  1  0  0  0  0
116129  1  0  0  0  0
129130  2  0  0  0  0
130131  1  0  0  0  0
130132  1  0  0  0  0
132133  2  0  0  0  0
133134  1  0  0  0  0
134135  2  0  0  0  0
135136  1  0  0  0  0
136137  1  0  0  0  0
137138  1  0  0  0  0
138139  1  0  0  0  0
139140  1  0  0  0  0
138141  2  0  0  0  0
141142  1  0  0  0  0
141143  1  0  0  0  0
143144  1  0  0  0  0
135145  1  0  0  0  0
145146  2  0  0  0  0
146147  1  0  0  0  0
147148  1  0  0  0  0
148149  1  0  0  0  0
149150  1  0  0  0  0
150151  1  0  0  0  0
151152  1  0  0  0  0
150153  2  0  0  0  0
153154  1  0  0  0  0
154155  1  0  0  0  0
153156  1  0  0  0  0
147157  2  0  0  0  0
157158  1  0  0  0  0
146159  1  0  0  0  0
159160  2  0  0  0  0
160161  1  0  0  0  0
 27  1  1  0  0  0  0
 57 31  1  0  0  0  0
 69 61  2  0  0  0  0
 98 72  1  0  0  0  0
128102  1  0  0  0  0
158132  1  0  0  0  0
 26  3  1  0  0  0  0
 56 33  1  0  0  0  0
 97 74  1  0  0  0  0
127104  1  0  0  0  0
157134  1  0  0  0  0
 12  5  2  0  0  0  0
 30 14  1  0  0  0  0
 42 35  2  0  0  0  0
 60 44  1  0  0  0  0
 83 76  2  0  0  0  0
101 85  1  0  0  0  0
113106  2  0  0  0  0
131115  1  0  0  0  0
143136  2  0  0  0  0
161145  1  0  0  0  0
 23 17  2  0  0  0  0
 53 47  2  0  0  0  0
 94 88  2  0  0  0  0
124118  2  0  0  0  0
154148  2  0  0  0  0
  1162  1  0  0  0  0
  2163  1  0  0  0  0
  8164  1  0  0  0  0
  8165  1  0  0  0  0
  9166  1  0  0  0  0
  9167  1  0  0  0  0
  9168  1  0  0  0  0
 20169  1  0  0  0  0
 20170  1  0  0  0  0
 21171  1  0  0  0  0
 21172  1  0  0  0  0
 21173  1  0  0  0  0
 28174  1  0  0  0  0
 32175  1  0  0  0  0
 38176  1  0  0  0  0
 38177  1  0  0  0  0
 39178  1  0  0  0  0
 39179  1  0  0  0  0
 39180  1  0  0  0  0
 50181  1  0  0  0  0
 50182  1  0  0  0  0
 51183  1  0  0  0  0
 51184  1  0  0  0  0
 51185  1  0  0  0  0
 58186  1  0  0  0  0
 68187  1  0  0  0  0
 70188  1  0  0  0  0
 71189  1  0  0  0  0
 73190  1  0  0  0  0
 79191  1  0  0  0  0
 79192  1  0  0  0  0
 80193  1  0  0  0  0
 80194  1  0  0  0  0
 80195  1  0  0  0  0
 91196  1  0  0  0  0
 91197  1  0  0  0  0
 92198  1  0  0  0  0
 92199  1  0  0  0  0
 92200  1  0  0  0  0
 99201  1  0  0  0  0
103202  1  0  0  0  0
109203  1  0  0  0  0
109204  1  0  0  0  0
110205  1  0  0  0  0
110206  1  0  0  0  0
110207  1  0  0  0  0
121208  1  0  0  0  0
121209  1  0  0  0  0
122210  1  0  0  0  0
122211  1  0  0  0  0
122212  1  0  0  0  0
129213  1  0  0  0  0
133214  1  0  0  0  0
139215  1  0  0  0  0
139216  1  0  0  0  0
140217  1  0  0  0  0
140218  1  0  0  0  0
140219  1  0  0  0  0
151220  1  0  0  0  0
151221  1  0  0  0  0
152222  1  0  0  0  0
152223  1  0  0  0  0
152224  1  0  0  0  0
159225  1  0  0  0  0
160226  1  0  0  0  0
M  END
