225

C          4.67110       -2.72040        8.90730
C          3.43580       -2.23660        8.66510
C          2.73380       -2.97610        7.66850
C          1.46660       -2.71180        7.11680
C          0.63110       -1.64770        7.64800
S          0.40240       -1.51660        9.37120
C         -0.67080       -0.16830        9.21830
C         -1.25580        0.48500       10.42100
C         -0.16950        1.06430       11.32760
C         -0.83370        0.15160        7.90470
Cl        -1.84800        1.41660        7.34720
C         -0.09850       -0.67890        7.01320
Cl        -0.09600       -0.38320        5.32700
C          1.06650       -3.52210        6.05760
C          1.86250       -4.58150        5.55000
C          3.10410       -4.87390        6.13730
C          3.95030       -5.95220        5.65230
S          4.41750       -6.06940        3.97760
C          5.38560       -7.47670        4.25760
C          6.15110       -8.11360        3.15170
C          7.36300       -7.26680        2.75850
C          5.34290       -7.82050        5.57450
C          4.53050       -6.96270        6.36630
Cl         4.25670       -7.24420        8.03370
Cl         6.17420       -9.16450        6.24280
C          3.51680       -4.04640        7.17590
S          5.07020       -4.10660        7.95740
C          1.27700       -5.19070        4.41160
C          0.09370       -4.62240        4.04330
S         -0.41050       -3.37470        5.15610
C         -0.63280       -4.79930        2.82590
C         -0.19010       -5.38680        1.67520
C         -1.06880       -5.21170        0.57770
C         -0.85510       -5.55450       -0.77290
C          0.42550       -6.08180       -1.20970
S          1.89570       -5.25990       -0.76680
C          2.87480       -6.37180       -1.66160
C          4.35980       -6.26750       -1.63770
C          4.92070       -6.81990       -0.32500
C          2.09510       -7.31350       -2.26380
Cl         2.70930       -8.59240       -3.22910
C          0.70440       -7.14450       -2.02180
Cl        -0.47650       -8.22740       -2.62910
C         -1.85460       -5.22130       -1.67900
C         -3.01550       -4.51100       -1.28630
C         -3.20000       -4.10620        0.04340
C         -4.24180       -3.15690        0.41100
S         -4.26170       -1.57400       -0.31620
C         -5.55850       -1.04040        0.69640
C         -6.08200        0.35170        0.60960
C         -7.41960        0.42820       -0.12620
C         -5.95730       -2.04760        1.52440
C         -5.20410       -3.24410        1.37470
Cl        -5.51100       -4.66000        2.28990
Cl        -7.22900       -1.89540        2.66570
C         -2.23290       -4.49720        0.95520
S         -2.19380       -4.03880        2.62870
C         -3.80120       -4.12350       -2.39070
C         -3.25210       -4.44980       -3.59940
S         -1.78020       -5.37450       -3.41850
C         -3.71200       -3.80080       -4.79270
C         -4.95910       -3.25350       -4.89380
C         -5.00860       -2.10250       -5.71430
C         -5.96720       -1.07370       -5.63640
C         -7.19370       -1.19840       -4.86890
S         -7.23490       -1.84800       -3.25490
C         -8.93700       -1.58690       -3.09800
C         -9.68190       -1.96160       -1.86260
C         -8.92410       -2.96410       -1.00140
C         -9.42920       -1.01550       -4.23410
Cl       -11.08340       -0.61560       -4.45280
C         -8.44630       -0.78390       -5.23260
Cl        -8.82940       -0.12110       -6.76490
C         -5.59080        0.15590       -6.16110
C         -4.41270        0.33670       -6.92580
C         -3.48630       -0.71330       -7.06050
C         -2.18010       -0.47480       -7.66530
S         -1.64160       -1.39570       -9.03500
C         -0.15620       -0.51570       -9.14230
C          0.87710       -0.85670      -10.15860
C          1.85640       -1.89660       -9.60830
C         -0.08880        0.42120       -8.15480
C         -1.23060        0.44350       -7.30970
Cl        -1.33450        1.48780       -5.94200
Cl         1.22730        1.50500       -7.95140
C         -3.77850       -1.88880       -6.38570
S         -2.59930       -3.10560       -5.95940
C         -4.11610        1.70720       -7.12380
C         -4.87360        2.53240       -6.33810
S         -6.24700        1.69050       -5.64600
C         -4.27930        3.67550       -5.70200
C         -3.20560        4.38990       -6.14350
C         -2.37730        4.87210       -5.09660
C         -1.07120        5.37660       -5.22160
C         -0.52500        5.68900       -6.52940
S          0.97590        4.99920       -7.06860
C          0.85230        5.74920       -8.62150
C          1.92470        5.58480       -9.64100
C          3.07170        6.56630       -9.38990
C         -0.28330        6.50020       -8.69780
Cl        -0.74000        7.40820      -10.08130
C         -1.07310        6.45880       -7.51840
Cl        -2.53290        7.34560       -7.34570
C         -0.30860        5.44530       -4.06190
C         -0.79470        5.05430       -2.79200
C         -2.11330        4.58470       -2.66150
C         -2.60090        4.03520       -1.40720
S         -1.72190        2.76770       -0.59630
C         -2.92850        2.61390        0.63680
C         -2.76890        1.62620        1.73890
C         -1.51020        1.90430        2.55750
C         -3.93700        3.50540        0.42320
C         -3.76340        4.30110       -0.74240
Cl        -4.88230        5.51030       -1.21440
Cl        -5.30280        3.68300        1.44840
C         -2.87760        4.51860       -3.81900
S         -4.42470        3.73090       -3.94640
C          0.19870        5.16100       -1.78520
C          1.40020        5.59890       -2.25070
S          1.35550        5.93610       -3.97050
C          2.63930        5.77800       -1.53820
C          2.81420        5.60740       -0.18990
S          4.48910        5.89820        0.27450
C          4.91120        6.26660       -1.37290
O          6.15110        6.60830       -1.74660
C          7.12790        6.69110       -0.73410
C          3.84210        6.15820       -2.20120
N          1.88310        5.25160        0.79170
C          1.95530        3.96630        1.31040
C          1.85680        2.79480        0.63740
C          2.01090        1.65850        1.48050
C          1.97670        0.30950        1.11880
C          1.64790       -0.17670       -0.21470
S          2.67970        0.05380       -1.59030
C          1.71320       -0.98160       -2.58580
C          2.09570       -1.30120       -3.98970
C          1.20860       -0.58080       -5.00340
C          0.63270       -1.43160       -1.88840
Cl        -0.57720       -2.44930       -2.54700
C          0.60350       -0.99430       -0.53940
Cl        -0.62640       -1.45790        0.55960
C          2.29720       -0.61810        2.10180
C          2.57290       -0.27220        3.44240
C          2.44980        1.07280        3.84710
C          2.54080        1.45460        5.24760
S          3.78190        0.83440        6.30090
C          3.13680        1.63910        7.68780
C          3.79790        1.55800        9.01990
C          4.63120        2.81180        9.29630
C          2.03000        2.35250        7.34000
C          1.69160        2.25740        5.96450
Cl         0.29160        3.01610        5.34390
Cl         1.09960        3.26810        8.45130
C          2.21580        2.00580        2.84020
S          2.22350        3.73670        3.03110
C          2.97340       -1.41910        4.19040
C          3.02090       -2.54220        3.44540
S          2.51450       -2.32090        1.81090
H          5.39860       -2.35000        9.60290
H          3.02860       -1.37710        9.16270
H         -1.84040       -0.24770       10.98350
H         -1.92660        1.27880       10.08890
H         -0.62010        1.52660       12.20160
H          0.40430        1.81750       10.79370
H          0.50500        0.27720       11.65780
H          6.48080       -9.09930        3.48360
H          5.50150       -8.23600        2.28280
H          7.04260       -6.28310        2.42330
H          7.91000       -7.75080        1.95410
H          8.02990       -7.14470        3.60830
H          1.73480       -5.99440        3.86640
H          0.75170       -5.89830        1.60920
H          4.65250       -5.22110       -1.74280
H          4.76450       -6.83250       -2.47880
H          6.00460       -6.74500       -0.32130
H          4.64220       -7.86510       -0.21220
H          4.52690       -6.25690        0.51880
H         -6.21190        0.73910        1.62280
H         -5.34910        0.97120        0.09180
H         -7.75640        1.46060       -0.16370
H         -7.31180        0.06100       -1.14350
H         -8.16810       -0.16490        0.39170
H         -4.69510       -3.53600       -2.29300
H         -5.78720       -3.60550       -4.30980
H         -9.88090       -1.05470       -1.28260
H        -10.65050       -2.37270       -2.15930
H         -8.74560       -3.88380       -1.55340
H         -9.49790       -3.20160       -0.10980
H         -7.96360       -2.55630       -0.69400
H          1.42180        0.05110      -10.42500
H          0.39100       -1.25060      -11.05210
H          2.36880       -1.50470       -8.73340
H          1.32570       -2.80210       -9.32460
H          2.59730       -2.14700      -10.36250
H         -3.26460        2.05400       -7.67690
H         -2.94900        4.47740       -7.18310
H          1.49890        5.76280      -10.63010
H          2.30610        4.56280       -9.60140
H          3.84720        6.43460      -10.13960
H          3.50270        6.39730       -8.40600
H          2.70890        7.58990       -9.43960
H         -3.65050        1.67490        2.37980
H         -2.70370        0.61930        1.31740
H         -1.54810        2.90330        2.98550
H         -0.62700        1.82680        1.92750
H         -1.42340        1.18240        3.36430
H          0.02940        4.91830       -0.75340
H          7.25290        5.72770       -0.22880
H          6.86110        7.44960        0.00900
H          8.05470        6.97080       -1.23000
H          3.90060        6.34430       -3.25710
H          1.78300        5.95270        1.51950
H          1.68410        2.73000       -0.42080
H          3.13810       -1.02060       -4.14700
H          1.99880       -2.38040       -4.13610
H          1.50730       -0.85030       -6.01280
H          0.16900       -0.86450       -4.86420
H          1.29720        0.49640       -4.88790
H          4.44200        0.67800        9.04780
H          3.02980        1.45890        9.79120
H          5.10210        2.73850       10.27280
H          5.40590        2.92420        8.54180
H          3.99920        3.69570        9.27990
H          3.23960       -1.39910        5.23020
H          3.33660       -3.52020        3.74630
