
  xtb     03012221113D
 energy: -446.981744963211 gnorm: 0.000666124259 xtb: 6.4.1 (unknown)
225250  0     0  0            999 V2000
    2.8921   -3.2170   10.8354 C   0  0  0  0  0  0  0  0  0  0  0  0
    1.9977   -2.3880   10.2603 C   0  0  0  0  0  0  0  0  0  0  0  0
    1.1417   -3.0540    9.3352 C   0  0  0  0  0  0  0  0  0  0  0  0
    0.1420   -2.5003    8.5207 C   0  0  0  0  0  0  0  0  0  0  0  0
   -0.2285   -1.0984    8.6254 C   0  0  0  0  0  0  0  0  0  0  0  0
   -0.2603   -0.0576    7.2340 S   0  0  0  0  0  0  0  0  0  0  0  0
   -0.7726    1.3046    8.1692 C   0  0  0  0  0  0  0  0  0  0  0  0
   -0.9544    2.6445    7.5462 C   0  0  0  0  0  0  0  0  0  0  0  0
    0.3643    3.4214    7.5235 C   0  0  0  0  0  0  0  0  0  0  0  0
   -0.9037    0.9581    9.4811 C   0  0  0  0  0  0  0  0  0  0  0  0
   -1.3988    2.0456   10.7132 Cl  0  0  0  0  0  0  0  0  0  0  0  0
   -0.6002   -0.4043    9.7435 C   0  0  0  0  0  0  0  0  0  0  0  0
   -0.7680   -1.1065   11.3010 Cl  0  0  0  0  0  0  0  0  0  0  0  0
   -0.4759   -3.3507    7.6128 C   0  0  0  0  0  0  0  0  0  0  0  0
   -0.1699   -4.7298    7.5167 C   0  0  0  0  0  0  0  0  0  0  0  0
    0.8114   -5.2905    8.3512 C   0  0  0  0  0  0  0  0  0  0  0  0
    1.1805   -6.6931    8.2525 C   0  0  0  0  0  0  0  0  0  0  0  0
    1.6769   -7.3774    6.7316 S   0  0  0  0  0  0  0  0  0  0  0  0
    1.9917   -8.9245    7.4397 C   0  0  0  0  0  0  0  0  0  0  0  0
    2.4460  -10.0734    6.6085 C   0  0  0  0  0  0  0  0  0  0  0  0
    1.2546  -10.7899    5.9688 C   0  0  0  0  0  0  0  0  0  0  0  0
    1.7071   -8.9011    8.7721 C   0  0  0  0  0  0  0  0  0  0  0  0
    1.2556   -7.6365    9.2387 C   0  0  0  0  0  0  0  0  0  0  0  0
    0.7820   -7.3720   10.8641 Cl  0  0  0  0  0  0  0  0  0  0  0  0
    1.8793  -10.2564    9.8101 Cl  0  0  0  0  0  0  0  0  0  0  0  0
    1.4492   -4.4326    9.2402 C   0  0  0  0  0  0  0  0  0  0  0  0
    2.7624   -4.8560   10.3011 S   0  0  0  0  0  0  0  0  0  0  0  0
   -0.9710   -5.3817    6.5461 C   0  0  0  0  0  0  0  0  0  0  0  0
   -1.8395   -4.5455    5.9084 C   0  0  0  0  0  0  0  0  0  0  0  0
   -1.7231   -2.8983    6.4881 S   0  0  0  0  0  0  0  0  0  0  0  0
   -2.7566   -4.8795    4.8639 C   0  0  0  0  0  0  0  0  0  0  0  0
   -3.1578   -6.1257    4.4782 C   0  0  0  0  0  0  0  0  0  0  0  0
   -4.0456   -6.1177    3.3749 C   0  0  0  0  0  0  0  0  0  0  0  0
   -4.6409   -7.2159    2.7262 C   0  0  0  0  0  0  0  0  0  0  0  0
   -4.3633   -8.5837    3.1270 C   0  0  0  0  0  0  0  0  0  0  0  0
   -2.7356   -9.1673    3.3240 S   0  0  0  0  0  0  0  0  0  0  0  0
   -3.2676  -10.7631    3.7261 C   0  0  0  0  0  0  0  0  0  0  0  0
   -2.3067  -11.8388    4.0972 C   0  0  0  0  0  0  0  0  0  0  0  0
   -2.2542  -12.0195    5.6161 C   0  0  0  0  0  0  0  0  0  0  0  0
   -4.6291  -10.8235    3.7122 C   0  0  0  0  0  0  0  0  0  0  0  0
   -5.5234  -12.2456    4.0622 Cl  0  0  0  0  0  0  0  0  0  0  0  0
   -5.2531   -9.5944    3.3723 C   0  0  0  0  0  0  0  0  0  0  0  0
   -6.9565   -9.4069    3.3820 Cl  0  0  0  0  0  0  0  0  0  0  0  0
   -5.4918   -6.9329    1.6641 C   0  0  0  0  0  0  0  0  0  0  0  0
   -5.7926   -5.6135    1.2498 C   0  0  0  0  0  0  0  0  0  0  0  0
   -5.1579   -4.5206    1.8618 C   0  0  0  0  0  0  0  0  0  0  0  0
   -5.2864   -3.1812    1.3121 C   0  0  0  0  0  0  0  0  0  0  0  0
   -6.8296   -2.4250    1.0528 S   0  0  0  0  0  0  0  0  0  0  0  0
   -6.1142   -1.0008    0.3733 C   0  0  0  0  0  0  0  0  0  0  0  0
   -6.9581    0.1383   -0.0799 C   0  0  0  0  0  0  0  0  0  0  0  0
   -7.9654    0.5662    0.9844 C   0  0  0  0  0  0  0  0  0  0  0  0
   -4.7585   -1.1279    0.3489 C   0  0  0  0  0  0  0  0  0  0  0  0
   -4.2852   -2.3590    0.8770 C   0  0  0  0  0  0  0  0  0  0  0  0
   -2.6180   -2.7497    0.8766 Cl  0  0  0  0  0  0  0  0  0  0  0  0
   -3.6710    0.0552   -0.2479 Cl  0  0  0  0  0  0  0  0  0  0  0  0
   -4.3106   -4.8001    2.9255 C   0  0  0  0  0  0  0  0  0  0  0  0
   -3.4698   -3.6197    3.8844 S   0  0  0  0  0  0  0  0  0  0  0  0
   -6.6305   -5.5888    0.1081 C   0  0  0  0  0  0  0  0  0  0  0  0
   -6.9135   -6.8217   -0.3928 C   0  0  0  0  0  0  0  0  0  0  0  0
   -6.2055   -8.0942    0.5863 S   0  0  0  0  0  0  0  0  0  0  0  0
   -7.6776   -7.1719   -1.5585 C   0  0  0  0  0  0  0  0  0  0  0  0
   -8.2622   -6.2959   -2.4419 C   0  0  0  0  0  0  0  0  0  0  0  0
   -9.1791   -7.1467   -3.6794 S   0  0  0  0  0  0  0  0  0  0  0  0
   -8.7524   -8.6771   -2.9746 C   0  0  0  0  0  0  0  0  0  0  0  0
   -9.2578   -9.7709   -3.5744 O   0  0  0  0  0  0  0  0  0  0  0  0
   -8.9394  -11.0120   -2.9805 C   0  0  0  0  0  0  0  0  0  0  0  0
   -7.9564   -8.5351   -1.8895 C   0  0  0  0  0  0  0  0  0  0  0  0
   -8.2666   -4.9114   -2.4720 N   0  0  0  0  0  0  0  0  0  0  0  0
   -7.1736   -4.1053   -2.6705 C   0  0  0  0  0  0  0  0  0  0  0  0
   -5.8485   -4.4006   -2.7207 C   0  0  0  0  0  0  0  0  0  0  0  0
   -5.0289   -3.2516   -2.9060 C   0  0  0  0  0  0  0  0  0  0  0  0
   -3.6316   -3.1905   -3.0305 C   0  0  0  0  0  0  0  0  0  0  0  0
   -2.7898   -4.3777   -3.0318 C   0  0  0  0  0  0  0  0  0  0  0  0
   -1.7019   -4.6484   -4.3674 S   0  0  0  0  0  0  0  0  0  0  0  0
   -1.1273   -6.1411   -3.7085 C   0  0  0  0  0  0  0  0  0  0  0  0
   -0.0573   -6.9193   -4.3906 C   0  0  0  0  0  0  0  0  0  0  0  0
    1.3101   -6.2650   -4.1808 C   0  0  0  0  0  0  0  0  0  0  0  0
   -1.7445   -6.3986   -2.5225 C   0  0  0  0  0  0  0  0  0  0  0  0
   -1.4395   -7.7832   -1.5534 Cl  0  0  0  0  0  0  0  0  0  0  0  0
   -2.6904   -5.4080   -2.1415 C   0  0  0  0  0  0  0  0  0  0  0  0
   -3.5466   -5.5076   -0.6617 Cl  0  0  0  0  0  0  0  0  0  0  0  0
   -3.0746   -1.9352   -3.2546 C   0  0  0  0  0  0  0  0  0  0  0  0
   -3.8398   -0.7586   -3.4385 C   0  0  0  0  0  0  0  0  0  0  0  0
   -5.2436   -0.8167   -3.3325 C   0  0  0  0  0  0  0  0  0  0  0  0
   -6.0940    0.3304   -3.6159 C   0  0  0  0  0  0  0  0  0  0  0  0
   -7.4547    0.1034   -4.6866 S   0  0  0  0  0  0  0  0  0  0  0  0
   -7.9263    1.7621   -4.5915 C   0  0  0  0  0  0  0  0  0  0  0  0
   -9.1490    2.2604   -5.2783 C   0  0  0  0  0  0  0  0  0  0  0  0
  -10.3890    2.0281   -4.4114 C   0  0  0  0  0  0  0  0  0  0  0  0
   -7.0773    2.4419   -3.7727 C   0  0  0  0  0  0  0  0  0  0  0  0
   -6.0323    1.6436   -3.2307 C   0  0  0  0  0  0  0  0  0  0  0  0
   -4.8928    2.3353   -2.1463 Cl  0  0  0  0  0  0  0  0  0  0  0  0
   -7.2380    4.1124   -3.4120 Cl  0  0  0  0  0  0  0  0  0  0  0  0
   -5.7862   -2.0609   -3.0367 C   0  0  0  0  0  0  0  0  0  0  0  0
   -7.4908   -2.3895   -2.8369 S   0  0  0  0  0  0  0  0  0  0  0  0
   -3.0214    0.3551   -3.7408 C   0  0  0  0  0  0  0  0  0  0  0  0
   -1.6857    0.0764   -3.7070 C   0  0  0  0  0  0  0  0  0  0  0  0
   -1.3712   -1.6095   -3.3709 S   0  0  0  0  0  0  0  0  0  0  0  0
   -0.6102    1.0028   -3.8587 C   0  0  0  0  0  0  0  0  0  0  0  0
   -0.6967    2.3650   -3.8594 C   0  0  0  0  0  0  0  0  0  0  0  0
    0.5591    3.0109   -3.9485 C   0  0  0  0  0  0  0  0  0  0  0  0
    0.8287    4.3899   -3.8981 C   0  0  0  0  0  0  0  0  0  0  0  0
   -0.2379    5.3652   -3.7429 C   0  0  0  0  0  0  0  0  0  0  0  0
   -1.4008    5.2309   -2.4549 S   0  0  0  0  0  0  0  0  0  0  0  0
   -2.2130    6.6846   -2.9270 C   0  0  0  0  0  0  0  0  0  0  0  0
   -3.4296    7.1506   -2.2071 C   0  0  0  0  0  0  0  0  0  0  0  0
   -4.6497    6.3177   -2.6041 C   0  0  0  0  0  0  0  0  0  0  0  0
   -1.6141    7.2235   -4.0256 C   0  0  0  0  0  0  0  0  0  0  0  0
   -2.1421    8.6629   -4.7965 Cl  0  0  0  0  0  0  0  0  0  0  0  0
   -0.4909    6.4842   -4.4866 C   0  0  0  0  0  0  0  0  0  0  0  0
    0.3830    6.9291   -5.8916 Cl  0  0  0  0  0  0  0  0  0  0  0  0
    2.1628    4.7726   -3.9556 C   0  0  0  0  0  0  0  0  0  0  0  0
    3.2256    3.8438   -4.0873 C   0  0  0  0  0  0  0  0  0  0  0  0
    2.9543    2.4657   -4.1529 C   0  0  0  0  0  0  0  0  0  0  0  0
    4.0248    1.4876   -4.2515 C   0  0  0  0  0  0  0  0  0  0  0  0
    5.3471    1.4880   -3.1207 S   0  0  0  0  0  0  0  0  0  0  0  0
    6.0847    0.1062   -3.8581 C   0  0  0  0  0  0  0  0  0  0  0  0
    7.3742   -0.4337   -3.3469 C   0  0  0  0  0  0  0  0  0  0  0  0
    8.5065    0.5784   -3.5231 C   0  0  0  0  0  0  0  0  0  0  0  0
    5.3408   -0.3143   -4.9192 C   0  0  0  0  0  0  0  0  0  0  0  0
    4.1702    0.4611   -5.1423 C   0  0  0  0  0  0  0  0  0  0  0  0
    3.1144    0.1681   -6.4595 Cl  0  0  0  0  0  0  0  0  0  0  0  0
    5.7513   -1.6531   -5.9111 Cl  0  0  0  0  0  0  0  0  0  0  0  0
    1.6227    2.0812   -4.0684 C   0  0  0  0  0  0  0  0  0  0  0  0
    1.0392    0.4441   -4.0096 S   0  0  0  0  0  0  0  0  0  0  0  0
    4.4871    4.4851   -4.1070 C   0  0  0  0  0  0  0  0  0  0  0  0
    4.4117    5.8384   -3.9479 C   0  0  0  0  0  0  0  0  0  0  0  0
    2.7619    6.3974   -3.8005 S   0  0  0  0  0  0  0  0  0  0  0  0
    5.5020    6.7585   -3.8716 C   0  0  0  0  0  0  0  0  0  0  0  0
    6.8154    6.5111   -4.1464 C   0  0  0  0  0  0  0  0  0  0  0  0
    7.6596    7.6244   -3.9128 C   0  0  0  0  0  0  0  0  0  0  0  0
    9.0560    7.6990   -4.0441 C   0  0  0  0  0  0  0  0  0  0  0  0
    9.8503    6.5414   -4.4216 C   0  0  0  0  0  0  0  0  0  0  0  0
   10.9914    6.6277   -5.7311 S   0  0  0  0  0  0  0  0  0  0  0  0
   11.4916    4.9872   -5.5083 C   0  0  0  0  0  0  0  0  0  0  0  0
   12.5756    4.3920   -6.3370 C   0  0  0  0  0  0  0  0  0  0  0  0
   13.9515    4.7649   -5.7799 C   0  0  0  0  0  0  0  0  0  0  0  0
   10.8124    4.4219   -4.4707 C   0  0  0  0  0  0  0  0  0  0  0  0
   11.0611    2.8119   -3.9331 Cl  0  0  0  0  0  0  0  0  0  0  0  0
    9.8739    5.2951   -3.8583 C   0  0  0  0  0  0  0  0  0  0  0  0
    8.9376    4.8268   -2.4960 Cl  0  0  0  0  0  0  0  0  0  0  0  0
    9.6488    8.9275   -3.7761 C   0  0  0  0  0  0  0  0  0  0  0  0
    8.9174   10.0627   -3.3560 C   0  0  0  0  0  0  0  0  0  0  0  0
    7.5239    9.9849   -3.2100 C   0  0  0  0  0  0  0  0  0  0  0  0
    6.7380   11.1254   -2.7646 C   0  0  0  0  0  0  0  0  0  0  0  0
    7.0948   11.9372   -1.2684 S   0  0  0  0  0  0  0  0  0  0  0  0
    5.7801   13.0454   -1.4636 C   0  0  0  0  0  0  0  0  0  0  0  0
    5.4656   14.0637   -0.4240 C   0  0  0  0  0  0  0  0  0  0  0  0
    4.5359   13.4842    0.6450 C   0  0  0  0  0  0  0  0  0  0  0  0
    5.1106   12.7844   -2.6213 C   0  0  0  0  0  0  0  0  0  0  0  0
    5.6511   11.6990   -3.3629 C   0  0  0  0  0  0  0  0  0  0  0  0
    5.0318   11.2320   -4.8910 Cl  0  0  0  0  0  0  0  0  0  0  0  0
    3.7483   13.6778   -3.1593 Cl  0  0  0  0  0  0  0  0  0  0  0  0
    6.9268    8.7628   -3.4925 C   0  0  0  0  0  0  0  0  0  0  0  0
    5.2331    8.4028   -3.3415 S   0  0  0  0  0  0  0  0  0  0  0  0
    9.7685   11.1865   -3.1420 C   0  0  0  0  0  0  0  0  0  0  0  0
   11.0683   10.9085   -3.3673 C   0  0  0  0  0  0  0  0  0  0  0  0
   11.3537    9.2750   -3.8589 S   0  0  0  0  0  0  0  0  0  0  0  0
    3.6448   -2.9733   11.5595 H   0  0  0  0  0  0  0  0  0  0  0  0
    1.9465   -1.3343   10.4622 H   0  0  0  0  0  0  0  0  0  0  0  0
   -1.3216    2.5213    6.5262 H   0  0  0  0  0  0  0  0  0  0  0  0
   -1.6959    3.2015    8.1221 H   0  0  0  0  0  0  0  0  0  0  0  0
    0.7358    3.5628    8.5352 H   0  0  0  0  0  0  0  0  0  0  0  0
    1.1118    2.8784    6.9501 H   0  0  0  0  0  0  0  0  0  0  0  0
    0.2149    4.3965    7.0677 H   0  0  0  0  0  0  0  0  0  0  0  0
    3.1154   -9.7114    5.8264 H   0  0  0  0  0  0  0  0  0  0  0  0
    2.9936  -10.7708    7.2447 H   0  0  0  0  0  0  0  0  0  0  0  0
    0.5912  -11.1716    6.7403 H   0  0  0  0  0  0  0  0  0  0  0  0
    0.6983  -10.1036    5.3344 H   0  0  0  0  0  0  0  0  0  0  0  0
    1.6011  -11.6230    5.3633 H   0  0  0  0  0  0  0  0  0  0  0  0
   -0.8935   -6.4288    6.3204 H   0  0  0  0  0  0  0  0  0  0  0  0
   -2.8401   -7.0215    4.9778 H   0  0  0  0  0  0  0  0  0  0  0  0
   -1.3153  -11.5830    3.7213 H   0  0  0  0  0  0  0  0  0  0  0  0
   -2.6262  -12.7751    3.6342 H   0  0  0  0  0  0  0  0  0  0  0  0
   -1.9541  -11.0918    6.0971 H   0  0  0  0  0  0  0  0  0  0  0  0
   -3.2316  -12.3056    5.9948 H   0  0  0  0  0  0  0  0  0  0  0  0
   -1.5395  -12.7959    5.8744 H   0  0  0  0  0  0  0  0  0  0  0  0
   -6.2992    0.9713   -0.3250 H   0  0  0  0  0  0  0  0  0  0  0  0
   -7.4967   -0.1495   -0.9887 H   0  0  0  0  0  0  0  0  0  0  0  0
   -8.5525    1.4066    0.6238 H   0  0  0  0  0  0  0  0  0  0  0  0
   -7.4513    0.8655    1.8944 H   0  0  0  0  0  0  0  0  0  0  0  0
   -8.6383   -0.2548    1.2201 H   0  0  0  0  0  0  0  0  0  0  0  0
   -6.9984   -4.6782   -0.3173 H   0  0  0  0  0  0  0  0  0  0  0  0
   -9.4399  -11.7651   -3.5851 H   0  0  0  0  0  0  0  0  0  0  0  0
   -7.8597  -11.1868   -2.9904 H   0  0  0  0  0  0  0  0  0  0  0  0
   -9.3050  -11.0600   -1.9508 H   0  0  0  0  0  0  0  0  0  0  0  0
   -7.5776   -9.3491   -1.2994 H   0  0  0  0  0  0  0  0  0  0  0  0
   -9.1448   -4.4971   -2.7563 H   0  0  0  0  0  0  0  0  0  0  0  0
   -5.4660   -5.4009   -2.6565 H   0  0  0  0  0  0  0  0  0  0  0  0
   -0.0497   -7.9322   -3.9843 H   0  0  0  0  0  0  0  0  0  0  0  0
   -0.2718   -6.9723   -5.4598 H   0  0  0  0  0  0  0  0  0  0  0  0
    2.0814   -6.8411   -4.6848 H   0  0  0  0  0  0  0  0  0  0  0  0
    1.5465   -6.2170   -3.1208 H   0  0  0  0  0  0  0  0  0  0  0  0
    1.3089   -5.2543   -4.5819 H   0  0  0  0  0  0  0  0  0  0  0  0
   -9.0331    3.3279   -5.4735 H   0  0  0  0  0  0  0  0  0  0  0  0
   -9.2681    1.7400   -6.2298 H   0  0  0  0  0  0  0  0  0  0  0  0
  -11.2758    2.3913   -4.9233 H   0  0  0  0  0  0  0  0  0  0  0  0
  -10.5116    0.9672   -4.2071 H   0  0  0  0  0  0  0  0  0  0  0  0
  -10.2914    2.5556   -3.4659 H   0  0  0  0  0  0  0  0  0  0  0  0
   -3.4029    1.3260   -3.9886 H   0  0  0  0  0  0  0  0  0  0  0  0
   -1.6283    2.8914   -3.7737 H   0  0  0  0  0  0  0  0  0  0  0  0
   -3.2704    7.0661   -1.1303 H   0  0  0  0  0  0  0  0  0  0  0  0
   -3.6009    8.1994   -2.4546 H   0  0  0  0  0  0  0  0  0  0  0  0
   -5.5322    6.6697   -2.0763 H   0  0  0  0  0  0  0  0  0  0  0  0
   -4.8297    6.3959   -3.6735 H   0  0  0  0  0  0  0  0  0  0  0  0
   -4.4884    5.2722   -2.3537 H   0  0  0  0  0  0  0  0  0  0  0  0
    7.6047   -1.3510   -3.8907 H   0  0  0  0  0  0  0  0  0  0  0  0
    7.2715   -0.6761   -2.2866 H   0  0  0  0  0  0  0  0  0  0  0  0
    9.4397    0.1653   -3.1491 H   0  0  0  0  0  0  0  0  0  0  0  0
    8.6336    0.8259   -4.5740 H   0  0  0  0  0  0  0  0  0  0  0  0
    8.2854    1.4910   -2.9749 H   0  0  0  0  0  0  0  0  0  0  0  0
    5.4175    3.9603   -4.2138 H   0  0  0  0  0  0  0  0  0  0  0  0
    7.1693    5.5692   -4.5205 H   0  0  0  0  0  0  0  0  0  0  0  0
   12.4617    3.3065   -6.3375 H   0  0  0  0  0  0  0  0  0  0  0  0
   12.4893    4.7547   -7.3626 H   0  0  0  0  0  0  0  0  0  0  0  0
   14.7339    4.3271   -6.3936 H   0  0  0  0  0  0  0  0  0  0  0  0
   14.0743    5.8453   -5.7729 H   0  0  0  0  0  0  0  0  0  0  0  0
   14.0584    4.3964   -4.7629 H   0  0  0  0  0  0  0  0  0  0  0  0
    6.3915   14.4023    0.0438 H   0  0  0  0  0  0  0  0  0  0  0  0
    4.9820   14.9165   -0.9044 H   0  0  0  0  0  0  0  0  0  0  0  0
    5.0067   12.6351    1.1348 H   0  0  0  0  0  0  0  0  0  0  0  0
    4.3116   14.2393    1.3935 H   0  0  0  0  0  0  0  0  0  0  0  0
    3.6045   13.1524    0.1936 H   0  0  0  0  0  0  0  0  0  0  0  0
    9.4092   12.1518   -2.8366 H   0  0  0  0  0  0  0  0  0  0  0  0
   11.9079   11.5700   -3.2806 H   0  0  0  0  0  0  0  0  0  0  0  0
  1  2  2  0  0  0  0
  2  3  1  0  0  0  0
  3  4  2  0  0  0  0
  4  5  1  0  0  0  0
  5  6  1  0  0  0  0
  6  7  1  0  0  0  0
  7  8  1  0  0  0  0
  8  9  1  0  0  0  0
  7 10  2  0  0  0  0
 10 11  1  0  0  0  0
 10 12  1  0  0  0  0
 12 13  1  0  0  0  0
  4 14  1  0  0  0  0
 14 15  2  0  0  0  0
 15 16  1  0  0  0  0
 16 17  1  0  0  0  0
 17 18  1  0  0  0  0
 18 19  1  0  0  0  0
 19 20  1  0  0  0  0
 20 21  1  0  0  0  0
 19 22  2  0  0  0  0
 22 23  1  0  0  0  0
 23 24  1  0  0  0  0
 22 25  1  0  0  0  0
 16 26  2  0  0  0  0
 26 27  1  0  0  0  0
 15 28  1  0  0  0  0
 28 29  2  0  0  0  0
 29 30  1  0  0  0  0
 29 31  1  0  0  0  0
 31 32  2  0  0  0  0
 32 33  1  0  0  0  0
 33 34  2  0  0  0  0
 34 35  1  0  0  0  0
 35 36  1  0  0  0  0
 36 37  1  0  0  0  0
 37 38  1  0  0  0  0
 38 39  1  0  0  0  0
 37 40  2  0  0  0  0
 40 41  1  0  0  0  0
 40 42  1  0  0  0  0
 42 43  1  0  0  0  0
 34 44  1  0  0  0  0
 44 45  2  0  0  0  0
 45 46  1  0  0  0  0
 46 47  1  0  0  0  0
 47 48  1  0  0  0  0
 48 49  1  0  0  0  0
 49 50  1  0  0  0  0
 50 51  1  0  0  0  0
 49 52  2  0  0  0  0
 52 53  1  0  0  0  0
 53 54  1  0  0  0  0
 52 55  1  0  0  0  0
 46 56  2  0  0  0  0
 56 57  1  0  0  0  0
 45 58  1  0  0  0  0
 58 59  2  0  0  0  0
 59 60  1  0  0  0  0
 59 61  1  0  0  0  0
 61 62  2  0  0  0  0
 62 63  1  0  0  0  0
 63 64  1  0  0  0  0
 64 65  1  0  0  0  0
 65 66  1  0  0  0  0
 64 67  2  0  0  0  0
 62 68  1  0  0  0  0
 68 69  1  0  0  0  0
 69 70  2  0  0  0  0
 70 71  1  0  0  0  0
 71 72  2  0  0  0  0
 72 73  1  0  0  0  0
 73 74  1  0  0  0  0
 74 75  1  0  0  0  0
 75 76  1  0  0  0  0
 76 77  1  0  0  0  0
 75 78  2  0  0  0  0
 78 79  1  0  0  0  0
 78 80  1  0  0  0  0
 80 81  1  0  0  0  0
 72 82  1  0  0  0  0
 82 83  2  0  0  0  0
 83 84  1  0  0  0  0
 84 85  1  0  0  0  0
 85 86  1  0  0  0  0
 86 87  1  0  0  0  0
 87 88  1  0  0  0  0
 88 89  1  0  0  0  0
 87 90  2  0  0  0  0
 90 91  1  0  0  0  0
 91 92  1  0  0  0  0
 90 93  1  0  0  0  0
 84 94  2  0  0  0  0
 94 95  1  0  0  0  0
 83 96  1  0  0  0  0
 96 97  2  0  0  0  0
 97 98  1  0  0  0  0
 97 99  1  0  0  0  0
 99100  2  0  0  0  0
100101  1  0  0  0  0
101102  2  0  0  0  0
102103  1  0  0  0  0
103104  1  0  0  0  0
104105  1  0  0  0  0
105106  1  0  0  0  0
106107  1  0  0  0  0
105108  2  0  0  0  0
108109  1  0  0  0  0
108110  1  0  0  0  0
110111  1  0  0  0  0
102112  1  0  0  0  0
112113  2  0  0  0  0
113114  1  0  0  0  0
114115  1  0  0  0  0
115116  1  0  0  0  0
116117  1  0  0  0  0
117118  1  0  0  0  0
118119  1  0  0  0  0
117120  2  0  0  0  0
120121  1  0  0  0  0
121122  1  0  0  0  0
120123  1  0  0  0  0
114124  2  0  0  0  0
124125  1  0  0  0  0
113126  1  0  0  0  0
126127  2  0  0  0  0
127128  1  0  0  0  0
127129  1  0  0  0  0
129130  2  0  0  0  0
130131  1  0  0  0  0
131132  2  0  0  0  0
132133  1  0  0  0  0
133134  1  0  0  0  0
134135  1  0  0  0  0
135136  1  0  0  0  0
136137  1  0  0  0  0
135138  2  0  0  0  0
138139  1  0  0  0  0
138140  1  0  0  0  0
140141  1  0  0  0  0
132142  1  0  0  0  0
142143  2  0  0  0  0
143144  1  0  0  0  0
144145  1  0  0  0  0
145146  1  0  0  0  0
146147  1  0  0  0  0
147148  1  0  0  0  0
148149  1  0  0  0  0
147150  2  0  0  0  0
150151  1  0  0  0  0
151152  1  0  0  0  0
150153  1  0  0  0  0
144154  2  0  0  0  0
154155  1  0  0  0  0
143156  1  0  0  0  0
156157  2  0  0  0  0
157158  1  0  0  0  0
 27  1  1  0  0  0  0
 57 31  1  0  0  0  0
 67 61  1  0  0  0  0
 95 69  1  0  0  0  0
125 99  1  0  0  0  0
155129  1  0  0  0  0
 26  3  1  0  0  0  0
 56 33  1  0  0  0  0
 94 71  1  0  0  0  0
124101  1  0  0  0  0
154131  1  0  0  0  0
 12  5  2  0  0  0  0
 30 14  1  0  0  0  0
 42 35  2  0  0  0  0
 60 44  1  0  0  0  0
 80 73  2  0  0  0  0
 98 82  1  0  0  0  0
110103  2  0  0  0  0
128112  1  0  0  0  0
140133  2  0  0  0  0
158142  1  0  0  0  0
 23 17  2  0  0  0  0
 53 47  2  0  0  0  0
 91 85  2  0  0  0  0
121115  2  0  0  0  0
151145  2  0  0  0  0
  1159  1  0  0  0  0
  2160  1  0  0  0  0
  8161  1  0  0  0  0
  8162  1  0  0  0  0
  9163  1  0  0  0  0
  9164  1  0  0  0  0
  9165  1  0  0  0  0
 20166  1  0  0  0  0
 20167  1  0  0  0  0
 21168  1  0  0  0  0
 21169  1  0  0  0  0
 21170  1  0  0  0  0
 28171  1  0  0  0  0
 32172  1  0  0  0  0
 38173  1  0  0  0  0
 38174  1  0  0  0  0
 39175  1  0  0  0  0
 39176  1  0  0  0  0
 39177  1  0  0  0  0
 50178  1  0  0  0  0
 50179  1  0  0  0  0
 51180  1  0  0  0  0
 51181  1  0  0  0  0
 51182  1  0  0  0  0
 58183  1  0  0  0  0
 66184  1  0  0  0  0
 66185  1  0  0  0  0
 66186  1  0  0  0  0
 67187  1  0  0  0  0
 68188  1  0  0  0  0
 70189  1  0  0  0  0
 76190  1  0  0  0  0
 76191  1  0  0  0  0
 77192  1  0  0  0  0
 77193  1  0  0  0  0
 77194  1  0  0  0  0
 88195  1  0  0  0  0
 88196  1  0  0  0  0
 89197  1  0  0  0  0
 89198  1  0  0  0  0
 89199  1  0  0  0  0
 96200  1  0  0  0  0
100201  1  0  0  0  0
106202  1  0  0  0  0
106203  1  0  0  0  0
107204  1  0  0  0  0
107205  1  0  0  0  0
107206  1  0  0  0  0
118207  1  0  0  0  0
118208  1  0  0  0  0
119209  1  0  0  0  0
119210  1  0  0  0  0
119211  1  0  0  0  0
126212  1  0  0  0  0
130213  1  0  0  0  0
136214  1  0  0  0  0
136215  1  0  0  0  0
137216  1  0  0  0  0
137217  1  0  0  0  0
137218  1  0  0  0  0
148219  1  0  0  0  0
148220  1  0  0  0  0
149221  1  0  0  0  0
149222  1  0  0  0  0
149223  1  0  0  0  0
156224  1  0  0  0  0
157225  1  0  0  0  0
M  END
