
  xtb     03082201453D
 energy: -397.354196901637 gnorm: 0.000634796681 xtb: 6.4.1 (unknown)
228249  0     0  0            999 V2000
    6.0362   -5.3393    5.5780 C   0  0  0  0  0  0  0  0  0  0  0  0
    5.6251   -4.0671    5.4074 C   0  0  0  0  0  0  0  0  0  0  0  0
    4.3793   -3.9721    4.7155 C   0  0  0  0  0  0  0  0  0  0  0  0
    3.6548   -2.8182    4.3791 C   0  0  0  0  0  0  0  0  0  0  0  0
    4.1807   -1.4730    4.6372 C   0  0  0  0  0  0  0  0  0  0  0  0
    5.4832   -1.1313    4.2693 C   0  0  0  0  0  0  0  0  0  0  0  0
    5.9515    0.1524    4.4449 C   0  0  0  0  0  0  0  0  0  0  0  0
    5.1555    1.1480    5.0122 C   0  0  0  0  0  0  0  0  0  0  0  0
    5.9095    2.7312    5.2218 S   0  0  0  0  0  0  0  0  0  0  0  0
    4.5509    3.9430    5.0440 C   0  0  0  0  0  0  0  0  0  0  0  0
    3.8717    3.8326    3.6949 C   0  0  0  0  0  0  0  0  0  0  0  0
    3.8732    0.7827    5.4103 C   0  0  0  0  0  0  0  0  0  0  0  0
    3.0533    1.6687    6.0184 F   0  0  0  0  0  0  0  0  0  0  0  0
    3.3820   -0.4921    5.2133 C   0  0  0  0  0  0  0  0  0  0  0  0
    2.4354   -3.0136    3.7426 C   0  0  0  0  0  0  0  0  0  0  0  0
    1.9444   -4.2937    3.3863 C   0  0  0  0  0  0  0  0  0  0  0  0
    2.6523   -5.4484    3.7468 C   0  0  0  0  0  0  0  0  0  0  0  0
    2.1386   -6.8059    3.5083 C   0  0  0  0  0  0  0  0  0  0  0  0
    1.7491   -7.2606    2.2527 C   0  0  0  0  0  0  0  0  0  0  0  0
    1.3327   -8.5661    2.0611 C   0  0  0  0  0  0  0  0  0  0  0  0
    1.2619   -9.4574    3.1247 C   0  0  0  0  0  0  0  0  0  0  0  0
    0.7861  -11.1487    3.0355 S   0  0  0  0  0  0  0  0  0  0  0  0
    0.6870  -11.5198    1.2495 C   0  0  0  0  0  0  0  0  0  0  0  0
   -0.6944  -11.2651    0.6785 C   0  0  0  0  0  0  0  0  0  0  0  0
    1.6086   -8.9722    4.3881 C   0  0  0  0  0  0  0  0  0  0  0  0
    2.0503   -7.6859    4.5876 C   0  0  0  0  0  0  0  0  0  0  0  0
    1.5154   -9.7943    5.4535 F   0  0  0  0  0  0  0  0  0  0  0  0
    3.8588   -5.2516    4.4084 C   0  0  0  0  0  0  0  0  0  0  0  0
    4.9456   -6.5164    4.9292 S   0  0  0  0  0  0  0  0  0  0  0  0
    0.6999   -4.2137    2.7047 C   0  0  0  0  0  0  0  0  0  0  0  0
    0.2374   -2.9485    2.5582 C   0  0  0  0  0  0  0  0  0  0  0  0
    1.3269   -1.7600    3.2482 S   0  0  0  0  0  0  0  0  0  0  0  0
   -0.9961   -2.4868    1.9618 C   0  0  0  0  0  0  0  0  0  0  0  0
   -1.5286   -2.9579    0.7939 C   0  0  0  0  0  0  0  0  0  0  0  0
   -3.0112   -2.0787    0.3827 S   0  0  0  0  0  0  0  0  0  0  0  0
   -2.8573   -1.1039    1.8106 C   0  0  0  0  0  0  0  0  0  0  0  0
   -3.8250   -0.1930    2.0271 O   0  0  0  0  0  0  0  0  0  0  0  0
   -3.7719    0.4878    3.2630 C   0  0  0  0  0  0  0  0  0  0  0  0
   -1.7623   -1.4304    2.5392 C   0  0  0  0  0  0  0  0  0  0  0  0
   -1.0031   -3.8779   -0.0874 N   0  0  0  0  0  0  0  0  0  0  0  0
   -1.1314   -5.2509   -0.0034 C   0  0  0  0  0  0  0  0  0  0  0  0
   -0.6889   -6.0852   -0.9951 C   0  0  0  0  0  0  0  0  0  0  0  0
   -0.8911   -7.7685   -0.5566 S   0  0  0  0  0  0  0  0  0  0  0  0
   -1.5626   -7.3001    0.9747 C   0  0  0  0  0  0  0  0  0  0  0  0
   -1.8756   -8.3027    1.8221 O   0  0  0  0  0  0  0  0  0  0  0  0
   -2.1401   -7.9409    3.1607 C   0  0  0  0  0  0  0  0  0  0  0  0
   -1.6463   -5.9529    1.1236 C   0  0  0  0  0  0  0  0  0  0  0  0
   -0.1865   -5.7187   -2.2505 N   0  0  0  0  0  0  0  0  0  0  0  0
   -0.8951   -4.7783   -2.9623 C   0  0  0  0  0  0  0  0  0  0  0  0
   -0.4268   -3.6863   -3.6208 C   0  0  0  0  0  0  0  0  0  0  0  0
   -1.4585   -2.8798   -4.1727 C   0  0  0  0  0  0  0  0  0  0  0  0
   -1.3343   -1.5831   -4.7015 C   0  0  0  0  0  0  0  0  0  0  0  0
   -0.0512   -0.8757   -4.5457 C   0  0  0  0  0  0  0  0  0  0  0  0
    1.1614   -1.3659   -5.0220 C   0  0  0  0  0  0  0  0  0  0  0  0
    2.3530   -0.7783   -4.6470 C   0  0  0  0  0  0  0  0  0  0  0  0
    2.3908    0.3160   -3.7843 C   0  0  0  0  0  0  0  0  0  0  0  0
    3.9815    0.8530   -3.2174 S   0  0  0  0  0  0  0  0  0  0  0  0
    3.8566    2.6780   -3.1504 C   0  0  0  0  0  0  0  0  0  0  0  0
    3.4907    3.2746   -4.4931 C   0  0  0  0  0  0  0  0  0  0  0  0
    1.1689    0.8263   -3.3597 C   0  0  0  0  0  0  0  0  0  0  0  0
    1.1055    1.8940   -2.5234 F   0  0  0  0  0  0  0  0  0  0  0  0
   -0.0288    0.2518   -3.7285 C   0  0  0  0  0  0  0  0  0  0  0  0
   -2.5098   -0.9351   -5.0449 C   0  0  0  0  0  0  0  0  0  0  0  0
   -3.7998   -1.4735   -4.8096 C   0  0  0  0  0  0  0  0  0  0  0  0
   -3.9236   -2.7399   -4.2092 C   0  0  0  0  0  0  0  0  0  0  0  0
   -5.2267   -3.2088   -3.7184 C   0  0  0  0  0  0  0  0  0  0  0  0
   -5.3723   -3.5527   -2.3768 C   0  0  0  0  0  0  0  0  0  0  0  0
   -6.6008   -3.9060   -1.8546 C   0  0  0  0  0  0  0  0  0  0  0  0
   -7.7325   -3.9386   -2.6606 C   0  0  0  0  0  0  0  0  0  0  0  0
   -9.3604   -4.3130   -2.1032 S   0  0  0  0  0  0  0  0  0  0  0  0
   -9.1086   -5.0439   -0.4484 C   0  0  0  0  0  0  0  0  0  0  0  0
   -8.4766   -6.4210   -0.5169 C   0  0  0  0  0  0  0  0  0  0  0  0
   -7.5700   -3.6079   -4.0076 C   0  0  0  0  0  0  0  0  0  0  0  0
   -6.3519   -3.2436   -4.5385 C   0  0  0  0  0  0  0  0  0  0  0  0
   -8.6457   -3.6296   -4.8221 F   0  0  0  0  0  0  0  0  0  0  0  0
   -2.7460   -3.4155   -3.9271 C   0  0  0  0  0  0  0  0  0  0  0  0
   -2.6406   -4.9329   -3.0578 S   0  0  0  0  0  0  0  0  0  0  0  0
   -4.8123   -0.4783   -4.9056 C   0  0  0  0  0  0  0  0  0  0  0  0
   -4.3349    0.7703   -5.1799 C   0  0  0  0  0  0  0  0  0  0  0  0
   -2.6088    0.7273   -5.5690 S   0  0  0  0  0  0  0  0  0  0  0  0
   -4.7686    2.0032   -4.5735 C   0  0  0  0  0  0  0  0  0  0  0  0
   -5.3004    1.9647   -3.3113 C   0  0  0  0  0  0  0  0  0  0  0  0
   -4.7199    2.9205   -2.4405 C   0  0  0  0  0  0  0  0  0  0  0  0
   -4.5165    2.6956   -1.0672 C   0  0  0  0  0  0  0  0  0  0  0  0
   -5.2427    1.6139   -0.3766 C   0  0  0  0  0  0  0  0  0  0  0  0
   -5.1106    0.2921   -0.7967 C   0  0  0  0  0  0  0  0  0  0  0  0
   -5.8765   -0.7029   -0.2313 C   0  0  0  0  0  0  0  0  0  0  0  0
   -6.7741   -0.4247    0.7941 C   0  0  0  0  0  0  0  0  0  0  0  0
   -7.7334   -1.7649    1.4283 S   0  0  0  0  0  0  0  0  0  0  0  0
   -9.3703   -0.9806    1.7271 C   0  0  0  0  0  0  0  0  0  0  0  0
  -10.4696   -1.9950    1.4825 C   0  0  0  0  0  0  0  0  0  0  0  0
   -6.8293    0.8815    1.2656 C   0  0  0  0  0  0  0  0  0  0  0  0
   -7.6216    1.2045    2.3148 F   0  0  0  0  0  0  0  0  0  0  0  0
   -6.0934    1.8960    0.6833 C   0  0  0  0  0  0  0  0  0  0  0  0
   -3.4377    3.3499   -0.4975 C   0  0  0  0  0  0  0  0  0  0  0  0
   -2.7089    4.3524   -1.1812 C   0  0  0  0  0  0  0  0  0  0  0  0
   -2.9968    4.6662   -2.5211 C   0  0  0  0  0  0  0  0  0  0  0  0
   -2.1145    5.6149   -3.2300 C   0  0  0  0  0  0  0  0  0  0  0  0
   -2.5315    6.9055   -3.5253 C   0  0  0  0  0  0  0  0  0  0  0  0
   -1.6527    7.8311   -4.0592 C   0  0  0  0  0  0  0  0  0  0  0  0
   -0.3299    7.4894   -4.3078 C   0  0  0  0  0  0  0  0  0  0  0  0
    0.9020    8.5930   -4.9284 S   0  0  0  0  0  0  0  0  0  0  0  0
    0.3221   10.2390   -4.3883 C   0  0  0  0  0  0  0  0  0  0  0  0
    0.3225   10.3845   -2.8789 C   0  0  0  0  0  0  0  0  0  0  0  0
    0.0561    6.1725   -4.0618 C   0  0  0  0  0  0  0  0  0  0  0  0
   -0.8065    5.2417   -3.5288 C   0  0  0  0  0  0  0  0  0  0  0  0
    1.3293    5.8059   -4.3195 F   0  0  0  0  0  0  0  0  0  0  0  0
   -3.9251    3.8614   -3.1473 C   0  0  0  0  0  0  0  0  0  0  0  0
   -3.9289    3.5239   -4.8698 S   0  0  0  0  0  0  0  0  0  0  0  0
   -1.4803    4.6431   -0.5414 C   0  0  0  0  0  0  0  0  0  0  0  0
   -1.1906    3.7938    0.4874 C   0  0  0  0  0  0  0  0  0  0  0  0
   -2.5611    2.7832    0.9081 S   0  0  0  0  0  0  0  0  0  0  0  0
    0.1661    3.5040    0.8518 C   0  0  0  0  0  0  0  0  0  0  0  0
    1.2282    4.3316    0.6439 C   0  0  0  0  0  0  0  0  0  0  0  0
    2.4705    3.6548    0.5758 C   0  0  0  0  0  0  0  0  0  0  0  0
    3.7127    4.2095    0.2438 C   0  0  0  0  0  0  0  0  0  0  0  0
    3.8232    5.6056   -0.2039 C   0  0  0  0  0  0  0  0  0  0  0  0
    3.0735    6.0170   -1.3052 C   0  0  0  0  0  0  0  0  0  0  0  0
    3.1913    7.2960   -1.8062 C   0  0  0  0  0  0  0  0  0  0  0  0
    4.0575    8.2094   -1.2168 C   0  0  0  0  0  0  0  0  0  0  0  0
    4.2393    9.8680   -1.8092 S   0  0  0  0  0  0  0  0  0  0  0  0
    4.3102    9.6085   -3.6202 C   0  0  0  0  0  0  0  0  0  0  0  0
    5.4834    8.7375   -4.0205 C   0  0  0  0  0  0  0  0  0  0  0  0
    4.7824    7.7951   -0.1023 C   0  0  0  0  0  0  0  0  0  0  0  0
    5.6158    8.6584    0.5076 F   0  0  0  0  0  0  0  0  0  0  0  0
    4.6868    6.5116    0.3986 C   0  0  0  0  0  0  0  0  0  0  0  0
    4.7904    3.3389    0.2076 C   0  0  0  0  0  0  0  0  0  0  0  0
    4.6572    1.9383    0.3714 C   0  0  0  0  0  0  0  0  0  0  0  0
    3.3949    1.3740    0.6250 C   0  0  0  0  0  0  0  0  0  0  0  0
    3.2057   -0.0808    0.5663 C   0  0  0  0  0  0  0  0  0  0  0  0
    4.0374   -0.9653    1.2435 C   0  0  0  0  0  0  0  0  0  0  0  0
    3.9216   -2.3321    1.0747 C   0  0  0  0  0  0  0  0  0  0  0  0
    2.9768   -2.8629    0.2057 C   0  0  0  0  0  0  0  0  0  0  0  0
    2.7492   -4.5802   -0.1226 S   0  0  0  0  0  0  0  0  0  0  0  0
    4.2901   -5.3533    0.4795 C   0  0  0  0  0  0  0  0  0  0  0  0
    5.4917   -4.9782   -0.3656 C   0  0  0  0  0  0  0  0  0  0  0  0
    2.1332   -1.9662   -0.4460 C   0  0  0  0  0  0  0  0  0  0  0  0
    2.2244   -0.6065   -0.2715 C   0  0  0  0  0  0  0  0  0  0  0  0
    1.2090   -2.4437   -1.3113 F   0  0  0  0  0  0  0  0  0  0  0  0
    2.3334    2.2582    0.7653 C   0  0  0  0  0  0  0  0  0  0  0  0
    0.6692    1.8355    1.0859 S   0  0  0  0  0  0  0  0  0  0  0  0
    5.8976    1.2746    0.1274 C   0  0  0  0  0  0  0  0  0  0  0  0
    6.9036    2.1216   -0.1667 C   0  0  0  0  0  0  0  0  0  0  0  0
    6.4282    3.7851   -0.1935 S   0  0  0  0  0  0  0  0  0  0  0  0
    6.9282   -5.6835    6.0637 H   0  0  0  0  0  0  0  0  0  0  0  0
    6.1649   -3.2133    5.7744 H   0  0  0  0  0  0  0  0  0  0  0  0
    6.1209   -1.8707    3.8078 H   0  0  0  0  0  0  0  0  0  0  0  0
    6.9524    0.4158    4.1388 H   0  0  0  0  0  0  0  0  0  0  0  0
    3.8525    3.8220    5.8688 H   0  0  0  0  0  0  0  0  0  0  0  0
    5.0615    4.9006    5.1489 H   0  0  0  0  0  0  0  0  0  0  0  0
    4.6044    3.9096    2.8948 H   0  0  0  0  0  0  0  0  0  0  0  0
    3.3533    2.8811    3.5929 H   0  0  0  0  0  0  0  0  0  0  0  0
    3.1431    4.6326    3.5795 H   0  0  0  0  0  0  0  0  0  0  0  0
    2.3809   -0.7142    5.5473 H   0  0  0  0  0  0  0  0  0  0  0  0
    1.7867   -6.5956    1.4033 H   0  0  0  0  0  0  0  0  0  0  0  0
    1.0575   -8.8807    1.0680 H   0  0  0  0  0  0  0  0  0  0  0  0
    1.4611  -10.9462    0.7431 H   0  0  0  0  0  0  0  0  0  0  0  0
    0.9417  -12.5784    1.1887 H   0  0  0  0  0  0  0  0  0  0  0  0
   -0.6960  -11.4671   -0.3906 H   0  0  0  0  0  0  0  0  0  0  0  0
   -1.0025  -10.2355    0.8372 H   0  0  0  0  0  0  0  0  0  0  0  0
   -1.4229  -11.9151    1.1574 H   0  0  0  0  0  0  0  0  0  0  0  0
    2.3091   -7.3713    5.5864 H   0  0  0  0  0  0  0  0  0  0  0  0
    0.1700   -5.0803    2.3606 H   0  0  0  0  0  0  0  0  0  0  0  0
   -4.6412    1.1408    3.2777 H   0  0  0  0  0  0  0  0  0  0  0  0
   -3.8224   -0.2161    4.0990 H   0  0  0  0  0  0  0  0  0  0  0  0
   -2.8611    1.0872    3.3431 H   0  0  0  0  0  0  0  0  0  0  0  0
   -1.4713   -0.9510    3.4552 H   0  0  0  0  0  0  0  0  0  0  0  0
   -0.8370   -3.5314   -1.0239 H   0  0  0  0  0  0  0  0  0  0  0  0
   -1.3139   -7.3574    3.5782 H   0  0  0  0  0  0  0  0  0  0  0  0
   -2.2393   -8.8775    3.7053 H   0  0  0  0  0  0  0  0  0  0  0  0
   -3.0683   -7.3679    3.2384 H   0  0  0  0  0  0  0  0  0  0  0  0
   -2.0676   -5.4527    1.9759 H   0  0  0  0  0  0  0  0  0  0  0  0
    0.8208   -5.6232   -2.3173 H   0  0  0  0  0  0  0  0  0  0  0  0
    0.6139   -3.4253   -3.6490 H   0  0  0  0  0  0  0  0  0  0  0  0
    1.1692   -2.2159   -5.6874 H   0  0  0  0  0  0  0  0  0  0  0  0
    3.2913   -1.1776   -4.9999 H   0  0  0  0  0  0  0  0  0  0  0  0
    4.8559    2.9853   -2.8408 H   0  0  0  0  0  0  0  0  0  0  0  0
    3.1500    2.9510   -2.3697 H   0  0  0  0  0  0  0  0  0  0  0  0
    3.4867    4.3599   -4.4226 H   0  0  0  0  0  0  0  0  0  0  0  0
    2.4995    2.9515   -4.8058 H   0  0  0  0  0  0  0  0  0  0  0  0
    4.2082    2.9725   -5.2534 H   0  0  0  0  0  0  0  0  0  0  0  0
   -0.9405    0.6639   -3.3234 H   0  0  0  0  0  0  0  0  0  0  0  0
   -4.5181   -3.5086   -1.7182 H   0  0  0  0  0  0  0  0  0  0  0  0
   -6.6712   -4.1330   -0.8034 H   0  0  0  0  0  0  0  0  0  0  0  0
  -10.1194   -5.1040   -0.0440 H   0  0  0  0  0  0  0  0  0  0  0  0
   -8.5324   -4.3464    0.1588 H   0  0  0  0  0  0  0  0  0  0  0  0
   -7.4893   -6.3786   -0.9718 H   0  0  0  0  0  0  0  0  0  0  0  0
   -8.3790   -6.8313    0.4864 H   0  0  0  0  0  0  0  0  0  0  0  0
   -9.0974   -7.0907   -1.1077 H   0  0  0  0  0  0  0  0  0  0  0  0
   -6.2851   -3.0018   -5.5879 H   0  0  0  0  0  0  0  0  0  0  0  0
   -5.8396   -0.6665   -4.6505 H   0  0  0  0  0  0  0  0  0  0  0  0
   -5.8831    1.1341   -2.9593 H   0  0  0  0  0  0  0  0  0  0  0  0
   -4.4034    0.0392   -1.5726 H   0  0  0  0  0  0  0  0  0  0  0  0
   -5.7970   -1.7166   -0.5870 H   0  0  0  0  0  0  0  0  0  0  0  0
   -9.4515   -0.1440    1.0352 H   0  0  0  0  0  0  0  0  0  0  0  0
   -9.3885   -0.6132    2.7527 H   0  0  0  0  0  0  0  0  0  0  0  0
  -10.3507   -2.8540    2.1393 H   0  0  0  0  0  0  0  0  0  0  0  0
  -11.4375   -1.5388    1.6786 H   0  0  0  0  0  0  0  0  0  0  0  0
  -10.4490   -2.3386    0.4506 H   0  0  0  0  0  0  0  0  0  0  0  0
   -6.1957    2.9015    1.0628 H   0  0  0  0  0  0  0  0  0  0  0  0
   -3.5496    7.1977   -3.3169 H   0  0  0  0  0  0  0  0  0  0  0  0
   -2.0046    8.8283   -4.2697 H   0  0  0  0  0  0  0  0  0  0  0  0
    1.0364   10.9228   -4.8472 H   0  0  0  0  0  0  0  0  0  0  0  0
   -0.6598   10.4213   -4.8231 H   0  0  0  0  0  0  0  0  0  0  0  0
    1.3245   10.2444   -2.4796 H   0  0  0  0  0  0  0  0  0  0  0  0
   -0.3399    9.6543   -2.4174 H   0  0  0  0  0  0  0  0  0  0  0  0
   -0.0182   11.3814   -2.6073 H   0  0  0  0  0  0  0  0  0  0  0  0
   -0.4545    4.2410   -3.3316 H   0  0  0  0  0  0  0  0  0  0  0  0
   -0.7648    5.3374   -0.9408 H   0  0  0  0  0  0  0  0  0  0  0  0
    1.1328    5.3936    0.5100 H   0  0  0  0  0  0  0  0  0  0  0  0
    2.4077    5.3178   -1.7877 H   0  0  0  0  0  0  0  0  0  0  0  0
    2.6114    7.5832   -2.6688 H   0  0  0  0  0  0  0  0  0  0  0  0
    3.3655    9.1893   -3.9626 H   0  0  0  0  0  0  0  0  0  0  0  0
    4.4150   10.6181   -4.0172 H   0  0  0  0  0  0  0  0  0  0  0  0
    6.4159    9.1605   -3.6531 H   0  0  0  0  0  0  0  0  0  0  0  0
    5.5333    8.6662   -5.1050 H   0  0  0  0  0  0  0  0  0  0  0  0
    5.3726    7.7339   -3.6137 H   0  0  0  0  0  0  0  0  0  0  0  0
    5.2825    6.2343    1.2541 H   0  0  0  0  0  0  0  0  0  0  0  0
    4.7725   -0.5810    1.9328 H   0  0  0  0  0  0  0  0  0  0  0  0
    4.5791   -2.9820    1.6294 H   0  0  0  0  0  0  0  0  0  0  0  0
    4.0884   -6.4225    0.4134 H   0  0  0  0  0  0  0  0  0  0  0  0
    4.4163   -5.0942    1.5304 H   0  0  0  0  0  0  0  0  0  0  0  0
    5.3391   -5.2897   -1.3964 H   0  0  0  0  0  0  0  0  0  0  0  0
    6.3802   -5.4742    0.0200 H   0  0  0  0  0  0  0  0  0  0  0  0
    5.6602   -3.9033   -0.3544 H   0  0  0  0  0  0  0  0  0  0  0  0
    1.5525    0.0328   -0.8181 H   0  0  0  0  0  0  0  0  0  0  0  0
    6.0149    0.2076    0.1524 H   0  0  0  0  0  0  0  0  0  0  0  0
    7.9261    1.8800   -0.3818 H   0  0  0  0  0  0  0  0  0  0  0  0
  1  2  2  0  0  0  0
  2  3  1  0  0  0  0
  3  4  2  0  0  0  0
  4  5  1  0  0  0  0
  5  6  2  0  0  0  0
  6  7  1  0  0  0  0
  7  8  2  0  0  0  0
  8  9  1  0  0  0  0
  9 10  1  0  0  0  0
 10 11  1  0  0  0  0
  8 12  1  0  0  0  0
 12 13  1  0  0  0  0
 12 14  2  0  0  0  0
  4 15  1  0  0  0  0
 15 16  2  0  0  0  0
 16 17  1  0  0  0  0
 17 18  1  0  0  0  0
 18 19  2  0  0  0  0
 19 20  1  0  0  0  0
 20 21  2  0  0  0  0
 21 22  1  0  0  0  0
 22 23  1  0  0  0  0
 23 24  1  0  0  0  0
 21 25  1  0  0  0  0
 25 26  2  0  0  0  0
 25 27  1  0  0  0  0
 17 28  2  0  0  0  0
 28 29  1  0  0  0  0
 16 30  1  0  0  0  0
 30 31  2  0  0  0  0
 31 32  1  0  0  0  0
 31 33  1  0  0  0  0
 33 34  2  0  0  0  0
 34 35  1  0  0  0  0
 35 36  1  0  0  0  0
 36 37  1  0  0  0  0
 37 38  1  0  0  0  0
 36 39  2  0  0  0  0
 34 40  1  0  0  0  0
 40 41  1  0  0  0  0
 41 42  2  0  0  0  0
 42 43  1  0  0  0  0
 43 44  1  0  0  0  0
 44 45  1  0  0  0  0
 45 46  1  0  0  0  0
 44 47  2  0  0  0  0
 42 48  1  0  0  0  0
 48 49  1  0  0  0  0
 49 50  2  0  0  0  0
 50 51  1  0  0  0  0
 51 52  2  0  0  0  0
 52 53  1  0  0  0  0
 53 54  2  0  0  0  0
 54 55  1  0  0  0  0
 55 56  2  0  0  0  0
 56 57  1  0  0  0  0
 57 58  1  0  0  0  0
 58 59  1  0  0  0  0
 56 60  1  0  0  0  0
 60 61  1  0  0  0  0
 60 62  2  0  0  0  0
 52 63  1  0  0  0  0
 63 64  2  0  0  0  0
 64 65  1  0  0  0  0
 65 66  1  0  0  0  0
 66 67  2  0  0  0  0
 67 68  1  0  0  0  0
 68 69  2  0  0  0  0
 69 70  1  0  0  0  0
 70 71  1  0  0  0  0
 71 72  1  0  0  0  0
 69 73  1  0  0  0  0
 73 74  2  0  0  0  0
 73 75  1  0  0  0  0
 65 76  2  0  0  0  0
 76 77  1  0  0  0  0
 64 78  1  0  0  0  0
 78 79  2  0  0  0  0
 79 80  1  0  0  0  0
 79 81  1  0  0  0  0
 81 82  2  0  0  0  0
 82 83  1  0  0  0  0
 83 84  2  0  0  0  0
 84 85  1  0  0  0  0
 85 86  2  0  0  0  0
 86 87  1  0  0  0  0
 87 88  2  0  0  0  0
 88 89  1  0  0  0  0
 89 90  1  0  0  0  0
 90 91  1  0  0  0  0
 88 92  1  0  0  0  0
 92 93  1  0  0  0  0
 92 94  2  0  0  0  0
 84 95  1  0  0  0  0
 95 96  2  0  0  0  0
 96 97  1  0  0  0  0
 97 98  1  0  0  0  0
 98 99  2  0  0  0  0
 99100  1  0  0  0  0
100101  2  0  0  0  0
101102  1  0  0  0  0
102103  1  0  0  0  0
103104  1  0  0  0  0
101105  1  0  0  0  0
105106  2  0  0  0  0
105107  1  0  0  0  0
 97108  2  0  0  0  0
108109  1  0  0  0  0
 96110  1  0  0  0  0
110111  2  0  0  0  0
111112  1  0  0  0  0
111113  1  0  0  0  0
113114  2  0  0  0  0
114115  1  0  0  0  0
115116  2  0  0  0  0
116117  1  0  0  0  0
117118  2  0  0  0  0
118119  1  0  0  0  0
119120  2  0  0  0  0
120121  1  0  0  0  0
121122  1  0  0  0  0
122123  1  0  0  0  0
120124  1  0  0  0  0
124125  1  0  0  0  0
124126  2  0  0  0  0
116127  1  0  0  0  0
127128  2  0  0  0  0
128129  1  0  0  0  0
129130  1  0  0  0  0
130131  2  0  0  0  0
131132  1  0  0  0  0
132133  2  0  0  0  0
133134  1  0  0  0  0
134135  1  0  0  0  0
135136  1  0  0  0  0
133137  1  0  0  0  0
137138  2  0  0  0  0
137139  1  0  0  0  0
129140  2  0  0  0  0
140141  1  0  0  0  0
128142  1  0  0  0  0
142143  2  0  0  0  0
143144  1  0  0  0  0
 29  1  1  0  0  0  0
 39 33  1  0  0  0  0
 47 41  1  0  0  0  0
 77 49  1  0  0  0  0
109 81  1  0  0  0  0
141113  1  0  0  0  0
 28  3  1  0  0  0  0
 76 51  1  0  0  0  0
108 83  1  0  0  0  0
140115  1  0  0  0  0
 14  5  1  0  0  0  0
 32 15  1  0  0  0  0
 62 53  1  0  0  0  0
 80 63  1  0  0  0  0
 94 85  1  0  0  0  0
112 95  1  0  0  0  0
126117  1  0  0  0  0
144127  1  0  0  0  0
 26 18  1  0  0  0  0
 74 66  1  0  0  0  0
106 98  1  0  0  0  0
138130  1  0  0  0  0
  1145  1  0  0  0  0
  2146  1  0  0  0  0
  6147  1  0  0  0  0
  7148  1  0  0  0  0
 10149  1  0  0  0  0
 10150  1  0  0  0  0
 11151  1  0  0  0  0
 11152  1  0  0  0  0
 11153  1  0  0  0  0
 14154  1  0  0  0  0
 19155  1  0  0  0  0
 20156  1  0  0  0  0
 23157  1  0  0  0  0
 23158  1  0  0  0  0
 24159  1  0  0  0  0
 24160  1  0  0  0  0
 24161  1  0  0  0  0
 26162  1  0  0  0  0
 30163  1  0  0  0  0
 38164  1  0  0  0  0
 38165  1  0  0  0  0
 38166  1  0  0  0  0
 39167  1  0  0  0  0
 40168  1  0  0  0  0
 46169  1  0  0  0  0
 46170  1  0  0  0  0
 46171  1  0  0  0  0
 47172  1  0  0  0  0
 48173  1  0  0  0  0
 50174  1  0  0  0  0
 54175  1  0  0  0  0
 55176  1  0  0  0  0
 58177  1  0  0  0  0
 58178  1  0  0  0  0
 59179  1  0  0  0  0
 59180  1  0  0  0  0
 59181  1  0  0  0  0
 62182  1  0  0  0  0
 67183  1  0  0  0  0
 68184  1  0  0  0  0
 71185  1  0  0  0  0
 71186  1  0  0  0  0
 72187  1  0  0  0  0
 72188  1  0  0  0  0
 72189  1  0  0  0  0
 74190  1  0  0  0  0
 78191  1  0  0  0  0
 82192  1  0  0  0  0
 86193  1  0  0  0  0
 87194  1  0  0  0  0
 90195  1  0  0  0  0
 90196  1  0  0  0  0
 91197  1  0  0  0  0
 91198  1  0  0  0  0
 91199  1  0  0  0  0
 94200  1  0  0  0  0
 99201  1  0  0  0  0
100202  1  0  0  0  0
103203  1  0  0  0  0
103204  1  0  0  0  0
104205  1  0  0  0  0
104206  1  0  0  0  0
104207  1  0  0  0  0
106208  1  0  0  0  0
110209  1  0  0  0  0
114210  1  0  0  0  0
118211  1  0  0  0  0
119212  1  0  0  0  0
122213  1  0  0  0  0
122214  1  0  0  0  0
123215  1  0  0  0  0
123216  1  0  0  0  0
123217  1  0  0  0  0
126218  1  0  0  0  0
131219  1  0  0  0  0
132220  1  0  0  0  0
135221  1  0  0  0  0
135222  1  0  0  0  0
136223  1  0  0  0  0
136224  1  0  0  0  0
136225  1  0  0  0  0
138226  1  0  0  0  0
142227  1  0  0  0  0
143228  1  0  0  0  0
M  END
