223

C          2.51200      -14.61050       10.30050
C          2.73930      -14.17550        9.04410
C          1.61620      -13.50360        8.48080
C          1.48460      -12.95790        7.19340
C          2.61280      -12.88150        6.28060
S          2.50670      -13.44670        4.64030
C          4.12850      -12.96020        4.28520
C          4.73890      -13.21440        2.95140
C          5.40010      -14.59390        2.90400
C          4.70780      -12.40130        5.38540
Cl         6.31300      -11.79540        5.41680
C          3.85090      -12.34960        6.51700
Cl         4.31630      -11.60880        7.99390
C          0.23440      -12.46490        6.84450
C         -0.86020      -12.43580        7.74210
C         -0.71080      -12.92360        9.05210
C         -1.80580      -12.84820       10.00410
S         -3.38490      -13.46990        9.61980
C         -4.04120      -12.97100       11.14100
C         -5.48820      -13.14540       11.44220
C         -6.31910      -12.06980       10.73720
C         -3.08070      -12.36330       11.89260
C         -1.81150      -12.29770       11.25580
Cl        -0.46800      -11.51040       11.97000
Cl        -3.35310      -11.72350       13.46110
C          0.52550      -13.46560        9.38320
S          0.93070      -14.23690       10.88920
C         -2.00080      -11.82700        7.16680
C         -1.80490      -11.41270        5.88010
S         -0.18250      -11.75160        5.31190
C         -2.73870      -10.73970        5.04790
S         -2.30750      -10.17940        3.45530
C         -3.85940       -9.43270        3.19080
C         -4.68440       -9.63640        4.29140
C         -4.03950      -10.37670        5.32380
S         -5.07160      -10.62190        6.69520
C         -6.35860       -9.73780        5.87400
C         -7.58930       -9.56960        6.51440
N         -8.59760       -9.43670        7.04620
C         -6.01210       -9.28480        4.63530
C         -4.06930       -8.65650        2.02390
C         -3.21910       -8.55780        0.95650
C         -3.58880       -7.56140        0.02700
C         -2.87540       -7.12170       -1.10260
C         -1.59520       -7.70760       -1.46550
S         -1.30950       -8.31820       -3.06770
C          0.31150       -8.78550       -2.68460
C          1.17140       -9.47670       -3.68410
C          0.89330      -10.98170       -3.69810
C          0.59830       -8.48220       -1.38690
Cl         2.11060       -8.79880       -0.64030
C         -0.47720       -7.86470       -0.69380
Cl        -0.32780       -7.30250        0.92240
C         -3.42040       -6.06640       -1.81820
C         -4.63700       -5.43340       -1.46050
C         -5.34700       -5.86890       -0.32730
C         -6.55830       -5.19450        0.11230
S         -8.03420       -6.07270        0.38230
C         -8.88970       -4.64430        0.85210
C        -10.33980       -4.68540        1.18560
C        -11.19470       -4.50920       -0.07200
C         -8.06660       -3.55910        0.79630
C         -6.74230       -3.86710        0.38400
Cl        -5.49800       -2.68490        0.32590
Cl        -8.55890       -1.96370        1.19070
C         -4.80360       -6.92620        0.38620
S         -5.43760       -7.56660        1.87600
C         -4.92340       -4.33090       -2.30020
C         -3.94420       -4.07560       -3.21480
S         -2.65770       -5.26610       -3.16230
C         -3.78850       -2.90210       -4.00730
C         -2.72100       -2.57180       -4.78960
C         -2.72430       -1.21960       -5.20740
C         -1.68540       -0.52320       -5.85260
C         -0.53230       -1.21940       -6.39060
S          1.08840       -0.69260       -6.04320
C          1.78830       -1.95280       -7.00100
C          3.26570       -2.06270       -7.15070
C          3.87040       -0.76730       -7.69140
C          0.81070       -2.72710       -7.55160
Cl         1.10980       -4.07390       -8.57340
C         -0.50530       -2.31920       -7.20430
Cl        -1.90430       -3.09270       -7.82900
C         -1.78120        0.86160       -5.86720
C         -2.89410        1.56700       -5.34660
C         -3.97780        0.86370       -4.78910
C         -5.11050        1.55600       -4.19890
S         -4.87670        2.83650       -3.04350
C         -6.57860        3.06190       -2.82380
C         -7.09360        4.11530       -1.90560
C         -6.57200        5.50060       -2.28830
C         -7.27340        2.18420       -3.60080
C         -6.44640        1.32370       -4.37400
Cl        -7.08750        0.17770       -5.47430
Cl        -8.98650        2.10150       -3.66300
C         -3.85340       -0.51820       -4.71530
S         -4.91280       -1.57100       -3.82210
C         -2.68850        2.96670       -5.37470
C         -1.45790        3.32570       -5.84020
S         -0.53230        1.94970       -6.40280
C         -0.81710        4.58470       -5.65860
C          0.51050        4.85430       -5.81200
C          0.91510        6.05730       -5.18570
C          2.22120        6.55080       -5.02750
C          3.36810        5.82130       -5.54450
S          4.54560        6.59160       -6.56490
C          5.48000        5.14370       -6.71300
C          6.69870        5.08970       -7.56660
C          6.34700        4.67370       -8.99700
C          4.89850        4.13120       -6.00950
Cl         5.53290        2.53970       -5.92410
C          3.70660        4.51170       -5.33770
Cl         2.85360        3.43330       -4.30620
C          2.36470        7.72050       -4.29460
C          1.27070        8.41320       -3.71880
C         -0.04090        7.93990       -3.90990
C         -1.19140        8.64420       -3.37410
S         -2.43660        7.80780       -2.49330
C         -3.36310        9.25350       -2.27110
C         -4.66440        9.22760       -1.54710
C         -4.55020        8.53380       -0.19150
C         -2.73080       10.31270       -2.85080
C         -1.50140        9.97280       -3.47770
Cl        -0.57080       11.12030       -4.35150
Cl        -3.34280       11.91640       -2.85120
C         -0.17860        6.74760       -4.60820
S         -1.67050        5.88340       -4.84790
C          1.70170        9.48180       -2.89550
C          3.05700        9.61850       -2.84490
S          3.88390        8.44030       -3.84410
C          3.81020       10.53830       -2.05840
C          5.16320       10.58010       -1.90170
C          5.59740       11.58940       -1.00730
C          6.91250       11.91220       -0.63520
C          8.04780       11.22390       -1.22580
S          9.26760       10.47580       -0.23880
C         10.15370        9.92140       -1.61730
C         11.38160        9.09390       -1.46260
C         11.02620        7.61660       -1.27720
C          9.52700       10.29960       -2.76730
Cl        10.10890        9.93360       -4.33960
C          8.33510       11.04130       -2.55050
Cl         7.41140       11.70070       -3.83890
C          7.07040       12.91510        0.31350
C          5.98190       13.61880        0.88010
C          4.66790       13.30470        0.49950
C          3.52130       13.99620        1.06990
S          3.36570       15.72550        0.98110
C          1.83820       15.70960        1.79440
C          1.11720       16.97220        2.11490
C          1.58070       17.53870        3.45920
C          1.48990       14.43320        2.12030
C          2.43740       13.45880        1.70610
Cl         2.25430       11.79190        2.05950
Cl         0.04530       14.01860        2.94790
C          4.50730       12.29780       -0.44350
S          2.99020       11.74990       -1.09610
C          6.42110       14.58960        1.82720
C          7.76320       14.62850        1.95170
S          8.58840       13.49400        0.94000
H          3.18500      -15.14280       10.94400
H          3.66060      -14.33550        8.51530
H          3.96630      -13.15330        2.18350
H          5.48840      -12.44460        2.75710
H          6.18250      -14.66230        3.65550
H          4.66460      -15.37170        3.09490
H          5.84150      -14.76250        1.92550
H         -5.63250      -13.07490       12.52140
H         -5.81480      -14.13190       11.10800
H         -6.18280      -12.13090        9.65980
H         -7.37330      -12.20340       10.96240
H         -6.01560      -11.08010       11.06910
H         -2.92710      -11.68920        7.69190
H         -6.67960       -8.72990        4.00130
H         -2.34510       -9.17540        0.85910
H          0.97850       -9.06270       -4.67510
H          2.21750       -9.30020       -3.42740
H         -0.14650      -11.17040       -3.95420
H          1.52810      -11.47140       -4.43150
H          1.09460      -11.41130       -2.72000
H        -10.56000       -3.88230        1.89140
H        -10.57640       -5.64090        1.65640
H        -12.24940       -4.53840        0.18750
H        -10.97810       -3.55440       -0.54410
H        -10.98760       -5.30470       -0.78390
H         -5.80310       -3.72020       -2.21210
H         -1.92010       -3.25930       -4.99350
H          3.48350       -2.89150       -7.82630
H          3.71250       -2.28720       -6.17830
H          3.44360       -0.52580       -8.66190
H          3.66930        0.05590       -7.01000
H          4.94630       -0.87370       -7.80080
H         -6.78300        3.88630       -0.88260
H         -8.18400        4.10040       -1.94270
H         -6.88400        5.75630       -3.29810
H         -5.48510        5.52150       -2.24560
H         -6.96420        6.24700       -1.60260
H         -3.39160        3.68880       -5.00290
H          1.18060        4.18240       -6.31560
H          7.17490        6.07110       -7.57820
H          7.39580        4.36620       -7.13880
H          5.65560        5.38740       -9.43830
H          7.24610        4.63620       -9.60600
H          5.88230        3.69100       -8.99980
H         -5.00490       10.25620       -1.41710
H         -5.40190        8.69970       -2.15900
H         -4.22560        7.50410       -0.32110
H         -5.51290        8.53660        0.31260
H         -3.82790        9.04780        0.43750
H          1.03840       10.10410       -2.32280
H          5.82320        9.89110       -2.39670
H         11.99880        9.21250       -2.35500
H         11.94610        9.44280       -0.59630
H         10.47420        7.25060       -2.13910
H         11.93150        7.02610       -1.16640
H         10.41210        7.48540       -0.38940
H          1.30080       17.70530        1.32780
H          0.04670       16.76290        2.15720
H          2.64520       17.75900        3.42950
H          1.04110       18.45450        3.68420
H          1.39560       16.82070        4.25420
H          5.75190       15.22010        2.38280
H          8.34680       15.26260        2.58990
