
  xtb     03022218133D
 energy: -448.351014952901 gnorm: 0.000167683754 xtb: 6.4.1 (unknown)
223249  0     0  0            999 V2000
    2.5120  -14.6105   10.3005 C   0  0  0  0  0  0  0  0  0  0  0  0
    2.7393  -14.1755    9.0441 C   0  0  0  0  0  0  0  0  0  0  0  0
    1.6162  -13.5036    8.4808 C   0  0  0  0  0  0  0  0  0  0  0  0
    1.4846  -12.9579    7.1934 C   0  0  0  0  0  0  0  0  0  0  0  0
    2.6128  -12.8815    6.2806 C   0  0  0  0  0  0  0  0  0  0  0  0
    2.5067  -13.4467    4.6403 S   0  0  0  0  0  0  0  0  0  0  0  0
    4.1285  -12.9602    4.2852 C   0  0  0  0  0  0  0  0  0  0  0  0
    4.7389  -13.2144    2.9514 C   0  0  0  0  0  0  0  0  0  0  0  0
    5.4001  -14.5939    2.9040 C   0  0  0  0  0  0  0  0  0  0  0  0
    4.7078  -12.4013    5.3854 C   0  0  0  0  0  0  0  0  0  0  0  0
    6.3130  -11.7954    5.4168 Cl  0  0  0  0  0  0  0  0  0  0  0  0
    3.8509  -12.3496    6.5170 C   0  0  0  0  0  0  0  0  0  0  0  0
    4.3163  -11.6088    7.9939 Cl  0  0  0  0  0  0  0  0  0  0  0  0
    0.2344  -12.4649    6.8445 C   0  0  0  0  0  0  0  0  0  0  0  0
   -0.8602  -12.4358    7.7421 C   0  0  0  0  0  0  0  0  0  0  0  0
   -0.7108  -12.9236    9.0521 C   0  0  0  0  0  0  0  0  0  0  0  0
   -1.8058  -12.8482   10.0041 C   0  0  0  0  0  0  0  0  0  0  0  0
   -3.3849  -13.4699    9.6198 S   0  0  0  0  0  0  0  0  0  0  0  0
   -4.0412  -12.9710   11.1410 C   0  0  0  0  0  0  0  0  0  0  0  0
   -5.4882  -13.1454   11.4422 C   0  0  0  0  0  0  0  0  0  0  0  0
   -6.3191  -12.0698   10.7372 C   0  0  0  0  0  0  0  0  0  0  0  0
   -3.0807  -12.3633   11.8926 C   0  0  0  0  0  0  0  0  0  0  0  0
   -1.8115  -12.2977   11.2558 C   0  0  0  0  0  0  0  0  0  0  0  0
   -0.4680  -11.5104   11.9700 Cl  0  0  0  0  0  0  0  0  0  0  0  0
   -3.3531  -11.7235   13.4611 Cl  0  0  0  0  0  0  0  0  0  0  0  0
    0.5255  -13.4656    9.3832 C   0  0  0  0  0  0  0  0  0  0  0  0
    0.9307  -14.2369   10.8892 S   0  0  0  0  0  0  0  0  0  0  0  0
   -2.0008  -11.8270    7.1668 C   0  0  0  0  0  0  0  0  0  0  0  0
   -1.8049  -11.4127    5.8801 C   0  0  0  0  0  0  0  0  0  0  0  0
   -0.1825  -11.7516    5.3119 S   0  0  0  0  0  0  0  0  0  0  0  0
   -2.7387  -10.7397    5.0479 C   0  0  0  0  0  0  0  0  0  0  0  0
   -2.3075  -10.1794    3.4553 S   0  0  0  0  0  0  0  0  0  0  0  0
   -3.8594   -9.4327    3.1908 C   0  0  0  0  0  0  0  0  0  0  0  0
   -4.6844   -9.6364    4.2914 C   0  0  0  0  0  0  0  0  0  0  0  0
   -4.0395  -10.3767    5.3238 C   0  0  0  0  0  0  0  0  0  0  0  0
   -5.0716  -10.6219    6.6952 S   0  0  0  0  0  0  0  0  0  0  0  0
   -6.3586   -9.7378    5.8740 C   0  0  0  0  0  0  0  0  0  0  0  0
   -7.5893   -9.5696    6.5144 C   0  0  0  0  0  0  0  0  0  0  0  0
   -8.5976   -9.4367    7.0462 N   0  0  0  0  0  0  0  0  0  0  0  0
   -6.0121   -9.2848    4.6353 C   0  0  0  0  0  0  0  0  0  0  0  0
   -4.0693   -8.6565    2.0239 C   0  0  0  0  0  0  0  0  0  0  0  0
   -3.2191   -8.5578    0.9565 C   0  0  0  0  0  0  0  0  0  0  0  0
   -3.5888   -7.5614    0.0270 C   0  0  0  0  0  0  0  0  0  0  0  0
   -2.8754   -7.1217   -1.1026 C   0  0  0  0  0  0  0  0  0  0  0  0
   -1.5952   -7.7076   -1.4655 C   0  0  0  0  0  0  0  0  0  0  0  0
   -1.3095   -8.3182   -3.0677 S   0  0  0  0  0  0  0  0  0  0  0  0
    0.3115   -8.7855   -2.6846 C   0  0  0  0  0  0  0  0  0  0  0  0
    1.1714   -9.4767   -3.6841 C   0  0  0  0  0  0  0  0  0  0  0  0
    0.8933  -10.9817   -3.6981 C   0  0  0  0  0  0  0  0  0  0  0  0
    0.5983   -8.4822   -1.3869 C   0  0  0  0  0  0  0  0  0  0  0  0
    2.1106   -8.7988   -0.6403 Cl  0  0  0  0  0  0  0  0  0  0  0  0
   -0.4772   -7.8647   -0.6938 C   0  0  0  0  0  0  0  0  0  0  0  0
   -0.3278   -7.3025    0.9224 Cl  0  0  0  0  0  0  0  0  0  0  0  0
   -3.4204   -6.0664   -1.8182 C   0  0  0  0  0  0  0  0  0  0  0  0
   -4.6370   -5.4334   -1.4605 C   0  0  0  0  0  0  0  0  0  0  0  0
   -5.3470   -5.8689   -0.3273 C   0  0  0  0  0  0  0  0  0  0  0  0
   -6.5583   -5.1945    0.1123 C   0  0  0  0  0  0  0  0  0  0  0  0
   -8.0342   -6.0727    0.3823 S   0  0  0  0  0  0  0  0  0  0  0  0
   -8.8897   -4.6443    0.8521 C   0  0  0  0  0  0  0  0  0  0  0  0
  -10.3398   -4.6854    1.1856 C   0  0  0  0  0  0  0  0  0  0  0  0
  -11.1947   -4.5092   -0.0720 C   0  0  0  0  0  0  0  0  0  0  0  0
   -8.0666   -3.5591    0.7963 C   0  0  0  0  0  0  0  0  0  0  0  0
   -6.7423   -3.8671    0.3840 C   0  0  0  0  0  0  0  0  0  0  0  0
   -5.4980   -2.6849    0.3259 Cl  0  0  0  0  0  0  0  0  0  0  0  0
   -8.5589   -1.9637    1.1907 Cl  0  0  0  0  0  0  0  0  0  0  0  0
   -4.8036   -6.9262    0.3862 C   0  0  0  0  0  0  0  0  0  0  0  0
   -5.4376   -7.5666    1.8760 S   0  0  0  0  0  0  0  0  0  0  0  0
   -4.9234   -4.3309   -2.3002 C   0  0  0  0  0  0  0  0  0  0  0  0
   -3.9442   -4.0756   -3.2148 C   0  0  0  0  0  0  0  0  0  0  0  0
   -2.6577   -5.2661   -3.1623 S   0  0  0  0  0  0  0  0  0  0  0  0
   -3.7885   -2.9021   -4.0073 C   0  0  0  0  0  0  0  0  0  0  0  0
   -2.7210   -2.5718   -4.7896 C   0  0  0  0  0  0  0  0  0  0  0  0
   -2.7243   -1.2196   -5.2074 C   0  0  0  0  0  0  0  0  0  0  0  0
   -1.6854   -0.5232   -5.8526 C   0  0  0  0  0  0  0  0  0  0  0  0
   -0.5323   -1.2194   -6.3906 C   0  0  0  0  0  0  0  0  0  0  0  0
    1.0884   -0.6926   -6.0432 S   0  0  0  0  0  0  0  0  0  0  0  0
    1.7883   -1.9528   -7.0010 C   0  0  0  0  0  0  0  0  0  0  0  0
    3.2657   -2.0627   -7.1507 C   0  0  0  0  0  0  0  0  0  0  0  0
    3.8704   -0.7673   -7.6914 C   0  0  0  0  0  0  0  0  0  0  0  0
    0.8107   -2.7271   -7.5516 C   0  0  0  0  0  0  0  0  0  0  0  0
    1.1098   -4.0739   -8.5734 Cl  0  0  0  0  0  0  0  0  0  0  0  0
   -0.5053   -2.3192   -7.2043 C   0  0  0  0  0  0  0  0  0  0  0  0
   -1.9043   -3.0927   -7.8290 Cl  0  0  0  0  0  0  0  0  0  0  0  0
   -1.7812    0.8616   -5.8672 C   0  0  0  0  0  0  0  0  0  0  0  0
   -2.8941    1.5670   -5.3466 C   0  0  0  0  0  0  0  0  0  0  0  0
   -3.9778    0.8637   -4.7891 C   0  0  0  0  0  0  0  0  0  0  0  0
   -5.1105    1.5560   -4.1989 C   0  0  0  0  0  0  0  0  0  0  0  0
   -4.8767    2.8365   -3.0435 S   0  0  0  0  0  0  0  0  0  0  0  0
   -6.5786    3.0619   -2.8238 C   0  0  0  0  0  0  0  0  0  0  0  0
   -7.0936    4.1153   -1.9056 C   0  0  0  0  0  0  0  0  0  0  0  0
   -6.5720    5.5006   -2.2883 C   0  0  0  0  0  0  0  0  0  0  0  0
   -7.2734    2.1842   -3.6008 C   0  0  0  0  0  0  0  0  0  0  0  0
   -6.4464    1.3237   -4.3740 C   0  0  0  0  0  0  0  0  0  0  0  0
   -7.0875    0.1777   -5.4743 Cl  0  0  0  0  0  0  0  0  0  0  0  0
   -8.9865    2.1015   -3.6630 Cl  0  0  0  0  0  0  0  0  0  0  0  0
   -3.8534   -0.5182   -4.7153 C   0  0  0  0  0  0  0  0  0  0  0  0
   -4.9128   -1.5710   -3.8221 S   0  0  0  0  0  0  0  0  0  0  0  0
   -2.6885    2.9667   -5.3747 C   0  0  0  0  0  0  0  0  0  0  0  0
   -1.4579    3.3257   -5.8402 C   0  0  0  0  0  0  0  0  0  0  0  0
   -0.5323    1.9497   -6.4028 S   0  0  0  0  0  0  0  0  0  0  0  0
   -0.8171    4.5847   -5.6586 C   0  0  0  0  0  0  0  0  0  0  0  0
    0.5105    4.8543   -5.8120 C   0  0  0  0  0  0  0  0  0  0  0  0
    0.9151    6.0573   -5.1857 C   0  0  0  0  0  0  0  0  0  0  0  0
    2.2212    6.5508   -5.0275 C   0  0  0  0  0  0  0  0  0  0  0  0
    3.3681    5.8213   -5.5445 C   0  0  0  0  0  0  0  0  0  0  0  0
    4.5456    6.5916   -6.5649 S   0  0  0  0  0  0  0  0  0  0  0  0
    5.4800    5.1437   -6.7130 C   0  0  0  0  0  0  0  0  0  0  0  0
    6.6987    5.0897   -7.5666 C   0  0  0  0  0  0  0  0  0  0  0  0
    6.3470    4.6737   -8.9970 C   0  0  0  0  0  0  0  0  0  0  0  0
    4.8985    4.1312   -6.0095 C   0  0  0  0  0  0  0  0  0  0  0  0
    5.5329    2.5397   -5.9241 Cl  0  0  0  0  0  0  0  0  0  0  0  0
    3.7066    4.5117   -5.3377 C   0  0  0  0  0  0  0  0  0  0  0  0
    2.8536    3.4333   -4.3062 Cl  0  0  0  0  0  0  0  0  0  0  0  0
    2.3647    7.7205   -4.2946 C   0  0  0  0  0  0  0  0  0  0  0  0
    1.2707    8.4132   -3.7188 C   0  0  0  0  0  0  0  0  0  0  0  0
   -0.0409    7.9399   -3.9099 C   0  0  0  0  0  0  0  0  0  0  0  0
   -1.1914    8.6442   -3.3741 C   0  0  0  0  0  0  0  0  0  0  0  0
   -2.4366    7.8078   -2.4933 S   0  0  0  0  0  0  0  0  0  0  0  0
   -3.3631    9.2535   -2.2711 C   0  0  0  0  0  0  0  0  0  0  0  0
   -4.6644    9.2276   -1.5471 C   0  0  0  0  0  0  0  0  0  0  0  0
   -4.5502    8.5338   -0.1915 C   0  0  0  0  0  0  0  0  0  0  0  0
   -2.7308   10.3127   -2.8508 C   0  0  0  0  0  0  0  0  0  0  0  0
   -1.5014    9.9728   -3.4777 C   0  0  0  0  0  0  0  0  0  0  0  0
   -0.5708   11.1203   -4.3515 Cl  0  0  0  0  0  0  0  0  0  0  0  0
   -3.3428   11.9164   -2.8512 Cl  0  0  0  0  0  0  0  0  0  0  0  0
   -0.1786    6.7476   -4.6082 C   0  0  0  0  0  0  0  0  0  0  0  0
   -1.6705    5.8834   -4.8479 S   0  0  0  0  0  0  0  0  0  0  0  0
    1.7017    9.4818   -2.8955 C   0  0  0  0  0  0  0  0  0  0  0  0
    3.0570    9.6185   -2.8449 C   0  0  0  0  0  0  0  0  0  0  0  0
    3.8839    8.4403   -3.8441 S   0  0  0  0  0  0  0  0  0  0  0  0
    3.8102   10.5383   -2.0584 C   0  0  0  0  0  0  0  0  0  0  0  0
    5.1632   10.5801   -1.9017 C   0  0  0  0  0  0  0  0  0  0  0  0
    5.5974   11.5894   -1.0073 C   0  0  0  0  0  0  0  0  0  0  0  0
    6.9125   11.9122   -0.6352 C   0  0  0  0  0  0  0  0  0  0  0  0
    8.0478   11.2239   -1.2258 C   0  0  0  0  0  0  0  0  0  0  0  0
    9.2676   10.4758   -0.2388 S   0  0  0  0  0  0  0  0  0  0  0  0
   10.1537    9.9214   -1.6173 C   0  0  0  0  0  0  0  0  0  0  0  0
   11.3816    9.0939   -1.4626 C   0  0  0  0  0  0  0  0  0  0  0  0
   11.0262    7.6166   -1.2772 C   0  0  0  0  0  0  0  0  0  0  0  0
    9.5270   10.2996   -2.7673 C   0  0  0  0  0  0  0  0  0  0  0  0
   10.1089    9.9336   -4.3396 Cl  0  0  0  0  0  0  0  0  0  0  0  0
    8.3351   11.0413   -2.5505 C   0  0  0  0  0  0  0  0  0  0  0  0
    7.4114   11.7007   -3.8389 Cl  0  0  0  0  0  0  0  0  0  0  0  0
    7.0704   12.9151    0.3135 C   0  0  0  0  0  0  0  0  0  0  0  0
    5.9819   13.6188    0.8801 C   0  0  0  0  0  0  0  0  0  0  0  0
    4.6679   13.3047    0.4995 C   0  0  0  0  0  0  0  0  0  0  0  0
    3.5213   13.9962    1.0699 C   0  0  0  0  0  0  0  0  0  0  0  0
    3.3657   15.7255    0.9811 S   0  0  0  0  0  0  0  0  0  0  0  0
    1.8382   15.7096    1.7944 C   0  0  0  0  0  0  0  0  0  0  0  0
    1.1172   16.9722    2.1149 C   0  0  0  0  0  0  0  0  0  0  0  0
    1.5807   17.5387    3.4592 C   0  0  0  0  0  0  0  0  0  0  0  0
    1.4899   14.4332    2.1203 C   0  0  0  0  0  0  0  0  0  0  0  0
    2.4374   13.4588    1.7061 C   0  0  0  0  0  0  0  0  0  0  0  0
    2.2543   11.7919    2.0595 Cl  0  0  0  0  0  0  0  0  0  0  0  0
    0.0453   14.0186    2.9479 Cl  0  0  0  0  0  0  0  0  0  0  0  0
    4.5073   12.2978   -0.4435 C   0  0  0  0  0  0  0  0  0  0  0  0
    2.9902   11.7499   -1.0961 S   0  0  0  0  0  0  0  0  0  0  0  0
    6.4211   14.5896    1.8272 C   0  0  0  0  0  0  0  0  0  0  0  0
    7.7632   14.6285    1.9517 C   0  0  0  0  0  0  0  0  0  0  0  0
    8.5884   13.4940    0.9400 S   0  0  0  0  0  0  0  0  0  0  0  0
    3.1850  -15.1428   10.9440 H   0  0  0  0  0  0  0  0  0  0  0  0
    3.6606  -14.3355    8.5153 H   0  0  0  0  0  0  0  0  0  0  0  0
    3.9663  -13.1533    2.1835 H   0  0  0  0  0  0  0  0  0  0  0  0
    5.4884  -12.4446    2.7571 H   0  0  0  0  0  0  0  0  0  0  0  0
    6.1825  -14.6623    3.6555 H   0  0  0  0  0  0  0  0  0  0  0  0
    4.6646  -15.3717    3.0949 H   0  0  0  0  0  0  0  0  0  0  0  0
    5.8415  -14.7625    1.9255 H   0  0  0  0  0  0  0  0  0  0  0  0
   -5.6325  -13.0749   12.5214 H   0  0  0  0  0  0  0  0  0  0  0  0
   -5.8148  -14.1319   11.1080 H   0  0  0  0  0  0  0  0  0  0  0  0
   -6.1828  -12.1309    9.6598 H   0  0  0  0  0  0  0  0  0  0  0  0
   -7.3733  -12.2034   10.9624 H   0  0  0  0  0  0  0  0  0  0  0  0
   -6.0156  -11.0801   11.0691 H   0  0  0  0  0  0  0  0  0  0  0  0
   -2.9271  -11.6892    7.6919 H   0  0  0  0  0  0  0  0  0  0  0  0
   -6.6796   -8.7299    4.0013 H   0  0  0  0  0  0  0  0  0  0  0  0
   -2.3451   -9.1754    0.8591 H   0  0  0  0  0  0  0  0  0  0  0  0
    0.9785   -9.0627   -4.6751 H   0  0  0  0  0  0  0  0  0  0  0  0
    2.2175   -9.3002   -3.4274 H   0  0  0  0  0  0  0  0  0  0  0  0
   -0.1465  -11.1704   -3.9542 H   0  0  0  0  0  0  0  0  0  0  0  0
    1.5281  -11.4714   -4.4315 H   0  0  0  0  0  0  0  0  0  0  0  0
    1.0946  -11.4113   -2.7200 H   0  0  0  0  0  0  0  0  0  0  0  0
  -10.5600   -3.8823    1.8914 H   0  0  0  0  0  0  0  0  0  0  0  0
  -10.5764   -5.6409    1.6564 H   0  0  0  0  0  0  0  0  0  0  0  0
  -12.2494   -4.5384    0.1875 H   0  0  0  0  0  0  0  0  0  0  0  0
  -10.9781   -3.5544   -0.5441 H   0  0  0  0  0  0  0  0  0  0  0  0
  -10.9876   -5.3047   -0.7839 H   0  0  0  0  0  0  0  0  0  0  0  0
   -5.8031   -3.7202   -2.2121 H   0  0  0  0  0  0  0  0  0  0  0  0
   -1.9201   -3.2593   -4.9935 H   0  0  0  0  0  0  0  0  0  0  0  0
    3.4835   -2.8915   -7.8263 H   0  0  0  0  0  0  0  0  0  0  0  0
    3.7125   -2.2872   -6.1783 H   0  0  0  0  0  0  0  0  0  0  0  0
    3.4436   -0.5258   -8.6619 H   0  0  0  0  0  0  0  0  0  0  0  0
    3.6693    0.0559   -7.0100 H   0  0  0  0  0  0  0  0  0  0  0  0
    4.9463   -0.8737   -7.8008 H   0  0  0  0  0  0  0  0  0  0  0  0
   -6.7830    3.8863   -0.8826 H   0  0  0  0  0  0  0  0  0  0  0  0
   -8.1840    4.1004   -1.9427 H   0  0  0  0  0  0  0  0  0  0  0  0
   -6.8840    5.7563   -3.2981 H   0  0  0  0  0  0  0  0  0  0  0  0
   -5.4851    5.5215   -2.2456 H   0  0  0  0  0  0  0  0  0  0  0  0
   -6.9642    6.2470   -1.6026 H   0  0  0  0  0  0  0  0  0  0  0  0
   -3.3916    3.6888   -5.0029 H   0  0  0  0  0  0  0  0  0  0  0  0
    1.1806    4.1824   -6.3156 H   0  0  0  0  0  0  0  0  0  0  0  0
    7.1749    6.0711   -7.5782 H   0  0  0  0  0  0  0  0  0  0  0  0
    7.3958    4.3662   -7.1388 H   0  0  0  0  0  0  0  0  0  0  0  0
    5.6556    5.3874   -9.4383 H   0  0  0  0  0  0  0  0  0  0  0  0
    7.2461    4.6362   -9.6060 H   0  0  0  0  0  0  0  0  0  0  0  0
    5.8823    3.6910   -8.9998 H   0  0  0  0  0  0  0  0  0  0  0  0
   -5.0049   10.2562   -1.4171 H   0  0  0  0  0  0  0  0  0  0  0  0
   -5.4019    8.6997   -2.1590 H   0  0  0  0  0  0  0  0  0  0  0  0
   -4.2256    7.5041   -0.3211 H   0  0  0  0  0  0  0  0  0  0  0  0
   -5.5129    8.5366    0.3126 H   0  0  0  0  0  0  0  0  0  0  0  0
   -3.8279    9.0478    0.4375 H   0  0  0  0  0  0  0  0  0  0  0  0
    1.0384   10.1041   -2.3228 H   0  0  0  0  0  0  0  0  0  0  0  0
    5.8232    9.8911   -2.3967 H   0  0  0  0  0  0  0  0  0  0  0  0
   11.9988    9.2125   -2.3550 H   0  0  0  0  0  0  0  0  0  0  0  0
   11.9461    9.4428   -0.5963 H   0  0  0  0  0  0  0  0  0  0  0  0
   10.4742    7.2506   -2.1391 H   0  0  0  0  0  0  0  0  0  0  0  0
   11.9315    7.0261   -1.1664 H   0  0  0  0  0  0  0  0  0  0  0  0
   10.4121    7.4854   -0.3894 H   0  0  0  0  0  0  0  0  0  0  0  0
    1.3008   17.7053    1.3278 H   0  0  0  0  0  0  0  0  0  0  0  0
    0.0467   16.7629    2.1572 H   0  0  0  0  0  0  0  0  0  0  0  0
    2.6452   17.7590    3.4295 H   0  0  0  0  0  0  0  0  0  0  0  0
    1.0411   18.4545    3.6842 H   0  0  0  0  0  0  0  0  0  0  0  0
    1.3956   16.8207    4.2542 H   0  0  0  0  0  0  0  0  0  0  0  0
    5.7519   15.2201    2.3828 H   0  0  0  0  0  0  0  0  0  0  0  0
    8.3468   15.2626    2.5899 H   0  0  0  0  0  0  0  0  0  0  0  0
  1  2  2  0  0  0  0
  2  3  1  0  0  0  0
  3  4  2  0  0  0  0
  4  5  1  0  0  0  0
  5  6  1  0  0  0  0
  6  7  1  0  0  0  0
  7  8  1  0  0  0  0
  8  9  1  0  0  0  0
  7 10  2  0  0  0  0
 10 11  1  0  0  0  0
 10 12  1  0  0  0  0
 12 13  1  0  0  0  0
  4 14  1  0  0  0  0
 14 15  2  0  0  0  0
 15 16  1  0  0  0  0
 16 17  1  0  0  0  0
 17 18  1  0  0  0  0
 18 19  1  0  0  0  0
 19 20  1  0  0  0  0
 20 21  1  0  0  0  0
 19 22  2  0  0  0  0
 22 23  1  0  0  0  0
 23 24  1  0  0  0  0
 22 25  1  0  0  0  0
 16 26  2  0  0  0  0
 26 27  1  0  0  0  0
 15 28  1  0  0  0  0
 28 29  2  0  0  0  0
 29 30  1  0  0  0  0
 29 31  1  0  0  0  0
 31 32  1  0  0  0  0
 32 33  1  0  0  0  0
 33 34  2  0  0  0  0
 34 35  1  0  0  0  0
 35 36  1  0  0  0  0
 36 37  1  0  0  0  0
 37 38  1  0  0  0  0
 38 39  3  0  0  0  0
 37 40  2  0  0  0  0
 33 41  1  0  0  0  0
 41 42  2  0  0  0  0
 42 43  1  0  0  0  0
 43 44  2  0  0  0  0
 44 45  1  0  0  0  0
 45 46  1  0  0  0  0
 46 47  1  0  0  0  0
 47 48  1  0  0  0  0
 48 49  1  0  0  0  0
 47 50  2  0  0  0  0
 50 51  1  0  0  0  0
 50 52  1  0  0  0  0
 52 53  1  0  0  0  0
 44 54  1  0  0  0  0
 54 55  2  0  0  0  0
 55 56  1  0  0  0  0
 56 57  1  0  0  0  0
 57 58  1  0  0  0  0
 58 59  1  0  0  0  0
 59 60  1  0  0  0  0
 60 61  1  0  0  0  0
 59 62  2  0  0  0  0
 62 63  1  0  0  0  0
 63 64  1  0  0  0  0
 62 65  1  0  0  0  0
 56 66  2  0  0  0  0
 66 67  1  0  0  0  0
 55 68  1  0  0  0  0
 68 69  2  0  0  0  0
 69 70  1  0  0  0  0
 69 71  1  0  0  0  0
 71 72  2  0  0  0  0
 72 73  1  0  0  0  0
 73 74  2  0  0  0  0
 74 75  1  0  0  0  0
 75 76  1  0  0  0  0
 76 77  1  0  0  0  0
 77 78  1  0  0  0  0
 78 79  1  0  0  0  0
 77 80  2  0  0  0  0
 80 81  1  0  0  0  0
 80 82  1  0  0  0  0
 82 83  1  0  0  0  0
 74 84  1  0  0  0  0
 84 85  2  0  0  0  0
 85 86  1  0  0  0  0
 86 87  1  0  0  0  0
 87 88  1  0  0  0  0
 88 89  1  0  0  0  0
 89 90  1  0  0  0  0
 90 91  1  0  0  0  0
 89 92  2  0  0  0  0
 92 93  1  0  0  0  0
 93 94  1  0  0  0  0
 92 95  1  0  0  0  0
 86 96  2  0  0  0  0
 96 97  1  0  0  0  0
 85 98  1  0  0  0  0
 98 99  2  0  0  0  0
 99100  1  0  0  0  0
 99101  1  0  0  0  0
101102  2  0  0  0  0
102103  1  0  0  0  0
103104  2  0  0  0  0
104105  1  0  0  0  0
105106  1  0  0  0  0
106107  1  0  0  0  0
107108  1  0  0  0  0
108109  1  0  0  0  0
107110  2  0  0  0  0
110111  1  0  0  0  0
110112  1  0  0  0  0
112113  1  0  0  0  0
104114  1  0  0  0  0
114115  2  0  0  0  0
115116  1  0  0  0  0
116117  1  0  0  0  0
117118  1  0  0  0  0
118119  1  0  0  0  0
119120  1  0  0  0  0
120121  1  0  0  0  0
119122  2  0  0  0  0
122123  1  0  0  0  0
123124  1  0  0  0  0
122125  1  0  0  0  0
116126  2  0  0  0  0
126127  1  0  0  0  0
115128  1  0  0  0  0
128129  2  0  0  0  0
129130  1  0  0  0  0
129131  1  0  0  0  0
131132  2  0  0  0  0
132133  1  0  0  0  0
133134  2  0  0  0  0
134135  1  0  0  0  0
135136  1  0  0  0  0
136137  1  0  0  0  0
137138  1  0  0  0  0
138139  1  0  0  0  0
137140  2  0  0  0  0
140141  1  0  0  0  0
140142  1  0  0  0  0
142143  1  0  0  0  0
134144  1  0  0  0  0
144145  2  0  0  0  0
145146  1  0  0  0  0
146147  1  0  0  0  0
147148  1  0  0  0  0
148149  1  0  0  0  0
149150  1  0  0  0  0
150151  1  0  0  0  0
149152  2  0  0  0  0
152153  1  0  0  0  0
153154  1  0  0  0  0
152155  1  0  0  0  0
146156  2  0  0  0  0
156157  1  0  0  0  0
145158  1  0  0  0  0
158159  2  0  0  0  0
159160  1  0  0  0  0
 27  1  1  0  0  0  0
 35 31  2  0  0  0  0
 67 41  1  0  0  0  0
 97 71  1  0  0  0  0
127101  1  0  0  0  0
157131  1  0  0  0  0
 26  3  1  0  0  0  0
 40 34  1  0  0  0  0
 66 43  1  0  0  0  0
 96 73  1  0  0  0  0
126103  1  0  0  0  0
156133  1  0  0  0  0
 12  5  2  0  0  0  0
 30 14  1  0  0  0  0
 52 45  2  0  0  0  0
 70 54  1  0  0  0  0
 82 75  2  0  0  0  0
100 84  1  0  0  0  0
112105  2  0  0  0  0
130114  1  0  0  0  0
142135  2  0  0  0  0
160144  1  0  0  0  0
 23 17  2  0  0  0  0
 63 57  2  0  0  0  0
 93 87  2  0  0  0  0
123117  2  0  0  0  0
153147  2  0  0  0  0
  1161  1  0  0  0  0
  2162  1  0  0  0  0
  8163  1  0  0  0  0
  8164  1  0  0  0  0
  9165  1  0  0  0  0
  9166  1  0  0  0  0
  9167  1  0  0  0  0
 20168  1  0  0  0  0
 20169  1  0  0  0  0
 21170  1  0  0  0  0
 21171  1  0  0  0  0
 21172  1  0  0  0  0
 28173  1  0  0  0  0
 40174  1  0  0  0  0
 42175  1  0  0  0  0
 48176  1  0  0  0  0
 48177  1  0  0  0  0
 49178  1  0  0  0  0
 49179  1  0  0  0  0
 49180  1  0  0  0  0
 60181  1  0  0  0  0
 60182  1  0  0  0  0
 61183  1  0  0  0  0
 61184  1  0  0  0  0
 61185  1  0  0  0  0
 68186  1  0  0  0  0
 72187  1  0  0  0  0
 78188  1  0  0  0  0
 78189  1  0  0  0  0
 79190  1  0  0  0  0
 79191  1  0  0  0  0
 79192  1  0  0  0  0
 90193  1  0  0  0  0
 90194  1  0  0  0  0
 91195  1  0  0  0  0
 91196  1  0  0  0  0
 91197  1  0  0  0  0
 98198  1  0  0  0  0
102199  1  0  0  0  0
108200  1  0  0  0  0
108201  1  0  0  0  0
109202  1  0  0  0  0
109203  1  0  0  0  0
109204  1  0  0  0  0
120205  1  0  0  0  0
120206  1  0  0  0  0
121207  1  0  0  0  0
121208  1  0  0  0  0
121209  1  0  0  0  0
128210  1  0  0  0  0
132211  1  0  0  0  0
138212  1  0  0  0  0
138213  1  0  0  0  0
139214  1  0  0  0  0
139215  1  0  0  0  0
139216  1  0  0  0  0
150217  1  0  0  0  0
150218  1  0  0  0  0
151219  1  0  0  0  0
151220  1  0  0  0  0
151221  1  0  0  0  0
158222  1  0  0  0  0
159223  1  0  0  0  0
M  END
