
  xtb     03032222113D
 energy: -431.333380557033 gnorm: 0.000159782814 xtb: 6.4.1 (unknown)
256281  0     0  0            999 V2000
  -14.9733    1.3804    7.7122 C   0  0  0  0  0  0  0  0  0  0  0  0
  -14.5383    2.3567    6.8915 C   0  0  0  0  0  0  0  0  0  0  0  0
  -13.8486    1.8559    5.7464 C   0  0  0  0  0  0  0  0  0  0  0  0
  -13.2253    2.5865    4.7242 C   0  0  0  0  0  0  0  0  0  0  0  0
  -13.2837    4.0532    4.6821 C   0  0  0  0  0  0  0  0  0  0  0  0
  -14.5029    4.7248    4.7603 C   0  0  0  0  0  0  0  0  0  0  0  0
  -14.5480    6.1014    4.7280 C   0  0  0  0  0  0  0  0  0  0  0  0
  -13.3874    6.8664    4.6113 C   0  0  0  0  0  0  0  0  0  0  0  0
  -13.5985    8.6196    4.5419 S   0  0  0  0  0  0  0  0  0  0  0  0
  -12.1296    9.3095    5.3891 C   0  0  0  0  0  0  0  0  0  0  0  0
  -12.0094    8.8151    6.8165 C   0  0  0  0  0  0  0  0  0  0  0  0
  -12.1816    6.1805    4.5018 C   0  0  0  0  0  0  0  0  0  0  0  0
  -11.0143    6.8432    4.3517 F   0  0  0  0  0  0  0  0  0  0  0  0
  -12.1205    4.8021    4.5469 C   0  0  0  0  0  0  0  0  0  0  0  0
  -12.5519    1.8544    3.7570 C   0  0  0  0  0  0  0  0  0  0  0  0
  -12.4892    0.4390    3.7639 C   0  0  0  0  0  0  0  0  0  0  0  0
  -13.1004   -0.2929    4.7954 C   0  0  0  0  0  0  0  0  0  0  0  0
  -12.9857   -1.7542    4.8657 C   0  0  0  0  0  0  0  0  0  0  0  0
  -14.1007   -2.5601    5.0739 C   0  0  0  0  0  0  0  0  0  0  0  0
  -13.9865   -3.9347    5.1521 C   0  0  0  0  0  0  0  0  0  0  0  0
  -12.7510   -4.5562    5.0150 C   0  0  0  0  0  0  0  0  0  0  0  0
  -12.4643   -6.2920    5.1324 S   0  0  0  0  0  0  0  0  0  0  0  0
  -14.1064   -7.0363    4.8522 C   0  0  0  0  0  0  0  0  0  0  0  0
  -14.5891   -6.8385    3.4283 C   0  0  0  0  0  0  0  0  0  0  0  0
  -11.6403   -3.7366    4.8111 C   0  0  0  0  0  0  0  0  0  0  0  0
  -11.7385   -2.3659    4.7408 C   0  0  0  0  0  0  0  0  0  0  0  0
  -10.4221   -4.3038    4.6726 F   0  0  0  0  0  0  0  0  0  0  0  0
  -13.7794    0.4417    5.7575 C   0  0  0  0  0  0  0  0  0  0  0  0
  -14.5812   -0.2136    7.1629 S   0  0  0  0  0  0  0  0  0  0  0  0
  -11.7818   -0.0616    2.6428 C   0  0  0  0  0  0  0  0  0  0  0  0
  -11.2933    0.9134    1.8221 C   0  0  0  0  0  0  0  0  0  0  0  0
  -11.7128    2.5184    2.3797 S   0  0  0  0  0  0  0  0  0  0  0  0
  -10.4553    0.7245    0.6803 C   0  0  0  0  0  0  0  0  0  0  0  0
  -10.0141   -0.4680    0.1835 C   0  0  0  0  0  0  0  0  0  0  0  0
   -9.0757   -0.3354   -0.8679 C   0  0  0  0  0  0  0  0  0  0  0  0
   -8.3820   -1.3579   -1.5386 C   0  0  0  0  0  0  0  0  0  0  0  0
   -8.5029   -2.7696   -1.1591 C   0  0  0  0  0  0  0  0  0  0  0  0
   -8.4117   -3.1615    0.1746 C   0  0  0  0  0  0  0  0  0  0  0  0
   -8.4734   -4.4921    0.5383 C   0  0  0  0  0  0  0  0  0  0  0  0
   -8.6273   -5.4861   -0.4223 C   0  0  0  0  0  0  0  0  0  0  0  0
   -8.6966   -7.2147   -0.0968 S   0  0  0  0  0  0  0  0  0  0  0  0
   -9.0480   -7.3119    1.6927 C   0  0  0  0  0  0  0  0  0  0  0  0
  -10.4442   -6.8306    2.0331 C   0  0  0  0  0  0  0  0  0  0  0  0
   -8.6978   -5.0811   -1.7565 C   0  0  0  0  0  0  0  0  0  0  0  0
   -8.8274   -6.0191   -2.7183 F   0  0  0  0  0  0  0  0  0  0  0  0
   -8.6417   -3.7584   -2.1320 C   0  0  0  0  0  0  0  0  0  0  0  0
   -7.4872   -0.9561   -2.5184 C   0  0  0  0  0  0  0  0  0  0  0  0
   -7.2544    0.4015   -2.8464 C   0  0  0  0  0  0  0  0  0  0  0  0
   -7.9594    1.4212   -2.1863 C   0  0  0  0  0  0  0  0  0  0  0  0
   -7.6852    2.8243   -2.5233 C   0  0  0  0  0  0  0  0  0  0  0  0
   -7.7663    3.2535   -3.8470 C   0  0  0  0  0  0  0  0  0  0  0  0
   -7.4129    4.5418   -4.1903 C   0  0  0  0  0  0  0  0  0  0  0  0
   -6.9579    5.4371   -3.2290 C   0  0  0  0  0  0  0  0  0  0  0  0
   -6.4524    7.0624   -3.7355 S   0  0  0  0  0  0  0  0  0  0  0  0
   -4.7251    7.0783   -3.1219 C   0  0  0  0  0  0  0  0  0  0  0  0
   -3.8809    6.0211   -3.8055 C   0  0  0  0  0  0  0  0  0  0  0  0
   -6.9312    5.0132   -1.9047 C   0  0  0  0  0  0  0  0  0  0  0  0
   -7.2839    3.7275   -1.5453 C   0  0  0  0  0  0  0  0  0  0  0  0
   -6.5302    5.8540   -0.9303 F   0  0  0  0  0  0  0  0  0  0  0  0
   -8.8421    1.0254   -1.1950 C   0  0  0  0  0  0  0  0  0  0  0  0
   -9.7749    2.0909   -0.1779 S   0  0  0  0  0  0  0  0  0  0  0  0
   -6.1631    0.5516   -3.7395 C   0  0  0  0  0  0  0  0  0  0  0  0
   -5.5710   -0.6277   -4.0772 C   0  0  0  0  0  0  0  0  0  0  0  0
   -6.3876   -2.0097   -3.3689 S   0  0  0  0  0  0  0  0  0  0  0  0
   -4.3228   -0.8216   -4.7358 C   0  0  0  0  0  0  0  0  0  0  0  0
   -3.6597   -2.0019   -4.8874 C   0  0  0  0  0  0  0  0  0  0  0  0
   -2.3126   -1.8497   -5.2966 C   0  0  0  0  0  0  0  0  0  0  0  0
   -1.3389   -2.8554   -5.4158 C   0  0  0  0  0  0  0  0  0  0  0  0
   -1.6834   -4.2538   -5.1276 C   0  0  0  0  0  0  0  0  0  0  0  0
   -1.4424   -5.2719   -6.0463 C   0  0  0  0  0  0  0  0  0  0  0  0
   -1.8726   -6.5575   -5.7922 C   0  0  0  0  0  0  0  0  0  0  0  0
   -2.5297   -6.8848   -4.6070 C   0  0  0  0  0  0  0  0  0  0  0  0
   -3.0719   -8.5542   -4.4022 S   0  0  0  0  0  0  0  0  0  0  0  0
   -4.6743   -8.4034   -3.5229 C   0  0  0  0  0  0  0  0  0  0  0  0
   -5.6574   -7.5130   -4.2545 C   0  0  0  0  0  0  0  0  0  0  0  0
   -2.6809   -5.8744   -3.6615 C   0  0  0  0  0  0  0  0  0  0  0  0
   -3.2243   -6.1283   -2.4506 F   0  0  0  0  0  0  0  0  0  0  0  0
   -2.2891   -4.5772   -3.9172 C   0  0  0  0  0  0  0  0  0  0  0  0
   -0.0546   -2.4416   -5.7241 C   0  0  0  0  0  0  0  0  0  0  0  0
    0.2836   -1.0804   -5.9302 C   0  0  0  0  0  0  0  0  0  0  0  0
   -0.6979   -0.0762   -5.8508 C   0  0  0  0  0  0  0  0  0  0  0  0
   -0.3409    1.3341   -6.0441 C   0  0  0  0  0  0  0  0  0  0  0  0
    0.4003    1.7376   -7.1553 C   0  0  0  0  0  0  0  0  0  0  0  0
    0.7479    3.0592   -7.3258 C   0  0  0  0  0  0  0  0  0  0  0  0
    0.3853    4.0347   -6.3957 C   0  0  0  0  0  0  0  0  0  0  0  0
    0.9405    5.6765   -6.7178 S   0  0  0  0  0  0  0  0  0  0  0  0
   -0.2829    6.7604   -5.8799 C   0  0  0  0  0  0  0  0  0  0  0  0
   -0.2081    8.1447   -6.4934 C   0  0  0  0  0  0  0  0  0  0  0  0
   -0.3385    3.6152   -5.2843 C   0  0  0  0  0  0  0  0  0  0  0  0
   -0.7093    2.2971   -5.1113 C   0  0  0  0  0  0  0  0  0  0  0  0
   -0.6986    4.4873   -4.3144 F   0  0  0  0  0  0  0  0  0  0  0  0
   -1.9748   -0.4894   -5.5071 C   0  0  0  0  0  0  0  0  0  0  0  0
   -3.3417    0.5547   -5.2045 S   0  0  0  0  0  0  0  0  0  0  0  0
    1.6834   -0.8944   -6.0115 C   0  0  0  0  0  0  0  0  0  0  0  0
    2.4029   -2.0453   -5.8560 C   0  0  0  0  0  0  0  0  0  0  0  0
    1.3685   -3.4526   -5.7062 S   0  0  0  0  0  0  0  0  0  0  0  0
    3.8061   -2.1149   -5.6014 C   0  0  0  0  0  0  0  0  0  0  0  0
    4.6465   -1.0433   -5.4982 C   0  0  0  0  0  0  0  0  0  0  0  0
    5.8892   -1.3483   -4.8966 C   0  0  0  0  0  0  0  0  0  0  0  0
    6.9018   -0.4463   -4.5250 C   0  0  0  0  0  0  0  0  0  0  0  0
    6.7715    0.9922   -4.7864 C   0  0  0  0  0  0  0  0  0  0  0  0
    7.7940    1.7079   -5.4069 C   0  0  0  0  0  0  0  0  0  0  0  0
    7.6367    3.0452   -5.6998 C   0  0  0  0  0  0  0  0  0  0  0  0
    6.4641    3.7293   -5.3776 C   0  0  0  0  0  0  0  0  0  0  0  0
    6.3785    5.4376   -5.8066 S   0  0  0  0  0  0  0  0  0  0  0  0
    4.5935    5.7279   -6.1388 C   0  0  0  0  0  0  0  0  0  0  0  0
    4.4580    6.9256   -7.0573 C   0  0  0  0  0  0  0  0  0  0  0  0
    5.4760    3.0160   -4.7052 C   0  0  0  0  0  0  0  0  0  0  0  0
    4.3339    3.6181   -4.2986 F   0  0  0  0  0  0  0  0  0  0  0  0
    5.6146    1.6734   -4.4200 C   0  0  0  0  0  0  0  0  0  0  0  0
    7.9828   -0.9791   -3.8447 C   0  0  0  0  0  0  0  0  0  0  0  0
    8.1157   -2.3618   -3.5588 C   0  0  0  0  0  0  0  0  0  0  0  0
    7.1296   -3.2716   -3.9843 C   0  0  0  0  0  0  0  0  0  0  0  0
    7.2804   -4.7122   -3.7543 C   0  0  0  0  0  0  0  0  0  0  0  0
    6.2546   -5.4805   -3.2120 C   0  0  0  0  0  0  0  0  0  0  0  0
    6.4019   -6.8411   -3.0251 C   0  0  0  0  0  0  0  0  0  0  0  0
    7.5787   -7.4877   -3.3845 C   0  0  0  0  0  0  0  0  0  0  0  0
    7.8902   -9.2119   -3.1933 S   0  0  0  0  0  0  0  0  0  0  0  0
    6.2232   -9.9452   -3.0577 C   0  0  0  0  0  0  0  0  0  0  0  0
    5.4345   -9.8243   -4.3473 C   0  0  0  0  0  0  0  0  0  0  0  0
    8.6061   -6.7030   -3.9111 C   0  0  0  0  0  0  0  0  0  0  0  0
    8.4748   -5.3458   -4.0969 C   0  0  0  0  0  0  0  0  0  0  0  0
    9.7704   -7.2904   -4.2569 F   0  0  0  0  0  0  0  0  0  0  0  0
    6.0130   -2.7295   -4.6036 C   0  0  0  0  0  0  0  0  0  0  0  0
    4.5747   -3.5999   -5.0790 S   0  0  0  0  0  0  0  0  0  0  0  0
    9.2170   -2.6192   -2.7067 C   0  0  0  0  0  0  0  0  0  0  0  0
    9.8958   -1.4934   -2.3287 C   0  0  0  0  0  0  0  0  0  0  0  0
    9.2526   -0.0509   -3.0928 S   0  0  0  0  0  0  0  0  0  0  0  0
   10.9171   -1.3857   -1.3447 C   0  0  0  0  0  0  0  0  0  0  0  0
   11.3739    0.1916   -0.7300 S   0  0  0  0  0  0  0  0  0  0  0  0
   12.3555   -0.5521    0.4622 C   0  0  0  0  0  0  0  0  0  0  0  0
   13.1120   -0.1688    1.5936 C   0  0  0  0  0  0  0  0  0  0  0  0
   13.5965   -1.3106    2.2277 C   0  0  0  0  0  0  0  0  0  0  0  0
   13.2133   -2.5511    1.4536 C   0  0  0  0  0  0  0  0  0  0  0  0
   14.4388   -3.2059    0.7790 C   0  0  0  0  0  0  0  0  0  0  0  0
   15.5078   -3.7057    1.7413 C   0  0  0  0  0  0  0  0  0  0  0  0
   12.4331   -3.5536    2.3163 C   0  0  0  0  0  0  0  0  0  0  0  0
   11.1490   -2.9627    2.8867 C   0  0  0  0  0  0  0  0  0  0  0  0
   12.3530   -1.9418    0.3686 C   0  0  0  0  0  0  0  0  0  0  0  0
   11.5443   -2.4123   -0.6588 C   0  0  0  0  0  0  0  0  0  0  0  0
   14.2385   -1.0245    3.4283 C   0  0  0  0  0  0  0  0  0  0  0  0
   14.2570    0.3323    3.7086 C   0  0  0  0  0  0  0  0  0  0  0  0
   13.4760    1.2717    2.4526 S   0  0  0  0  0  0  0  0  0  0  0  0
   14.7671    0.9706    4.8703 C   0  0  0  0  0  0  0  0  0  0  0  0
   14.7477    2.7195    5.0023 S   0  0  0  0  0  0  0  0  0  0  0  0
   15.4003    2.6150    6.5848 C   0  0  0  0  0  0  0  0  0  0  0  0
   15.7644    3.4862    7.6444 C   0  0  0  0  0  0  0  0  0  0  0  0
   16.2151    2.7339    8.7192 C   0  0  0  0  0  0  0  0  0  0  0  0
   16.1952    1.2601    8.3855 C   0  0  0  0  0  0  0  0  0  0  0  0
   17.6159    0.6624    8.2996 C   0  0  0  0  0  0  0  0  0  0  0  0
   18.4135    0.7061    9.5959 C   0  0  0  0  0  0  0  0  0  0  0  0
   15.2999    0.4652    9.3489 C   0  0  0  0  0  0  0  0  0  0  0  0
   13.8555    0.9525    9.3463 C   0  0  0  0  0  0  0  0  0  0  0  0
   15.6204    1.3034    6.9864 C   0  0  0  0  0  0  0  0  0  0  0  0
   15.2706    0.3724    6.0129 C   0  0  0  0  0  0  0  0  0  0  0  0
   16.5322    3.5327    9.8285 C   0  0  0  0  0  0  0  0  0  0  0  0
   16.3368    4.8581    9.5706 C   0  0  0  0  0  0  0  0  0  0  0  0
   15.7515    5.1715    7.9748 S   0  0  0  0  0  0  0  0  0  0  0  0
  -15.5139    1.4840    8.6326 H   0  0  0  0  0  0  0  0  0  0  0  0
  -14.6769    3.4049    7.0846 H   0  0  0  0  0  0  0  0  0  0  0  0
  -15.4197    4.1598    4.8330 H   0  0  0  0  0  0  0  0  0  0  0  0
  -15.4929    6.6186    4.7911 H   0  0  0  0  0  0  0  0  0  0  0  0
  -12.3125   10.3839    5.3603 H   0  0  0  0  0  0  0  0  0  0  0  0
  -11.2419    9.0857    4.8021 H   0  0  0  0  0  0  0  0  0  0  0  0
  -11.8269    7.7426    6.8427 H   0  0  0  0  0  0  0  0  0  0  0  0
  -12.9213    9.0249    7.3718 H   0  0  0  0  0  0  0  0  0  0  0  0
  -11.1772    9.3156    7.3074 H   0  0  0  0  0  0  0  0  0  0  0  0
  -11.1541    4.3272    4.4801 H   0  0  0  0  0  0  0  0  0  0  0  0
  -15.0765   -2.1085    5.1643 H   0  0  0  0  0  0  0  0  0  0  0  0
  -14.8743   -4.5201    5.3276 H   0  0  0  0  0  0  0  0  0  0  0  0
  -13.9449   -8.0930    5.0653 H   0  0  0  0  0  0  0  0  0  0  0  0
  -14.8024   -6.6375    5.5890 H   0  0  0  0  0  0  0  0  0  0  0  0
  -13.8778   -7.2695    2.7278 H   0  0  0  0  0  0  0  0  0  0  0  0
  -14.7006   -5.7812    3.1967 H   0  0  0  0  0  0  0  0  0  0  0  0
  -15.5518   -7.3273    3.2931 H   0  0  0  0  0  0  0  0  0  0  0  0
  -10.8415   -1.7804    4.6130 H   0  0  0  0  0  0  0  0  0  0  0  0
  -11.6503   -1.1102    2.4517 H   0  0  0  0  0  0  0  0  0  0  0  0
  -10.3479   -1.4189    0.5545 H   0  0  0  0  0  0  0  0  0  0  0  0
   -8.2529   -2.4164    0.9394 H   0  0  0  0  0  0  0  0  0  0  0  0
   -8.3845   -4.7490    1.5813 H   0  0  0  0  0  0  0  0  0  0  0  0
   -8.9380   -8.3732    1.9152 H   0  0  0  0  0  0  0  0  0  0  0  0
   -8.2770   -6.7642    2.2322 H   0  0  0  0  0  0  0  0  0  0  0  0
  -11.1857   -7.4292    1.5084 H   0  0  0  0  0  0  0  0  0  0  0  0
  -10.6113   -6.9178    3.1044 H   0  0  0  0  0  0  0  0  0  0  0  0
  -10.5791   -5.7892    1.7486 H   0  0  0  0  0  0  0  0  0  0  0  0
   -8.7239   -3.5076   -3.1777 H   0  0  0  0  0  0  0  0  0  0  0  0
   -8.1052    2.5671   -4.6083 H   0  0  0  0  0  0  0  0  0  0  0  0
   -7.4650    4.8709   -5.2164 H   0  0  0  0  0  0  0  0  0  0  0  0
   -4.3722    8.0814   -3.3592 H   0  0  0  0  0  0  0  0  0  0  0  0
   -4.7399    6.9536   -2.0413 H   0  0  0  0  0  0  0  0  0  0  0  0
   -3.9079    6.1543   -4.8852 H   0  0  0  0  0  0  0  0  0  0  0  0
   -4.2483    5.0224   -3.5742 H   0  0  0  0  0  0  0  0  0  0  0  0
   -2.8486    6.0921   -3.4692 H   0  0  0  0  0  0  0  0  0  0  0  0
   -7.2206    3.4372   -0.5082 H   0  0  0  0  0  0  0  0  0  0  0  0
   -5.7873    1.5045   -4.0676 H   0  0  0  0  0  0  0  0  0  0  0  0
   -4.1180   -2.9507   -4.6741 H   0  0  0  0  0  0  0  0  0  0  0  0
   -0.9509   -5.0437   -6.9796 H   0  0  0  0  0  0  0  0  0  0  0  0
   -1.7187   -7.3381   -6.5208 H   0  0  0  0  0  0  0  0  0  0  0  0
   -4.4898   -8.0587   -2.5079 H   0  0  0  0  0  0  0  0  0  0  0  0
   -5.0298   -9.4332   -3.4880 H   0  0  0  0  0  0  0  0  0  0  0  0
   -5.8086   -7.8640   -5.2732 H   0  0  0  0  0  0  0  0  0  0  0  0
   -5.3016   -6.4850   -4.2923 H   0  0  0  0  0  0  0  0  0  0  0  0
   -6.6133   -7.5222   -3.7350 H   0  0  0  0  0  0  0  0  0  0  0  0
   -2.4369   -3.8305   -3.1521 H   0  0  0  0  0  0  0  0  0  0  0  0
    0.6818    1.0095   -7.9009 H   0  0  0  0  0  0  0  0  0  0  0  0
    1.3121    3.3678   -8.1925 H   0  0  0  0  0  0  0  0  0  0  0  0
   -1.2650    6.3151   -6.0309 H   0  0  0  0  0  0  0  0  0  0  0  0
   -0.0467    6.7883   -4.8174 H   0  0  0  0  0  0  0  0  0  0  0  0
   -0.9360    8.7964   -6.0150 H   0  0  0  0  0  0  0  0  0  0  0  0
    0.7832    8.5709   -6.3565 H   0  0  0  0  0  0  0  0  0  0  0  0
   -0.4220    8.1035   -7.5591 H   0  0  0  0  0  0  0  0  0  0  0  0
   -1.2550    2.0323   -4.2196 H   0  0  0  0  0  0  0  0  0  0  0  0
    2.1356    0.0758   -6.0990 H   0  0  0  0  0  0  0  0  0  0  0  0
    4.3745   -0.0535   -5.8123 H   0  0  0  0  0  0  0  0  0  0  0  0
    8.7051    1.2024   -5.6875 H   0  0  0  0  0  0  0  0  0  0  0  0
    8.4227    3.5905   -6.1982 H   0  0  0  0  0  0  0  0  0  0  0  0
    4.1981    4.8288   -6.6085 H   0  0  0  0  0  0  0  0  0  0  0  0
    4.0868    5.8997   -5.1909 H   0  0  0  0  0  0  0  0  0  0  0  0
    3.4064    7.0907   -7.2804 H   0  0  0  0  0  0  0  0  0  0  0  0
    4.8644    7.8173   -6.5857 H   0  0  0  0  0  0  0  0  0  0  0  0
    4.9915    6.7545   -7.9894 H   0  0  0  0  0  0  0  0  0  0  0  0
    4.8246    1.1772   -3.8773 H   0  0  0  0  0  0  0  0  0  0  0  0
    5.3340   -5.0078   -2.9074 H   0  0  0  0  0  0  0  0  0  0  0  0
    5.5883   -7.3954   -2.5863 H   0  0  0  0  0  0  0  0  0  0  0  0
    6.4266  -10.9900   -2.8225 H   0  0  0  0  0  0  0  0  0  0  0  0
    5.7081   -9.4941   -2.2106 H   0  0  0  0  0  0  0  0  0  0  0  0
    5.2676   -8.7812   -4.6079 H   0  0  0  0  0  0  0  0  0  0  0  0
    5.9743  -10.2999   -5.1629 H   0  0  0  0  0  0  0  0  0  0  0  0
    4.4684  -10.3130   -4.2368 H   0  0  0  0  0  0  0  0  0  0  0  0
    9.2919   -4.7926   -4.5332 H   0  0  0  0  0  0  0  0  0  0  0  0
    9.4478   -3.5973   -2.3271 H   0  0  0  0  0  0  0  0  0  0  0  0
   14.8854   -2.4683    0.1077 H   0  0  0  0  0  0  0  0  0  0  0  0
   14.0809   -4.0373    0.1678 H   0  0  0  0  0  0  0  0  0  0  0  0
   15.1177   -4.4750    2.4024 H   0  0  0  0  0  0  0  0  0  0  0  0
   15.8969   -2.8880    2.3417 H   0  0  0  0  0  0  0  0  0  0  0  0
   16.3322   -4.1340    1.1755 H   0  0  0  0  0  0  0  0  0  0  0  0
   13.0698   -3.8793    3.1397 H   0  0  0  0  0  0  0  0  0  0  0  0
   12.1929   -4.4261    1.7051 H   0  0  0  0  0  0  0  0  0  0  0  0
   10.6412   -3.6993    3.5051 H   0  0  0  0  0  0  0  0  0  0  0  0
   11.3677   -2.0910    3.4994 H   0  0  0  0  0  0  0  0  0  0  0  0
   10.4746   -2.6603    2.0890 H   0  0  0  0  0  0  0  0  0  0  0  0
   11.3912   -3.4490   -0.8966 H   0  0  0  0  0  0  0  0  0  0  0  0
   14.6594   -1.7566    4.0925 H   0  0  0  0  0  0  0  0  0  0  0  0
   17.5229   -0.3736    7.9655 H   0  0  0  0  0  0  0  0  0  0  0  0
   18.1640    1.2110    7.5295 H   0  0  0  0  0  0  0  0  0  0  0  0
   19.3929    0.2613    9.4336 H   0  0  0  0  0  0  0  0  0  0  0  0
   18.5578    1.7314    9.9244 H   0  0  0  0  0  0  0  0  0  0  0  0
   17.9173    0.1489   10.3861 H   0  0  0  0  0  0  0  0  0  0  0  0
   15.7023    0.5552   10.3586 H   0  0  0  0  0  0  0  0  0  0  0  0
   15.3292   -0.5884    9.0622 H   0  0  0  0  0  0  0  0  0  0  0  0
   13.8047    2.0010    9.6306 H   0  0  0  0  0  0  0  0  0  0  0  0
   13.4124    0.8435    8.3592 H   0  0  0  0  0  0  0  0  0  0  0  0
   13.2651    0.3752   10.0541 H   0  0  0  0  0  0  0  0  0  0  0  0
   15.3542   -0.6930    6.1247 H   0  0  0  0  0  0  0  0  0  0  0  0
   16.8739    3.1668   10.7799 H   0  0  0  0  0  0  0  0  0  0  0  0
   16.5000    5.6877   10.2295 H   0  0  0  0  0  0  0  0  0  0  0  0
  1  2  2  0  0  0  0
  2  3  1  0  0  0  0
  3  4  2  0  0  0  0
  4  5  1  0  0  0  0
  5  6  2  0  0  0  0
  6  7  1  0  0  0  0
  7  8  2  0  0  0  0
  8  9  1  0  0  0  0
  9 10  1  0  0  0  0
 10 11  1  0  0  0  0
  8 12  1  0  0  0  0
 12 13  1  0  0  0  0
 12 14  2  0  0  0  0
  4 15  1  0  0  0  0
 15 16  2  0  0  0  0
 16 17  1  0  0  0  0
 17 18  1  0  0  0  0
 18 19  2  0  0  0  0
 19 20  1  0  0  0  0
 20 21  2  0  0  0  0
 21 22  1  0  0  0  0
 22 23  1  0  0  0  0
 23 24  1  0  0  0  0
 21 25  1  0  0  0  0
 25 26  2  0  0  0  0
 25 27  1  0  0  0  0
 17 28  2  0  0  0  0
 28 29  1  0  0  0  0
 16 30  1  0  0  0  0
 30 31  2  0  0  0  0
 31 32  1  0  0  0  0
 31 33  1  0  0  0  0
 33 34  2  0  0  0  0
 34 35  1  0  0  0  0
 35 36  2  0  0  0  0
 36 37  1  0  0  0  0
 37 38  2  0  0  0  0
 38 39  1  0  0  0  0
 39 40  2  0  0  0  0
 40 41  1  0  0  0  0
 41 42  1  0  0  0  0
 42 43  1  0  0  0  0
 40 44  1  0  0  0  0
 44 45  1  0  0  0  0
 44 46  2  0  0  0  0
 36 47  1  0  0  0  0
 47 48  2  0  0  0  0
 48 49  1  0  0  0  0
 49 50  1  0  0  0  0
 50 51  2  0  0  0  0
 51 52  1  0  0  0  0
 52 53  2  0  0  0  0
 53 54  1  0  0  0  0
 54 55  1  0  0  0  0
 55 56  1  0  0  0  0
 53 57  1  0  0  0  0
 57 58  2  0  0  0  0
 57 59  1  0  0  0  0
 49 60  2  0  0  0  0
 60 61  1  0  0  0  0
 48 62  1  0  0  0  0
 62 63  2  0  0  0  0
 63 64  1  0  0  0  0
 63 65  1  0  0  0  0
 65 66  2  0  0  0  0
 66 67  1  0  0  0  0
 67 68  2  0  0  0  0
 68 69  1  0  0  0  0
 69 70  2  0  0  0  0
 70 71  1  0  0  0  0
 71 72  2  0  0  0  0
 72 73  1  0  0  0  0
 73 74  1  0  0  0  0
 74 75  1  0  0  0  0
 72 76  1  0  0  0  0
 76 77  1  0  0  0  0
 76 78  2  0  0  0  0
 68 79  1  0  0  0  0
 79 80  2  0  0  0  0
 80 81  1  0  0  0  0
 81 82  1  0  0  0  0
 82 83  2  0  0  0  0
 83 84  1  0  0  0  0
 84 85  2  0  0  0  0
 85 86  1  0  0  0  0
 86 87  1  0  0  0  0
 87 88  1  0  0  0  0
 85 89  1  0  0  0  0
 89 90  2  0  0  0  0
 89 91  1  0  0  0  0
 81 92  2  0  0  0  0
 92 93  1  0  0  0  0
 80 94  1  0  0  0  0
 94 95  2  0  0  0  0
 95 96  1  0  0  0  0
 95 97  1  0  0  0  0
 97 98  2  0  0  0  0
 98 99  1  0  0  0  0
 99100  2  0  0  0  0
100101  1  0  0  0  0
101102  2  0  0  0  0
102103  1  0  0  0  0
103104  2  0  0  0  0
104105  1  0  0  0  0
105106  1  0  0  0  0
106107  1  0  0  0  0
104108  1  0  0  0  0
108109  1  0  0  0  0
108110  2  0  0  0  0
100111  1  0  0  0  0
111112  2  0  0  0  0
112113  1  0  0  0  0
113114  1  0  0  0  0
114115  2  0  0  0  0
115116  1  0  0  0  0
116117  2  0  0  0  0
117118  1  0  0  0  0
118119  1  0  0  0  0
119120  1  0  0  0  0
117121  1  0  0  0  0
121122  2  0  0  0  0
121123  1  0  0  0  0
113124  2  0  0  0  0
124125  1  0  0  0  0
112126  1  0  0  0  0
126127  2  0  0  0  0
127128  1  0  0  0  0
127129  1  0  0  0  0
129130  1  0  0  0  0
130131  1  0  0  0  0
131132  1  0  0  0  0
132133  2  0  0  0  0
133134  1  0  0  0  0
134135  1  0  0  0  0
135136  1  0  0  0  0
134137  1  0  0  0  0
137138  1  0  0  0  0
134139  1  0  0  0  0
139140  1  0  0  0  0
133141  1  0  0  0  0
141142  2  0  0  0  0
142143  1  0  0  0  0
142144  1  0  0  0  0
144145  1  0  0  0  0
145146  1  0  0  0  0
146147  1  0  0  0  0
147148  2  0  0  0  0
148149  1  0  0  0  0
149150  1  0  0  0  0
150151  1  0  0  0  0
149152  1  0  0  0  0
152153  1  0  0  0  0
149154  1  0  0  0  0
154155  1  0  0  0  0
148156  1  0  0  0  0
156157  2  0  0  0  0
157158  1  0  0  0  0
 29  1  1  0  0  0  0
 61 33  1  0  0  0  0
 93 65  1  0  0  0  0
125 97  1  0  0  0  0
140129  2  0  0  0  0
155144  2  0  0  0  0
 28  3  1  0  0  0  0
 60 35  1  0  0  0  0
 92 67  1  0  0  0  0
124 99  1  0  0  0  0
139131  2  0  0  0  0
154146  2  0  0  0  0
 14  5  1  0  0  0  0
 32 15  1  0  0  0  0
 46 37  1  0  0  0  0
 64 47  1  0  0  0  0
 78 69  1  0  0  0  0
 96 79  1  0  0  0  0
110101  1  0  0  0  0
128111  1  0  0  0  0
143132  1  0  0  0  0
158147  1  0  0  0  0
 26 18  1  0  0  0  0
 58 50  1  0  0  0  0
 90 82  1  0  0  0  0
122114  1  0  0  0  0
  1159  1  0  0  0  0
  2160  1  0  0  0  0
  6161  1  0  0  0  0
  7162  1  0  0  0  0
 10163  1  0  0  0  0
 10164  1  0  0  0  0
 11165  1  0  0  0  0
 11166  1  0  0  0  0
 11167  1  0  0  0  0
 14168  1  0  0  0  0
 19169  1  0  0  0  0
 20170  1  0  0  0  0
 23171  1  0  0  0  0
 23172  1  0  0  0  0
 24173  1  0  0  0  0
 24174  1  0  0  0  0
 24175  1  0  0  0  0
 26176  1  0  0  0  0
 30177  1  0  0  0  0
 34178  1  0  0  0  0
 38179  1  0  0  0  0
 39180  1  0  0  0  0
 42181  1  0  0  0  0
 42182  1  0  0  0  0
 43183  1  0  0  0  0
 43184  1  0  0  0  0
 43185  1  0  0  0  0
 46186  1  0  0  0  0
 51187  1  0  0  0  0
 52188  1  0  0  0  0
 55189  1  0  0  0  0
 55190  1  0  0  0  0
 56191  1  0  0  0  0
 56192  1  0  0  0  0
 56193  1  0  0  0  0
 58194  1  0  0  0  0
 62195  1  0  0  0  0
 66196  1  0  0  0  0
 70197  1  0  0  0  0
 71198  1  0  0  0  0
 74199  1  0  0  0  0
 74200  1  0  0  0  0
 75201  1  0  0  0  0
 75202  1  0  0  0  0
 75203  1  0  0  0  0
 78204  1  0  0  0  0
 83205  1  0  0  0  0
 84206  1  0  0  0  0
 87207  1  0  0  0  0
 87208  1  0  0  0  0
 88209  1  0  0  0  0
 88210  1  0  0  0  0
 88211  1  0  0  0  0
 90212  1  0  0  0  0
 94213  1  0  0  0  0
 98214  1  0  0  0  0
102215  1  0  0  0  0
103216  1  0  0  0  0
106217  1  0  0  0  0
106218  1  0  0  0  0
107219  1  0  0  0  0
107220  1  0  0  0  0
107221  1  0  0  0  0
110222  1  0  0  0  0
115223  1  0  0  0  0
116224  1  0  0  0  0
119225  1  0  0  0  0
119226  1  0  0  0  0
120227  1  0  0  0  0
120228  1  0  0  0  0
120229  1  0  0  0  0
122230  1  0  0  0  0
126231  1  0  0  0  0
135232  1  0  0  0  0
135233  1  0  0  0  0
136234  1  0  0  0  0
136235  1  0  0  0  0
136236  1  0  0  0  0
137237  1  0  0  0  0
137238  1  0  0  0  0
138239  1  0  0  0  0
138240  1  0  0  0  0
138241  1  0  0  0  0
140242  1  0  0  0  0
141243  1  0  0  0  0
150244  1  0  0  0  0
150245  1  0  0  0  0
151246  1  0  0  0  0
151247  1  0  0  0  0
151248  1  0  0  0  0
152249  1  0  0  0  0
152250  1  0  0  0  0
153251  1  0  0  0  0
153252  1  0  0  0  0
153253  1  0  0  0  0
155254  1  0  0  0  0
156255  1  0  0  0  0
157256  1  0  0  0  0
M  END
