256

C          7.71890        1.61040        6.63900
S          6.02420        1.49580        6.31930
C          6.35120        0.41730        5.02350
C          5.62260       -0.29850        4.04090
C          6.51420       -1.00290        3.24010
C          7.94040       -0.73970        3.66860
C          8.70890        0.07400        2.60550
C          8.89060       -0.62420        1.26430
C          8.60430       -2.08050        4.02600
C          9.98380       -1.96970        4.65890
C          7.70470        0.16340        4.86120
C          8.48560        0.86720        5.79120
C          5.86950       -1.80010        2.29780
C          4.49660       -1.67970        2.36160
S          3.98530       -0.56580        3.61270
C          3.52590       -2.29710        1.53290
C          2.18040       -2.07240        1.52810
C          1.48880       -2.76360        0.50670
C          0.13030       -2.64700        0.16350
C         -0.77670       -1.86330        1.01140
C         -1.62100       -0.88460        0.49280
C         -2.48330       -0.19040        1.31690
C         -2.53200       -0.44080        2.68460
S         -3.68520        0.46230        3.68410
C         -4.50220       -0.86220        4.64450
C         -5.23010       -1.83990        3.74460
C         -1.64550       -1.38090        3.19840
F         -1.59840       -1.62820        4.52720
C         -0.79390       -2.09630        2.38440
C         -0.27360       -3.29320       -0.99510
C          0.60740       -4.07190       -1.78740
C          1.96220       -4.19780       -1.43740
C          2.91880       -4.88660       -2.31140
C          2.98660       -4.57140       -3.66700
C          3.90080       -5.18450       -4.50220
C          4.78780       -6.13400       -4.00740
S          5.98910       -7.01230       -4.94920
C          5.91520       -6.24550       -6.60330
C          6.57790       -4.88220       -6.65020
C          4.71440       -6.43240       -2.64470
C          3.80920       -5.82880       -1.80180
F          5.55860       -7.35180       -2.13380
C          2.36630       -3.54510       -0.28570
S          4.00590       -3.44680        0.30130
C         -0.03000       -4.59390       -2.93750
C         -1.32790       -4.19620       -3.07820
S         -1.86860       -3.24090       -1.70620
C         -2.07430       -4.20570       -4.29780
C         -1.51510       -4.32930       -5.53840
C         -2.30430       -3.77320       -6.57340
C         -1.81670       -3.40540       -7.84280
C         -0.50330       -3.90900       -8.27220
C         -0.28500       -5.28080       -8.36090
C          0.95540       -5.78920       -8.69570
C          2.02430       -4.93710       -8.94510
S          3.67020       -5.45000       -9.32580
C          3.48410       -7.17970       -9.87890
C          2.75670       -7.28120      -11.20540
C          1.79390       -3.56460       -8.84210
F          2.82090       -2.71600       -9.04730
C          0.56020       -3.04480       -8.51890
C         -2.53110       -2.42460       -8.50240
C         -3.79090       -1.95980       -8.04580
C         -4.35810       -2.45580       -6.85600
C         -5.65610       -1.93870       -6.40640
C         -5.83950       -1.36980       -5.14720
C         -7.06220       -0.84930       -4.78590
C         -8.15920       -0.88420       -5.64860
S         -9.66480       -0.21070       -5.02420
C        -10.63210        0.26580       -6.51190
C        -11.70760        1.24930       -6.09340
C         -7.96720       -1.47670       -6.89330
C         -6.73980       -1.97630       -7.27860
F         -8.98230       -1.58860       -7.78250
C         -3.54140       -3.27860       -6.09380
S         -3.72170       -3.61310       -4.38540
C         -4.13350       -0.70950       -8.62160
C         -3.12740       -0.17000       -9.37860
S         -1.88990       -1.36660       -9.74620
C         -2.77890        1.21900       -9.26890
S         -1.14230        1.46580       -8.64060
C         -1.69930        2.80290       -7.72300
C         -1.32520        3.39930       -6.49550
C         -2.39690        4.14330       -6.00920
C         -3.52940        4.15800       -7.01320
C         -3.72110        5.54970       -7.64550
C         -2.45700        6.08900       -8.30240
C         -4.85190        3.69450       -6.37570
C         -4.76310        2.33090       -5.69850
C         -3.01660        3.14490       -8.01510
C         -3.62000        2.25500       -8.90510
C         -2.26160        4.45420       -4.65930
C         -1.11690        3.91110       -4.10300
S         -0.12650        3.09730       -5.30240
C         -0.83900        3.74130       -2.71820
C          0.10720        2.94380       -2.13770
C         -0.04500        2.80330       -0.73530
C          0.70800        2.01900        0.15460
C          1.87740        1.23150       -0.26240
C          3.10500        1.41510        0.37530
C          4.21180        0.69850       -0.01400
C          4.15450       -0.24870       -1.04070
S          5.69380       -1.04570       -1.37170
C          5.49290       -2.08770       -2.85720
C          5.42830       -1.27370       -4.13410
C          2.91480       -0.44840       -1.63800
F          2.73300       -1.36760       -2.61830
C          1.79910        0.28190       -1.27140
C          0.30340        2.02580        1.48000
C         -0.81060        2.75480        1.96290
C         -1.54230        3.56710        1.08090
C         -2.69150        4.36420        1.52790
C         -3.72670        3.78750        2.25610
C         -4.81370        4.53250        2.66950
C         -4.90810        5.88500        2.36360
S         -6.22210        6.95620        2.84410
C         -7.52550        5.82630        3.44370
C         -8.18420        5.05450        2.31610
C         -3.86060        6.45130        1.63460
C         -2.77170        5.72050        1.21680
F         -3.91070        7.76480        1.33010
C         -1.13480        3.56660       -0.24360
S         -1.94090        4.42220       -1.53280
C         -1.01670        2.54440        3.35010
C         -0.11990        1.68530        3.91040
S          1.05550        1.10320        2.75110
C         -0.07310        1.21940        5.25830
C          0.94140        0.56800        5.89430
C          0.63530        0.22200        7.23640
C          1.45990       -0.38880        8.19340
C          2.83760       -0.81630        7.91140
C          3.87810       -0.39820        8.73940
C          5.16120       -0.86020        8.54410
C          5.45440       -1.75620        7.52080
S          7.13470       -2.29100        7.35070
C          6.96380       -4.10530        7.16180
C          6.28880       -4.73380        8.36420
C          4.41670       -2.13370        6.67630
F          4.64540       -2.98040        5.64770
C          3.12480       -1.68180        6.86180
C          0.91280       -0.58300        9.45490
C         -0.41050       -0.21780        9.79820
C         -1.22860        0.40980        8.84980
C         -2.60520        0.82290        9.14930
C         -2.90990        1.60190       10.26060
C         -4.20630        2.00900       10.51420
C         -5.24510        1.65510        9.66080
S         -6.94020        2.09080        9.87100
C         -6.90750        3.44710       11.09270
C         -6.30900        4.71980       10.52430
C         -4.92530        0.86300        8.55720
C         -3.64040        0.44980        8.29440
F         -5.90900        0.48490        7.71250
C         -0.67830        0.61870        7.59330
S         -1.47600        1.43670        6.28030
C         -0.73660       -0.60910       11.13140
C          0.28450       -1.22100       11.76330
S          1.71160       -1.37010       10.79430
H          8.04600        2.23350        7.44750
H          8.16100        1.00680        2.44640
H          9.68460        0.33670        3.01730
H          9.45520       -1.54640        1.37090
H          9.43890        0.02950        0.58930
H          7.93050       -0.84910        0.80760
H          7.94160       -2.59830        4.72130
H          8.66080       -2.68260        3.11810
H         10.67360       -1.42560        4.01910
H          9.92140       -1.47050        5.62170
H         10.38900       -2.96640        4.82100
H          9.55840        0.84140        5.84720
H          6.34890       -2.44980        1.58800
H          1.71380       -1.38170        2.20500
H         -1.60430       -0.66470       -0.56320
H         -3.14320        0.55820        0.90600
H         -3.75560       -1.35930        5.26020
H         -5.19750       -0.32310        5.28730
H         -4.53140       -2.36430        3.09390
H         -5.75490       -2.57400        4.35260
H         -5.95540       -1.31910        3.12320
H         -0.15330       -2.84220        2.82860
H          2.33730       -3.80760       -4.06730
H          3.91310       -4.91000       -5.54450
H          6.44630       -6.95390       -7.23900
H          4.87490       -6.20830       -6.92130
H          7.63650       -4.96760       -6.41710
H          6.46750       -4.45880       -7.64660
H          6.12400       -4.20230       -5.93280
H          3.79340       -6.10660       -0.75990
H          0.46950       -5.22490       -3.64880
H         -0.50730       -4.66630       -5.69820
H         -1.10060       -5.96070       -8.16410
H          1.08480       -6.85840       -8.74560
H          2.99630       -7.75160       -9.09030
H          4.51330       -7.52710       -9.97180
H          2.69810       -8.32260      -11.51600
H          3.28930       -6.71950      -11.96940
H          1.74660       -6.88370      -11.12920
H          0.44750       -1.97580       -8.43650
H         -5.01210       -1.30130       -4.45970
H         -7.19380       -0.39590       -3.81570
H         -9.93980        0.71770       -7.22060
H        -11.06890       -0.63370       -6.94250
H        -12.37110        0.79870       -5.35890
H        -11.26270        2.13990       -5.65500
H        -12.29490        1.54100       -6.96140
H         -6.64530       -2.41770       -8.25900
H         -4.97830       -0.13460       -8.28620
H         -4.04650        6.23920       -6.86380
H         -4.51760        5.48260       -8.38970
H         -1.65500        6.18450       -7.57420
H         -2.65060        7.06950       -8.73050
H         -2.12200        5.42700       -9.09770
H         -5.15970        4.44020       -5.64020
H         -5.61450        3.66180       -7.15670
H         -4.05900        2.35590       -4.87050
H         -5.73750        2.04320       -5.31020
H         -4.43650        1.56560       -6.39950
H         -4.65230        2.29130       -9.20390
H         -2.98680        4.98390       -4.06730
H          0.87420        2.44690       -2.70470
H          3.19420        2.14470        1.16510
H          5.16280        0.85890        0.47050
H          6.38570       -2.71430       -2.83860
H          4.62080       -2.72300       -2.72270
H          6.31240       -0.64770       -4.23260
H          4.54850       -0.63560       -4.14720
H          5.37550       -1.94130       -4.99210
H          0.86590        0.07640       -1.77370
H         -3.69370        2.73610        2.49300
H         -5.58440        4.04130        3.24020
H         -8.23990        6.49520        3.92370
H         -7.09870        5.17300        4.20340
H         -8.97030        4.41610        2.71520
H         -8.62460        5.74250        1.59820
H         -7.46160        4.43100        1.79420
H         -1.98670        6.21780        0.66910
H         -1.79860        3.01610        3.91700
H          1.88610        0.36110        5.42290
H          3.67740        0.29640        9.54020
H          5.96380       -0.53940        9.18960
H          7.99340       -4.44910        7.06210
H          6.42810       -4.31600        6.23850
H          5.26730       -4.37120        8.46780
H          6.83330       -4.49500        9.27530
H          6.26070       -5.81530        8.24620
H          2.34980       -2.02500        6.19420
H         -2.11900        1.91340       10.92630
H         -4.40040        2.60750       11.38960
H         -6.38690        3.10240       11.98530
H         -7.95940        3.58990       11.34010
H         -6.34220        5.51030       11.27160
H         -6.87290        5.04180        9.65200
H         -5.27420        4.56660       10.22510
H         -3.45190       -0.16990        7.43320
H         -1.70300       -0.44820       11.57360
H          0.30390       -1.60990       12.76270
