
  xtb     03032222193D
 energy: -431.333875331402 gnorm: 0.000533567791 xtb: 6.4.1 (unknown)
256281  0     0  0            999 V2000
    7.7189    1.6104    6.6390 C   0  0  0  0  0  0  0  0  0  0  0  0
    6.0242    1.4958    6.3193 S   0  0  0  0  0  0  0  0  0  0  0  0
    6.3512    0.4173    5.0235 C   0  0  0  0  0  0  0  0  0  0  0  0
    5.6226   -0.2985    4.0409 C   0  0  0  0  0  0  0  0  0  0  0  0
    6.5142   -1.0029    3.2401 C   0  0  0  0  0  0  0  0  0  0  0  0
    7.9404   -0.7397    3.6686 C   0  0  0  0  0  0  0  0  0  0  0  0
    8.7089    0.0740    2.6055 C   0  0  0  0  0  0  0  0  0  0  0  0
    8.8906   -0.6242    1.2643 C   0  0  0  0  0  0  0  0  0  0  0  0
    8.6043   -2.0805    4.0260 C   0  0  0  0  0  0  0  0  0  0  0  0
    9.9838   -1.9697    4.6589 C   0  0  0  0  0  0  0  0  0  0  0  0
    7.7047    0.1634    4.8612 C   0  0  0  0  0  0  0  0  0  0  0  0
    8.4856    0.8672    5.7912 C   0  0  0  0  0  0  0  0  0  0  0  0
    5.8695   -1.8001    2.2978 C   0  0  0  0  0  0  0  0  0  0  0  0
    4.4966   -1.6797    2.3616 C   0  0  0  0  0  0  0  0  0  0  0  0
    3.9853   -0.5658    3.6127 S   0  0  0  0  0  0  0  0  0  0  0  0
    3.5259   -2.2971    1.5329 C   0  0  0  0  0  0  0  0  0  0  0  0
    2.1804   -2.0724    1.5281 C   0  0  0  0  0  0  0  0  0  0  0  0
    1.4888   -2.7636    0.5067 C   0  0  0  0  0  0  0  0  0  0  0  0
    0.1303   -2.6470    0.1635 C   0  0  0  0  0  0  0  0  0  0  0  0
   -0.7767   -1.8633    1.0114 C   0  0  0  0  0  0  0  0  0  0  0  0
   -1.6210   -0.8846    0.4928 C   0  0  0  0  0  0  0  0  0  0  0  0
   -2.4833   -0.1904    1.3169 C   0  0  0  0  0  0  0  0  0  0  0  0
   -2.5320   -0.4408    2.6846 C   0  0  0  0  0  0  0  0  0  0  0  0
   -3.6852    0.4623    3.6841 S   0  0  0  0  0  0  0  0  0  0  0  0
   -4.5022   -0.8622    4.6445 C   0  0  0  0  0  0  0  0  0  0  0  0
   -5.2301   -1.8399    3.7446 C   0  0  0  0  0  0  0  0  0  0  0  0
   -1.6455   -1.3809    3.1984 C   0  0  0  0  0  0  0  0  0  0  0  0
   -1.5984   -1.6282    4.5272 F   0  0  0  0  0  0  0  0  0  0  0  0
   -0.7939   -2.0963    2.3844 C   0  0  0  0  0  0  0  0  0  0  0  0
   -0.2736   -3.2932   -0.9951 C   0  0  0  0  0  0  0  0  0  0  0  0
    0.6074   -4.0719   -1.7874 C   0  0  0  0  0  0  0  0  0  0  0  0
    1.9622   -4.1978   -1.4374 C   0  0  0  0  0  0  0  0  0  0  0  0
    2.9188   -4.8866   -2.3114 C   0  0  0  0  0  0  0  0  0  0  0  0
    2.9866   -4.5714   -3.6670 C   0  0  0  0  0  0  0  0  0  0  0  0
    3.9008   -5.1845   -4.5022 C   0  0  0  0  0  0  0  0  0  0  0  0
    4.7878   -6.1340   -4.0074 C   0  0  0  0  0  0  0  0  0  0  0  0
    5.9891   -7.0123   -4.9492 S   0  0  0  0  0  0  0  0  0  0  0  0
    5.9152   -6.2455   -6.6033 C   0  0  0  0  0  0  0  0  0  0  0  0
    6.5779   -4.8822   -6.6502 C   0  0  0  0  0  0  0  0  0  0  0  0
    4.7144   -6.4324   -2.6447 C   0  0  0  0  0  0  0  0  0  0  0  0
    3.8092   -5.8288   -1.8018 C   0  0  0  0  0  0  0  0  0  0  0  0
    5.5586   -7.3518   -2.1338 F   0  0  0  0  0  0  0  0  0  0  0  0
    2.3663   -3.5451   -0.2857 C   0  0  0  0  0  0  0  0  0  0  0  0
    4.0059   -3.4468    0.3013 S   0  0  0  0  0  0  0  0  0  0  0  0
   -0.0300   -4.5939   -2.9375 C   0  0  0  0  0  0  0  0  0  0  0  0
   -1.3279   -4.1962   -3.0782 C   0  0  0  0  0  0  0  0  0  0  0  0
   -1.8686   -3.2409   -1.7062 S   0  0  0  0  0  0  0  0  0  0  0  0
   -2.0743   -4.2057   -4.2978 C   0  0  0  0  0  0  0  0  0  0  0  0
   -1.5151   -4.3293   -5.5384 C   0  0  0  0  0  0  0  0  0  0  0  0
   -2.3043   -3.7732   -6.5734 C   0  0  0  0  0  0  0  0  0  0  0  0
   -1.8167   -3.4054   -7.8428 C   0  0  0  0  0  0  0  0  0  0  0  0
   -0.5033   -3.9090   -8.2722 C   0  0  0  0  0  0  0  0  0  0  0  0
   -0.2850   -5.2808   -8.3609 C   0  0  0  0  0  0  0  0  0  0  0  0
    0.9554   -5.7892   -8.6957 C   0  0  0  0  0  0  0  0  0  0  0  0
    2.0243   -4.9371   -8.9451 C   0  0  0  0  0  0  0  0  0  0  0  0
    3.6702   -5.4500   -9.3258 S   0  0  0  0  0  0  0  0  0  0  0  0
    3.4841   -7.1797   -9.8789 C   0  0  0  0  0  0  0  0  0  0  0  0
    2.7567   -7.2812  -11.2054 C   0  0  0  0  0  0  0  0  0  0  0  0
    1.7939   -3.5646   -8.8421 C   0  0  0  0  0  0  0  0  0  0  0  0
    2.8209   -2.7160   -9.0473 F   0  0  0  0  0  0  0  0  0  0  0  0
    0.5602   -3.0448   -8.5189 C   0  0  0  0  0  0  0  0  0  0  0  0
   -2.5311   -2.4246   -8.5024 C   0  0  0  0  0  0  0  0  0  0  0  0
   -3.7909   -1.9598   -8.0458 C   0  0  0  0  0  0  0  0  0  0  0  0
   -4.3581   -2.4558   -6.8560 C   0  0  0  0  0  0  0  0  0  0  0  0
   -5.6561   -1.9387   -6.4064 C   0  0  0  0  0  0  0  0  0  0  0  0
   -5.8395   -1.3698   -5.1472 C   0  0  0  0  0  0  0  0  0  0  0  0
   -7.0622   -0.8493   -4.7859 C   0  0  0  0  0  0  0  0  0  0  0  0
   -8.1592   -0.8842   -5.6486 C   0  0  0  0  0  0  0  0  0  0  0  0
   -9.6648   -0.2107   -5.0242 S   0  0  0  0  0  0  0  0  0  0  0  0
  -10.6321    0.2658   -6.5119 C   0  0  0  0  0  0  0  0  0  0  0  0
  -11.7076    1.2493   -6.0934 C   0  0  0  0  0  0  0  0  0  0  0  0
   -7.9672   -1.4767   -6.8933 C   0  0  0  0  0  0  0  0  0  0  0  0
   -6.7398   -1.9763   -7.2786 C   0  0  0  0  0  0  0  0  0  0  0  0
   -8.9823   -1.5886   -7.7825 F   0  0  0  0  0  0  0  0  0  0  0  0
   -3.5414   -3.2786   -6.0938 C   0  0  0  0  0  0  0  0  0  0  0  0
   -3.7217   -3.6131   -4.3854 S   0  0  0  0  0  0  0  0  0  0  0  0
   -4.1335   -0.7095   -8.6216 C   0  0  0  0  0  0  0  0  0  0  0  0
   -3.1274   -0.1700   -9.3786 C   0  0  0  0  0  0  0  0  0  0  0  0
   -1.8899   -1.3666   -9.7462 S   0  0  0  0  0  0  0  0  0  0  0  0
   -2.7789    1.2190   -9.2689 C   0  0  0  0  0  0  0  0  0  0  0  0
   -1.1423    1.4658   -8.6406 S   0  0  0  0  0  0  0  0  0  0  0  0
   -1.6993    2.8029   -7.7230 C   0  0  0  0  0  0  0  0  0  0  0  0
   -1.3252    3.3993   -6.4955 C   0  0  0  0  0  0  0  0  0  0  0  0
   -2.3969    4.1433   -6.0092 C   0  0  0  0  0  0  0  0  0  0  0  0
   -3.5294    4.1580   -7.0132 C   0  0  0  0  0  0  0  0  0  0  0  0
   -3.7211    5.5497   -7.6455 C   0  0  0  0  0  0  0  0  0  0  0  0
   -2.4570    6.0890   -8.3024 C   0  0  0  0  0  0  0  0  0  0  0  0
   -4.8519    3.6945   -6.3757 C   0  0  0  0  0  0  0  0  0  0  0  0
   -4.7631    2.3309   -5.6985 C   0  0  0  0  0  0  0  0  0  0  0  0
   -3.0166    3.1449   -8.0151 C   0  0  0  0  0  0  0  0  0  0  0  0
   -3.6200    2.2550   -8.9051 C   0  0  0  0  0  0  0  0  0  0  0  0
   -2.2616    4.4542   -4.6593 C   0  0  0  0  0  0  0  0  0  0  0  0
   -1.1169    3.9111   -4.1030 C   0  0  0  0  0  0  0  0  0  0  0  0
   -0.1265    3.0973   -5.3024 S   0  0  0  0  0  0  0  0  0  0  0  0
   -0.8390    3.7413   -2.7182 C   0  0  0  0  0  0  0  0  0  0  0  0
    0.1072    2.9438   -2.1377 C   0  0  0  0  0  0  0  0  0  0  0  0
   -0.0450    2.8033   -0.7353 C   0  0  0  0  0  0  0  0  0  0  0  0
    0.7080    2.0190    0.1546 C   0  0  0  0  0  0  0  0  0  0  0  0
    1.8774    1.2315   -0.2624 C   0  0  0  0  0  0  0  0  0  0  0  0
    3.1050    1.4151    0.3753 C   0  0  0  0  0  0  0  0  0  0  0  0
    4.2118    0.6985   -0.0140 C   0  0  0  0  0  0  0  0  0  0  0  0
    4.1545   -0.2487   -1.0407 C   0  0  0  0  0  0  0  0  0  0  0  0
    5.6938   -1.0457   -1.3717 S   0  0  0  0  0  0  0  0  0  0  0  0
    5.4929   -2.0877   -2.8572 C   0  0  0  0  0  0  0  0  0  0  0  0
    5.4283   -1.2737   -4.1341 C   0  0  0  0  0  0  0  0  0  0  0  0
    2.9148   -0.4484   -1.6380 C   0  0  0  0  0  0  0  0  0  0  0  0
    2.7330   -1.3676   -2.6183 F   0  0  0  0  0  0  0  0  0  0  0  0
    1.7991    0.2819   -1.2714 C   0  0  0  0  0  0  0  0  0  0  0  0
    0.3034    2.0258    1.4800 C   0  0  0  0  0  0  0  0  0  0  0  0
   -0.8106    2.7548    1.9629 C   0  0  0  0  0  0  0  0  0  0  0  0
   -1.5423    3.5671    1.0809 C   0  0  0  0  0  0  0  0  0  0  0  0
   -2.6915    4.3642    1.5279 C   0  0  0  0  0  0  0  0  0  0  0  0
   -3.7267    3.7875    2.2561 C   0  0  0  0  0  0  0  0  0  0  0  0
   -4.8137    4.5325    2.6695 C   0  0  0  0  0  0  0  0  0  0  0  0
   -4.9081    5.8850    2.3636 C   0  0  0  0  0  0  0  0  0  0  0  0
   -6.2221    6.9562    2.8441 S   0  0  0  0  0  0  0  0  0  0  0  0
   -7.5255    5.8263    3.4437 C   0  0  0  0  0  0  0  0  0  0  0  0
   -8.1842    5.0545    2.3161 C   0  0  0  0  0  0  0  0  0  0  0  0
   -3.8606    6.4513    1.6346 C   0  0  0  0  0  0  0  0  0  0  0  0
   -2.7717    5.7205    1.2168 C   0  0  0  0  0  0  0  0  0  0  0  0
   -3.9107    7.7648    1.3301 F   0  0  0  0  0  0  0  0  0  0  0  0
   -1.1348    3.5666   -0.2436 C   0  0  0  0  0  0  0  0  0  0  0  0
   -1.9409    4.4222   -1.5328 S   0  0  0  0  0  0  0  0  0  0  0  0
   -1.0167    2.5444    3.3501 C   0  0  0  0  0  0  0  0  0  0  0  0
   -0.1199    1.6853    3.9104 C   0  0  0  0  0  0  0  0  0  0  0  0
    1.0555    1.1032    2.7511 S   0  0  0  0  0  0  0  0  0  0  0  0
   -0.0731    1.2194    5.2583 C   0  0  0  0  0  0  0  0  0  0  0  0
    0.9414    0.5680    5.8943 C   0  0  0  0  0  0  0  0  0  0  0  0
    0.6353    0.2220    7.2364 C   0  0  0  0  0  0  0  0  0  0  0  0
    1.4599   -0.3888    8.1934 C   0  0  0  0  0  0  0  0  0  0  0  0
    2.8376   -0.8163    7.9114 C   0  0  0  0  0  0  0  0  0  0  0  0
    3.8781   -0.3982    8.7394 C   0  0  0  0  0  0  0  0  0  0  0  0
    5.1612   -0.8602    8.5441 C   0  0  0  0  0  0  0  0  0  0  0  0
    5.4544   -1.7562    7.5208 C   0  0  0  0  0  0  0  0  0  0  0  0
    7.1347   -2.2910    7.3507 S   0  0  0  0  0  0  0  0  0  0  0  0
    6.9638   -4.1053    7.1618 C   0  0  0  0  0  0  0  0  0  0  0  0
    6.2888   -4.7338    8.3642 C   0  0  0  0  0  0  0  0  0  0  0  0
    4.4167   -2.1337    6.6763 C   0  0  0  0  0  0  0  0  0  0  0  0
    4.6454   -2.9804    5.6477 F   0  0  0  0  0  0  0  0  0  0  0  0
    3.1248   -1.6818    6.8618 C   0  0  0  0  0  0  0  0  0  0  0  0
    0.9128   -0.5830    9.4549 C   0  0  0  0  0  0  0  0  0  0  0  0
   -0.4105   -0.2178    9.7982 C   0  0  0  0  0  0  0  0  0  0  0  0
   -1.2286    0.4098    8.8498 C   0  0  0  0  0  0  0  0  0  0  0  0
   -2.6052    0.8229    9.1493 C   0  0  0  0  0  0  0  0  0  0  0  0
   -2.9099    1.6019   10.2606 C   0  0  0  0  0  0  0  0  0  0  0  0
   -4.2063    2.0090   10.5142 C   0  0  0  0  0  0  0  0  0  0  0  0
   -5.2451    1.6551    9.6608 C   0  0  0  0  0  0  0  0  0  0  0  0
   -6.9402    2.0908    9.8710 S   0  0  0  0  0  0  0  0  0  0  0  0
   -6.9075    3.4471   11.0927 C   0  0  0  0  0  0  0  0  0  0  0  0
   -6.3090    4.7198   10.5243 C   0  0  0  0  0  0  0  0  0  0  0  0
   -4.9253    0.8630    8.5572 C   0  0  0  0  0  0  0  0  0  0  0  0
   -3.6404    0.4498    8.2944 C   0  0  0  0  0  0  0  0  0  0  0  0
   -5.9090    0.4849    7.7125 F   0  0  0  0  0  0  0  0  0  0  0  0
   -0.6783    0.6187    7.5933 C   0  0  0  0  0  0  0  0  0  0  0  0
   -1.4760    1.4367    6.2803 S   0  0  0  0  0  0  0  0  0  0  0  0
   -0.7366   -0.6091   11.1314 C   0  0  0  0  0  0  0  0  0  0  0  0
    0.2845   -1.2210   11.7633 C   0  0  0  0  0  0  0  0  0  0  0  0
    1.7116   -1.3701   10.7943 S   0  0  0  0  0  0  0  0  0  0  0  0
    8.0460    2.2335    7.4475 H   0  0  0  0  0  0  0  0  0  0  0  0
    8.1610    1.0068    2.4464 H   0  0  0  0  0  0  0  0  0  0  0  0
    9.6846    0.3367    3.0173 H   0  0  0  0  0  0  0  0  0  0  0  0
    9.4552   -1.5464    1.3709 H   0  0  0  0  0  0  0  0  0  0  0  0
    9.4389    0.0295    0.5893 H   0  0  0  0  0  0  0  0  0  0  0  0
    7.9305   -0.8491    0.8076 H   0  0  0  0  0  0  0  0  0  0  0  0
    7.9416   -2.5983    4.7213 H   0  0  0  0  0  0  0  0  0  0  0  0
    8.6608   -2.6826    3.1181 H   0  0  0  0  0  0  0  0  0  0  0  0
   10.6736   -1.4256    4.0191 H   0  0  0  0  0  0  0  0  0  0  0  0
    9.9214   -1.4705    5.6217 H   0  0  0  0  0  0  0  0  0  0  0  0
   10.3890   -2.9664    4.8210 H   0  0  0  0  0  0  0  0  0  0  0  0
    9.5584    0.8414    5.8472 H   0  0  0  0  0  0  0  0  0  0  0  0
    6.3489   -2.4498    1.5880 H   0  0  0  0  0  0  0  0  0  0  0  0
    1.7138   -1.3817    2.2050 H   0  0  0  0  0  0  0  0  0  0  0  0
   -1.6043   -0.6647   -0.5632 H   0  0  0  0  0  0  0  0  0  0  0  0
   -3.1432    0.5582    0.9060 H   0  0  0  0  0  0  0  0  0  0  0  0
   -3.7556   -1.3593    5.2602 H   0  0  0  0  0  0  0  0  0  0  0  0
   -5.1975   -0.3231    5.2873 H   0  0  0  0  0  0  0  0  0  0  0  0
   -4.5314   -2.3643    3.0939 H   0  0  0  0  0  0  0  0  0  0  0  0
   -5.7549   -2.5740    4.3526 H   0  0  0  0  0  0  0  0  0  0  0  0
   -5.9554   -1.3191    3.1232 H   0  0  0  0  0  0  0  0  0  0  0  0
   -0.1533   -2.8422    2.8286 H   0  0  0  0  0  0  0  0  0  0  0  0
    2.3373   -3.8076   -4.0673 H   0  0  0  0  0  0  0  0  0  0  0  0
    3.9131   -4.9100   -5.5445 H   0  0  0  0  0  0  0  0  0  0  0  0
    6.4463   -6.9539   -7.2390 H   0  0  0  0  0  0  0  0  0  0  0  0
    4.8749   -6.2083   -6.9213 H   0  0  0  0  0  0  0  0  0  0  0  0
    7.6365   -4.9676   -6.4171 H   0  0  0  0  0  0  0  0  0  0  0  0
    6.4675   -4.4588   -7.6466 H   0  0  0  0  0  0  0  0  0  0  0  0
    6.1240   -4.2023   -5.9328 H   0  0  0  0  0  0  0  0  0  0  0  0
    3.7934   -6.1066   -0.7599 H   0  0  0  0  0  0  0  0  0  0  0  0
    0.4695   -5.2249   -3.6488 H   0  0  0  0  0  0  0  0  0  0  0  0
   -0.5073   -4.6663   -5.6982 H   0  0  0  0  0  0  0  0  0  0  0  0
   -1.1006   -5.9607   -8.1641 H   0  0  0  0  0  0  0  0  0  0  0  0
    1.0848   -6.8584   -8.7456 H   0  0  0  0  0  0  0  0  0  0  0  0
    2.9963   -7.7516   -9.0903 H   0  0  0  0  0  0  0  0  0  0  0  0
    4.5133   -7.5271   -9.9718 H   0  0  0  0  0  0  0  0  0  0  0  0
    2.6981   -8.3226  -11.5160 H   0  0  0  0  0  0  0  0  0  0  0  0
    3.2893   -6.7195  -11.9694 H   0  0  0  0  0  0  0  0  0  0  0  0
    1.7466   -6.8837  -11.1292 H   0  0  0  0  0  0  0  0  0  0  0  0
    0.4475   -1.9758   -8.4365 H   0  0  0  0  0  0  0  0  0  0  0  0
   -5.0121   -1.3013   -4.4597 H   0  0  0  0  0  0  0  0  0  0  0  0
   -7.1938   -0.3959   -3.8157 H   0  0  0  0  0  0  0  0  0  0  0  0
   -9.9398    0.7177   -7.2206 H   0  0  0  0  0  0  0  0  0  0  0  0
  -11.0689   -0.6337   -6.9425 H   0  0  0  0  0  0  0  0  0  0  0  0
  -12.3711    0.7987   -5.3589 H   0  0  0  0  0  0  0  0  0  0  0  0
  -11.2627    2.1399   -5.6550 H   0  0  0  0  0  0  0  0  0  0  0  0
  -12.2949    1.5410   -6.9614 H   0  0  0  0  0  0  0  0  0  0  0  0
   -6.6453   -2.4177   -8.2590 H   0  0  0  0  0  0  0  0  0  0  0  0
   -4.9783   -0.1346   -8.2862 H   0  0  0  0  0  0  0  0  0  0  0  0
   -4.0465    6.2392   -6.8638 H   0  0  0  0  0  0  0  0  0  0  0  0
   -4.5176    5.4826   -8.3897 H   0  0  0  0  0  0  0  0  0  0  0  0
   -1.6550    6.1845   -7.5742 H   0  0  0  0  0  0  0  0  0  0  0  0
   -2.6506    7.0695   -8.7305 H   0  0  0  0  0  0  0  0  0  0  0  0
   -2.1220    5.4270   -9.0977 H   0  0  0  0  0  0  0  0  0  0  0  0
   -5.1597    4.4402   -5.6402 H   0  0  0  0  0  0  0  0  0  0  0  0
   -5.6145    3.6618   -7.1567 H   0  0  0  0  0  0  0  0  0  0  0  0
   -4.0590    2.3559   -4.8705 H   0  0  0  0  0  0  0  0  0  0  0  0
   -5.7375    2.0432   -5.3102 H   0  0  0  0  0  0  0  0  0  0  0  0
   -4.4365    1.5656   -6.3995 H   0  0  0  0  0  0  0  0  0  0  0  0
   -4.6523    2.2913   -9.2039 H   0  0  0  0  0  0  0  0  0  0  0  0
   -2.9868    4.9839   -4.0673 H   0  0  0  0  0  0  0  0  0  0  0  0
    0.8742    2.4469   -2.7047 H   0  0  0  0  0  0  0  0  0  0  0  0
    3.1942    2.1447    1.1651 H   0  0  0  0  0  0  0  0  0  0  0  0
    5.1628    0.8589    0.4705 H   0  0  0  0  0  0  0  0  0  0  0  0
    6.3857   -2.7143   -2.8386 H   0  0  0  0  0  0  0  0  0  0  0  0
    4.6208   -2.7230   -2.7227 H   0  0  0  0  0  0  0  0  0  0  0  0
    6.3124   -0.6477   -4.2326 H   0  0  0  0  0  0  0  0  0  0  0  0
    4.5485   -0.6356   -4.1472 H   0  0  0  0  0  0  0  0  0  0  0  0
    5.3755   -1.9413   -4.9921 H   0  0  0  0  0  0  0  0  0  0  0  0
    0.8659    0.0764   -1.7737 H   0  0  0  0  0  0  0  0  0  0  0  0
   -3.6937    2.7361    2.4930 H   0  0  0  0  0  0  0  0  0  0  0  0
   -5.5844    4.0413    3.2402 H   0  0  0  0  0  0  0  0  0  0  0  0
   -8.2399    6.4952    3.9237 H   0  0  0  0  0  0  0  0  0  0  0  0
   -7.0987    5.1730    4.2034 H   0  0  0  0  0  0  0  0  0  0  0  0
   -8.9703    4.4161    2.7152 H   0  0  0  0  0  0  0  0  0  0  0  0
   -8.6246    5.7425    1.5982 H   0  0  0  0  0  0  0  0  0  0  0  0
   -7.4616    4.4310    1.7942 H   0  0  0  0  0  0  0  0  0  0  0  0
   -1.9867    6.2178    0.6691 H   0  0  0  0  0  0  0  0  0  0  0  0
   -1.7986    3.0161    3.9170 H   0  0  0  0  0  0  0  0  0  0  0  0
    1.8861    0.3611    5.4229 H   0  0  0  0  0  0  0  0  0  0  0  0
    3.6774    0.2964    9.5402 H   0  0  0  0  0  0  0  0  0  0  0  0
    5.9638   -0.5394    9.1896 H   0  0  0  0  0  0  0  0  0  0  0  0
    7.9934   -4.4491    7.0621 H   0  0  0  0  0  0  0  0  0  0  0  0
    6.4281   -4.3160    6.2385 H   0  0  0  0  0  0  0  0  0  0  0  0
    5.2673   -4.3712    8.4678 H   0  0  0  0  0  0  0  0  0  0  0  0
    6.8333   -4.4950    9.2753 H   0  0  0  0  0  0  0  0  0  0  0  0
    6.2607   -5.8153    8.2462 H   0  0  0  0  0  0  0  0  0  0  0  0
    2.3498   -2.0250    6.1942 H   0  0  0  0  0  0  0  0  0  0  0  0
   -2.1190    1.9134   10.9263 H   0  0  0  0  0  0  0  0  0  0  0  0
   -4.4004    2.6075   11.3896 H   0  0  0  0  0  0  0  0  0  0  0  0
   -6.3869    3.1024   11.9853 H   0  0  0  0  0  0  0  0  0  0  0  0
   -7.9594    3.5899   11.3401 H   0  0  0  0  0  0  0  0  0  0  0  0
   -6.3422    5.5103   11.2716 H   0  0  0  0  0  0  0  0  0  0  0  0
   -6.8729    5.0418    9.6520 H   0  0  0  0  0  0  0  0  0  0  0  0
   -5.2742    4.5666   10.2251 H   0  0  0  0  0  0  0  0  0  0  0  0
   -3.4519   -0.1699    7.4332 H   0  0  0  0  0  0  0  0  0  0  0  0
   -1.7030   -0.4482   11.5736 H   0  0  0  0  0  0  0  0  0  0  0  0
    0.3039   -1.6099   12.7627 H   0  0  0  0  0  0  0  0  0  0  0  0
  1  2  1  0  0  0  0
  2  3  1  0  0  0  0
  3  4  1  0  0  0  0
  4  5  2  0  0  0  0
  5  6  1  0  0  0  0
  6  7  1  0  0  0  0
  7  8  1  0  0  0  0
  6  9  1  0  0  0  0
  9 10  1  0  0  0  0
  6 11  1  0  0  0  0
 11 12  1  0  0  0  0
  5 13  1  0  0  0  0
 13 14  2  0  0  0  0
 14 15  1  0  0  0  0
 14 16  1  0  0  0  0
 16 17  2  0  0  0  0
 17 18  1  0  0  0  0
 18 19  2  0  0  0  0
 19 20  1  0  0  0  0
 20 21  2  0  0  0  0
 21 22  1  0  0  0  0
 22 23  2  0  0  0  0
 23 24  1  0  0  0  0
 24 25  1  0  0  0  0
 25 26  1  0  0  0  0
 23 27  1  0  0  0  0
 27 28  1  0  0  0  0
 27 29  2  0  0  0  0
 19 30  1  0  0  0  0
 30 31  2  0  0  0  0
 31 32  1  0  0  0  0
 32 33  1  0  0  0  0
 33 34  2  0  0  0  0
 34 35  1  0  0  0  0
 35 36  2  0  0  0  0
 36 37  1  0  0  0  0
 37 38  1  0  0  0  0
 38 39  1  0  0  0  0
 36 40  1  0  0  0  0
 40 41  2  0  0  0  0
 40 42  1  0  0  0  0
 32 43  2  0  0  0  0
 43 44  1  0  0  0  0
 31 45  1  0  0  0  0
 45 46  2  0  0  0  0
 46 47  1  0  0  0  0
 46 48  1  0  0  0  0
 48 49  2  0  0  0  0
 49 50  1  0  0  0  0
 50 51  2  0  0  0  0
 51 52  1  0  0  0  0
 52 53  2  0  0  0  0
 53 54  1  0  0  0  0
 54 55  2  0  0  0  0
 55 56  1  0  0  0  0
 56 57  1  0  0  0  0
 57 58  1  0  0  0  0
 55 59  1  0  0  0  0
 59 60  1  0  0  0  0
 59 61  2  0  0  0  0
 51 62  1  0  0  0  0
 62 63  2  0  0  0  0
 63 64  1  0  0  0  0
 64 65  1  0  0  0  0
 65 66  2  0  0  0  0
 66 67  1  0  0  0  0
 67 68  2  0  0  0  0
 68 69  1  0  0  0  0
 69 70  1  0  0  0  0
 70 71  1  0  0  0  0
 68 72  1  0  0  0  0
 72 73  2  0  0  0  0
 72 74  1  0  0  0  0
 64 75  2  0  0  0  0
 75 76  1  0  0  0  0
 63 77  1  0  0  0  0
 77 78  2  0  0  0  0
 78 79  1  0  0  0  0
 78 80  1  0  0  0  0
 80 81  1  0  0  0  0
 81 82  1  0  0  0  0
 82 83  1  0  0  0  0
 83 84  2  0  0  0  0
 84 85  1  0  0  0  0
 85 86  1  0  0  0  0
 86 87  1  0  0  0  0
 85 88  1  0  0  0  0
 88 89  1  0  0  0  0
 85 90  1  0  0  0  0
 90 91  1  0  0  0  0
 84 92  1  0  0  0  0
 92 93  2  0  0  0  0
 93 94  1  0  0  0  0
 93 95  1  0  0  0  0
 95 96  2  0  0  0  0
 96 97  1  0  0  0  0
 97 98  2  0  0  0  0
 98 99  1  0  0  0  0
 99100  2  0  0  0  0
100101  1  0  0  0  0
101102  2  0  0  0  0
102103  1  0  0  0  0
103104  1  0  0  0  0
104105  1  0  0  0  0
102106  1  0  0  0  0
106107  1  0  0  0  0
106108  2  0  0  0  0
 98109  1  0  0  0  0
109110  2  0  0  0  0
110111  1  0  0  0  0
111112  1  0  0  0  0
112113  2  0  0  0  0
113114  1  0  0  0  0
114115  2  0  0  0  0
115116  1  0  0  0  0
116117  1  0  0  0  0
117118  1  0  0  0  0
115119  1  0  0  0  0
119120  2  0  0  0  0
119121  1  0  0  0  0
111122  2  0  0  0  0
122123  1  0  0  0  0
110124  1  0  0  0  0
124125  2  0  0  0  0
125126  1  0  0  0  0
125127  1  0  0  0  0
127128  2  0  0  0  0
128129  1  0  0  0  0
129130  2  0  0  0  0
130131  1  0  0  0  0
131132  2  0  0  0  0
132133  1  0  0  0  0
133134  2  0  0  0  0
134135  1  0  0  0  0
135136  1  0  0  0  0
136137  1  0  0  0  0
134138  1  0  0  0  0
138139  1  0  0  0  0
138140  2  0  0  0  0
130141  1  0  0  0  0
141142  2  0  0  0  0
142143  1  0  0  0  0
143144  1  0  0  0  0
144145  2  0  0  0  0
145146  1  0  0  0  0
146147  2  0  0  0  0
147148  1  0  0  0  0
148149  1  0  0  0  0
149150  1  0  0  0  0
147151  1  0  0  0  0
151152  2  0  0  0  0
151153  1  0  0  0  0
143154  2  0  0  0  0
154155  1  0  0  0  0
142156  1  0  0  0  0
156157  2  0  0  0  0
157158  1  0  0  0  0
 12  1  2  0  0  0  0
 44 16  1  0  0  0  0
 76 48  1  0  0  0  0
 91 80  2  0  0  0  0
123 95  1  0  0  0  0
155127  1  0  0  0  0
 11  3  2  0  0  0  0
 43 18  1  0  0  0  0
 75 50  1  0  0  0  0
 90 82  2  0  0  0  0
122 97  1  0  0  0  0
154129  1  0  0  0  0
 15  4  1  0  0  0  0
 29 20  1  0  0  0  0
 47 30  1  0  0  0  0
 61 52  1  0  0  0  0
 79 62  1  0  0  0  0
 94 83  1  0  0  0  0
108 99  1  0  0  0  0
126109  1  0  0  0  0
140131  1  0  0  0  0
158141  1  0  0  0  0
 41 33  1  0  0  0  0
 73 65  1  0  0  0  0
120112  1  0  0  0  0
152144  1  0  0  0  0
  1159  1  0  0  0  0
  7160  1  0  0  0  0
  7161  1  0  0  0  0
  8162  1  0  0  0  0
  8163  1  0  0  0  0
  8164  1  0  0  0  0
  9165  1  0  0  0  0
  9166  1  0  0  0  0
 10167  1  0  0  0  0
 10168  1  0  0  0  0
 10169  1  0  0  0  0
 12170  1  0  0  0  0
 13171  1  0  0  0  0
 17172  1  0  0  0  0
 21173  1  0  0  0  0
 22174  1  0  0  0  0
 25175  1  0  0  0  0
 25176  1  0  0  0  0
 26177  1  0  0  0  0
 26178  1  0  0  0  0
 26179  1  0  0  0  0
 29180  1  0  0  0  0
 34181  1  0  0  0  0
 35182  1  0  0  0  0
 38183  1  0  0  0  0
 38184  1  0  0  0  0
 39185  1  0  0  0  0
 39186  1  0  0  0  0
 39187  1  0  0  0  0
 41188  1  0  0  0  0
 45189  1  0  0  0  0
 49190  1  0  0  0  0
 53191  1  0  0  0  0
 54192  1  0  0  0  0
 57193  1  0  0  0  0
 57194  1  0  0  0  0
 58195  1  0  0  0  0
 58196  1  0  0  0  0
 58197  1  0  0  0  0
 61198  1  0  0  0  0
 66199  1  0  0  0  0
 67200  1  0  0  0  0
 70201  1  0  0  0  0
 70202  1  0  0  0  0
 71203  1  0  0  0  0
 71204  1  0  0  0  0
 71205  1  0  0  0  0
 73206  1  0  0  0  0
 77207  1  0  0  0  0
 86208  1  0  0  0  0
 86209  1  0  0  0  0
 87210  1  0  0  0  0
 87211  1  0  0  0  0
 87212  1  0  0  0  0
 88213  1  0  0  0  0
 88214  1  0  0  0  0
 89215  1  0  0  0  0
 89216  1  0  0  0  0
 89217  1  0  0  0  0
 91218  1  0  0  0  0
 92219  1  0  0  0  0
 96220  1  0  0  0  0
100221  1  0  0  0  0
101222  1  0  0  0  0
104223  1  0  0  0  0
104224  1  0  0  0  0
105225  1  0  0  0  0
105226  1  0  0  0  0
105227  1  0  0  0  0
108228  1  0  0  0  0
113229  1  0  0  0  0
114230  1  0  0  0  0
117231  1  0  0  0  0
117232  1  0  0  0  0
118233  1  0  0  0  0
118234  1  0  0  0  0
118235  1  0  0  0  0
120236  1  0  0  0  0
124237  1  0  0  0  0
128238  1  0  0  0  0
132239  1  0  0  0  0
133240  1  0  0  0  0
136241  1  0  0  0  0
136242  1  0  0  0  0
137243  1  0  0  0  0
137244  1  0  0  0  0
137245  1  0  0  0  0
140246  1  0  0  0  0
145247  1  0  0  0  0
146248  1  0  0  0  0
149249  1  0  0  0  0
149250  1  0  0  0  0
150251  1  0  0  0  0
150252  1  0  0  0  0
150253  1  0  0  0  0
152254  1  0  0  0  0
156255  1  0  0  0  0
157256  1  0  0  0  0
M  END
