
  xtb     03032219083D
 energy: -431.297916633962 gnorm: 0.000247016592 xtb: 6.4.1 (unknown)
256281  0     0  0            999 V2000
    2.3368   -9.4276    3.0809 C   0  0  0  0  0  0  0  0  0  0  0  0
    1.0753   -8.2545    3.0184 S   0  0  0  0  0  0  0  0  0  0  0  0
    0.4656   -8.9943    1.5925 C   0  0  0  0  0  0  0  0  0  0  0  0
   -0.5611   -8.7681    0.6413 C   0  0  0  0  0  0  0  0  0  0  0  0
   -0.4724   -9.7216   -0.3667 C   0  0  0  0  0  0  0  0  0  0  0  0
    0.6663  -10.6828   -0.0880 C   0  0  0  0  0  0  0  0  0  0  0  0
    1.7744  -10.6090   -1.1557 C   0  0  0  0  0  0  0  0  0  0  0  0
    1.3719  -11.0895   -2.5436 C   0  0  0  0  0  0  0  0  0  0  0  0
    0.0776  -12.0930    0.1083 C   0  0  0  0  0  0  0  0  0  0  0  0
    1.0945  -13.1679    0.4678 C   0  0  0  0  0  0  0  0  0  0  0  0
    1.2067  -10.0997    1.2021 C   0  0  0  0  0  0  0  0  0  0  0  0
    2.2910  -10.3341    2.0619 C   0  0  0  0  0  0  0  0  0  0  0  0
   -1.4468   -9.5538   -1.3489 C   0  0  0  0  0  0  0  0  0  0  0  0
   -2.2594   -8.4597   -1.1074 C   0  0  0  0  0  0  0  0  0  0  0  0
   -1.8345   -7.6503    0.3908 S   0  0  0  0  0  0  0  0  0  0  0  0
   -3.2401   -7.8846   -1.9600 C   0  0  0  0  0  0  0  0  0  0  0  0
   -4.1728   -6.5095   -1.4061 S   0  0  0  0  0  0  0  0  0  0  0  0
   -4.8182   -6.3089   -2.9831 C   0  0  0  0  0  0  0  0  0  0  0  0
   -5.5831   -5.3438   -3.6738 C   0  0  0  0  0  0  0  0  0  0  0  0
   -5.6070   -5.6617   -5.0274 C   0  0  0  0  0  0  0  0  0  0  0  0
   -4.8608   -6.9561   -5.2813 C   0  0  0  0  0  0  0  0  0  0  0  0
   -5.7887   -8.0624   -5.8089 C   0  0  0  0  0  0  0  0  0  0  0  0
   -7.0213   -8.2619   -4.9348 C   0  0  0  0  0  0  0  0  0  0  0  0
   -3.7179   -6.6476   -6.2719 C   0  0  0  0  0  0  0  0  0  0  0  0
   -2.7689   -7.8010   -6.5678 C   0  0  0  0  0  0  0  0  0  0  0  0
   -4.3550   -7.2625   -3.8865 C   0  0  0  0  0  0  0  0  0  0  0  0
   -3.4867   -8.1754   -3.2926 C   0  0  0  0  0  0  0  0  0  0  0  0
   -6.1438   -4.6398   -5.8085 C   0  0  0  0  0  0  0  0  0  0  0  0
   -6.5440   -3.5535   -5.0553 C   0  0  0  0  0  0  0  0  0  0  0  0
   -6.3008   -3.8249   -3.3326 S   0  0  0  0  0  0  0  0  0  0  0  0
   -6.7961   -2.2162   -5.4730 C   0  0  0  0  0  0  0  0  0  0  0  0
   -7.1685   -1.1705   -4.6792 C   0  0  0  0  0  0  0  0  0  0  0  0
   -6.8599    0.0997   -5.2233 C   0  0  0  0  0  0  0  0  0  0  0  0
   -6.9378    1.3448   -4.5787 C   0  0  0  0  0  0  0  0  0  0  0  0
   -7.5261    1.5102   -3.2428 C   0  0  0  0  0  0  0  0  0  0  0  0
   -7.1056    0.7403   -2.1627 C   0  0  0  0  0  0  0  0  0  0  0  0
   -7.6509    0.9158   -0.9056 C   0  0  0  0  0  0  0  0  0  0  0  0
   -8.6437    1.8635   -0.6859 C   0  0  0  0  0  0  0  0  0  0  0  0
   -9.4144    2.1905    0.8653 S   0  0  0  0  0  0  0  0  0  0  0  0
   -9.0427    0.7082    1.8660 C   0  0  0  0  0  0  0  0  0  0  0  0
   -9.7621   -0.5265    1.3577 C   0  0  0  0  0  0  0  0  0  0  0  0
   -9.0364    2.6467   -1.7727 C   0  0  0  0  0  0  0  0  0  0  0  0
   -9.9832    3.5882   -1.5918 F   0  0  0  0  0  0  0  0  0  0  0  0
   -8.4940    2.4887   -3.0282 C   0  0  0  0  0  0  0  0  0  0  0  0
   -6.3000    2.4027   -5.2053 C   0  0  0  0  0  0  0  0  0  0  0  0
   -5.6567    2.2878   -6.4600 C   0  0  0  0  0  0  0  0  0  0  0  0
   -5.7277    1.0816   -7.1840 C   0  0  0  0  0  0  0  0  0  0  0  0
   -5.1776    1.0021   -8.5405 C   0  0  0  0  0  0  0  0  0  0  0  0
   -4.3391   -0.0298   -8.9506 C   0  0  0  0  0  0  0  0  0  0  0  0
   -3.8623   -0.0910  -10.2456 C   0  0  0  0  0  0  0  0  0  0  0  0
   -4.2177    0.8705  -11.1845 C   0  0  0  0  0  0  0  0  0  0  0  0
   -3.6870    0.8984  -12.8642 S   0  0  0  0  0  0  0  0  0  0  0  0
   -3.1667   -0.8227  -13.1853 C   0  0  0  0  0  0  0  0  0  0  0  0
   -4.3336   -1.7910  -13.1516 C   0  0  0  0  0  0  0  0  0  0  0  0
   -5.0383    1.9147  -10.7535 C   0  0  0  0  0  0  0  0  0  0  0  0
   -5.5103    1.9941   -9.4637 C   0  0  0  0  0  0  0  0  0  0  0  0
   -5.3909    2.8756  -11.6302 F   0  0  0  0  0  0  0  0  0  0  0  0
   -6.2803    0.0000   -6.5152 C   0  0  0  0  0  0  0  0  0  0  0  0
   -6.2230   -1.6670   -7.0431 S   0  0  0  0  0  0  0  0  0  0  0  0
   -4.7726    3.3717   -6.6984 C   0  0  0  0  0  0  0  0  0  0  0  0
   -4.7194    4.2689   -5.6717 C   0  0  0  0  0  0  0  0  0  0  0  0
   -5.9203    3.9209   -4.4305 S   0  0  0  0  0  0  0  0  0  0  0  0
   -3.6321    5.1281   -5.3254 C   0  0  0  0  0  0  0  0  0  0  0  0
   -3.5114    5.8919   -4.2017 C   0  0  0  0  0  0  0  0  0  0  0  0
   -2.1666    6.1585   -3.8382 C   0  0  0  0  0  0  0  0  0  0  0  0
   -1.7116    6.6624   -2.6090 C   0  0  0  0  0  0  0  0  0  0  0  0
   -2.6164    7.2915   -1.6390 C   0  0  0  0  0  0  0  0  0  0  0  0
   -2.6647    6.8564   -0.3179 C   0  0  0  0  0  0  0  0  0  0  0  0
   -3.4482    7.4966    0.6212 C   0  0  0  0  0  0  0  0  0  0  0  0
   -4.2123    8.6040    0.2704 C   0  0  0  0  0  0  0  0  0  0  0  0
   -5.1990    9.5379    1.3857 S   0  0  0  0  0  0  0  0  0  0  0  0
   -4.6623    8.9188    3.0259 C   0  0  0  0  0  0  0  0  0  0  0  0
   -5.2414    9.8201    4.1001 C   0  0  0  0  0  0  0  0  0  0  0  0
   -4.1948    8.9989   -1.0698 C   0  0  0  0  0  0  0  0  0  0  0  0
   -4.9467   10.0511   -1.4506 F   0  0  0  0  0  0  0  0  0  0  0  0
   -3.4215    8.3649   -2.0161 C   0  0  0  0  0  0  0  0  0  0  0  0
   -0.3751    6.4430   -2.3132 C   0  0  0  0  0  0  0  0  0  0  0  0
    0.5310    5.8067   -3.1984 C   0  0  0  0  0  0  0  0  0  0  0  0
    0.0975    5.4114   -4.4752 C   0  0  0  0  0  0  0  0  0  0  0  0
    0.9829    4.7095   -5.4145 C   0  0  0  0  0  0  0  0  0  0  0  0
    1.6670    3.5602   -5.0307 C   0  0  0  0  0  0  0  0  0  0  0  0
    2.4935    2.8911   -5.9125 C   0  0  0  0  0  0  0  0  0  0  0  0
    2.6591    3.3458   -7.2152 C   0  0  0  0  0  0  0  0  0  0  0  0
    3.7072    2.6135   -8.4284 S   0  0  0  0  0  0  0  0  0  0  0  0
    4.1109    0.9708   -7.7386 C   0  0  0  0  0  0  0  0  0  0  0  0
    2.9212    0.0299   -7.7571 C   0  0  0  0  0  0  0  0  0  0  0  0
    1.9572    4.4933   -7.5899 C   0  0  0  0  0  0  0  0  0  0  0  0
    1.1284    5.1677   -6.7213 C   0  0  0  0  0  0  0  0  0  0  0  0
    2.0973    4.9622   -8.8450 F   0  0  0  0  0  0  0  0  0  0  0  0
   -1.2483    5.5861   -4.7537 C   0  0  0  0  0  0  0  0  0  0  0  0
   -2.0773    4.8602   -6.1092 S   0  0  0  0  0  0  0  0  0  0  0  0
    1.7684    5.5150   -2.5689 C   0  0  0  0  0  0  0  0  0  0  0  0
    1.8042    5.8661   -1.2517 C   0  0  0  0  0  0  0  0  0  0  0  0
    0.3646    6.7464   -0.7631 S   0  0  0  0  0  0  0  0  0  0  0  0
    2.6466    5.3431   -0.2261 C   0  0  0  0  0  0  0  0  0  0  0  0
    2.5014    5.5452    1.1141 C   0  0  0  0  0  0  0  0  0  0  0  0
    3.1582    4.5785    1.9147 C   0  0  0  0  0  0  0  0  0  0  0  0
    3.0903    4.4297    3.3098 C   0  0  0  0  0  0  0  0  0  0  0  0
    2.2695    5.3316    4.1280 C   0  0  0  0  0  0  0  0  0  0  0  0
    2.7752    5.9499    5.2698 C   0  0  0  0  0  0  0  0  0  0  0  0
    1.9853    6.7974    6.0152 C   0  0  0  0  0  0  0  0  0  0  0  0
    0.6625    7.0699    5.6601 C   0  0  0  0  0  0  0  0  0  0  0  0
   -0.1991    8.2263    6.6746 S   0  0  0  0  0  0  0  0  0  0  0  0
   -1.9802    7.8335    6.4480 C   0  0  0  0  0  0  0  0  0  0  0  0
   -2.7594    8.4542    7.5910 C   0  0  0  0  0  0  0  0  0  0  0  0
    0.1717    6.4430    4.5189 C   0  0  0  0  0  0  0  0  0  0  0  0
   -1.0938    6.6603    4.0834 F   0  0  0  0  0  0  0  0  0  0  0  0
    0.9471    5.5800    3.7724 C   0  0  0  0  0  0  0  0  0  0  0  0
    3.7576    3.3410    3.8513 C   0  0  0  0  0  0  0  0  0  0  0  0
    4.4525    2.3915    3.0615 C   0  0  0  0  0  0  0  0  0  0  0  0
    4.5393    2.5533    1.6680 C   0  0  0  0  0  0  0  0  0  0  0  0
    5.2548    1.5783    0.8356 C   0  0  0  0  0  0  0  0  0  0  0  0
    6.5638    1.2043    1.1369 C   0  0  0  0  0  0  0  0  0  0  0  0
    7.2340    0.2949    0.3470 C   0  0  0  0  0  0  0  0  0  0  0  0
    6.6260   -0.2884   -0.7631 C   0  0  0  0  0  0  0  0  0  0  0  0
    7.5642   -1.4850   -1.6690 S   0  0  0  0  0  0  0  0  0  0  0  0
    7.1463   -1.1510   -3.4202 C   0  0  0  0  0  0  0  0  0  0  0  0
    7.4241    0.2865   -3.8105 C   0  0  0  0  0  0  0  0  0  0  0  0
    5.3119    0.0761   -1.0373 C   0  0  0  0  0  0  0  0  0  0  0  0
    4.6366    1.0018   -0.2686 C   0  0  0  0  0  0  0  0  0  0  0  0
    4.6417   -0.4757   -2.0744 F   0  0  0  0  0  0  0  0  0  0  0  0
    3.8745    3.6419    1.1276 C   0  0  0  0  0  0  0  0  0  0  0  0
    3.7295    4.0059   -0.5751 S   0  0  0  0  0  0  0  0  0  0  0  0
    4.8874    1.2832    3.8317 C   0  0  0  0  0  0  0  0  0  0  0  0
    4.5663    1.3767    5.1529 C   0  0  0  0  0  0  0  0  0  0  0  0
    3.7313    2.8693    5.5302 S   0  0  0  0  0  0  0  0  0  0  0  0
    4.8006    0.3891    6.1627 C   0  0  0  0  0  0  0  0  0  0  0  0
    4.9515   -0.9512    5.9677 C   0  0  0  0  0  0  0  0  0  0  0  0
    5.1611   -1.6816    7.1667 C   0  0  0  0  0  0  0  0  0  0  0  0
    5.2976   -3.0707    7.3237 C   0  0  0  0  0  0  0  0  0  0  0  0
    5.2591   -3.9874    6.1778 C   0  0  0  0  0  0  0  0  0  0  0  0
    6.0402   -3.7735    5.0459 C   0  0  0  0  0  0  0  0  0  0  0  0
    5.9905   -4.6337    3.9650 C   0  0  0  0  0  0  0  0  0  0  0  0
    5.1608   -5.7491    3.9802 C   0  0  0  0  0  0  0  0  0  0  0  0
    4.9664   -6.9159    2.6750 S   0  0  0  0  0  0  0  0  0  0  0  0
    6.2386   -6.4514    1.4515 C   0  0  0  0  0  0  0  0  0  0  0  0
    7.6345   -6.8602    1.8829 C   0  0  0  0  0  0  0  0  0  0  0  0
    4.3919   -5.9576    5.1271 C   0  0  0  0  0  0  0  0  0  0  0  0
    3.5815   -7.0343    5.1791 F   0  0  0  0  0  0  0  0  0  0  0  0
    4.4269   -5.1059    6.2063 C   0  0  0  0  0  0  0  0  0  0  0  0
    5.4534   -3.5349    8.6233 C   0  0  0  0  0  0  0  0  0  0  0  0
    5.4649   -2.6859    9.7554 C   0  0  0  0  0  0  0  0  0  0  0  0
    5.2923   -1.3028    9.6013 C   0  0  0  0  0  0  0  0  0  0  0  0
    5.2201   -0.4031   10.7592 C   0  0  0  0  0  0  0  0  0  0  0  0
    4.3440   -0.6693   11.8108 C   0  0  0  0  0  0  0  0  0  0  0  0
    4.2665    0.1812   12.8917 C   0  0  0  0  0  0  0  0  0  0  0  0
    5.0504    1.3320   12.9702 C   0  0  0  0  0  0  0  0  0  0  0  0
    4.8133    2.3615   14.3878 S   0  0  0  0  0  0  0  0  0  0  0  0
    6.4795    3.0143   14.7741 C   0  0  0  0  0  0  0  0  0  0  0  0
    7.4778    1.9053   15.0381 C   0  0  0  0  0  0  0  0  0  0  0  0
    5.8996    1.5983   11.9007 C   0  0  0  0  0  0  0  0  0  0  0  0
    5.9978    0.7476   10.8178 C   0  0  0  0  0  0  0  0  0  0  0  0
    6.6690    2.7092   11.8830 F   0  0  0  0  0  0  0  0  0  0  0  0
    5.1601   -0.8336    8.3025 C   0  0  0  0  0  0  0  0  0  0  0  0
    4.9002    0.8315    7.8524 S   0  0  0  0  0  0  0  0  0  0  0  0
    5.7057   -3.4156   10.9580 C   0  0  0  0  0  0  0  0  0  0  0  0
    5.8595   -4.7381   10.7473 C   0  0  0  0  0  0  0  0  0  0  0  0
    5.7195   -5.1973    9.0851 S   0  0  0  0  0  0  0  0  0  0  0  0
    3.0506   -9.3606    3.8768 H   0  0  0  0  0  0  0  0  0  0  0  0
    2.6260  -11.1921   -0.8017 H   0  0  0  0  0  0  0  0  0  0  0  0
    2.0977   -9.5668   -1.2210 H   0  0  0  0  0  0  0  0  0  0  0  0
    2.2229  -11.0082   -3.2170 H   0  0  0  0  0  0  0  0  0  0  0  0
    0.5665  -10.4804   -2.9438 H   0  0  0  0  0  0  0  0  0  0  0  0
    1.0525  -12.1280   -2.5271 H   0  0  0  0  0  0  0  0  0  0  0  0
   -0.4476  -12.3767   -0.8055 H   0  0  0  0  0  0  0  0  0  0  0  0
   -0.6671  -12.0285    0.9058 H   0  0  0  0  0  0  0  0  0  0  0  0
    0.5838  -14.1182    0.6088 H   0  0  0  0  0  0  0  0  0  0  0  0
    1.6065  -12.9184    1.3927 H   0  0  0  0  0  0  0  0  0  0  0  0
    1.8329  -13.2952   -0.3195 H   0  0  0  0  0  0  0  0  0  0  0  0
    3.0173  -11.1186    1.9482 H   0  0  0  0  0  0  0  0  0  0  0  0
   -1.5795  -10.1877   -2.2064 H   0  0  0  0  0  0  0  0  0  0  0  0
   -6.0996   -7.8017   -6.8228 H   0  0  0  0  0  0  0  0  0  0  0  0
   -5.2294   -8.9980   -5.8517 H   0  0  0  0  0  0  0  0  0  0  0  0
   -6.7328   -8.5177   -3.9178 H   0  0  0  0  0  0  0  0  0  0  0  0
   -7.6338   -9.0680   -5.3317 H   0  0  0  0  0  0  0  0  0  0  0  0
   -7.6232   -7.3567   -4.9031 H   0  0  0  0  0  0  0  0  0  0  0  0
   -4.1756   -6.3138   -7.2059 H   0  0  0  0  0  0  0  0  0  0  0  0
   -3.1417   -5.8109   -5.8688 H   0  0  0  0  0  0  0  0  0  0  0  0
   -3.2998   -8.6592   -6.9703 H   0  0  0  0  0  0  0  0  0  0  0  0
   -2.0350   -7.4821   -7.3050 H   0  0  0  0  0  0  0  0  0  0  0  0
   -2.2350   -8.1029   -5.6719 H   0  0  0  0  0  0  0  0  0  0  0  0
   -3.0187   -9.0033   -3.7919 H   0  0  0  0  0  0  0  0  0  0  0  0
   -6.2134   -4.6442   -6.8819 H   0  0  0  0  0  0  0  0  0  0  0  0
   -7.5859   -1.3133   -3.6991 H   0  0  0  0  0  0  0  0  0  0  0  0
   -6.3179    0.0144   -2.2969 H   0  0  0  0  0  0  0  0  0  0  0  0
   -7.2842    0.3105   -0.0924 H   0  0  0  0  0  0  0  0  0  0  0  0
   -9.3964    0.9808    2.8604 H   0  0  0  0  0  0  0  0  0  0  0  0
   -7.9626    0.5734    1.9085 H   0  0  0  0  0  0  0  0  0  0  0  0
   -9.4420   -0.7780    0.3488 H   0  0  0  0  0  0  0  0  0  0  0  0
  -10.8359   -0.3549    1.3441 H   0  0  0  0  0  0  0  0  0  0  0  0
   -9.5521   -1.3723    2.0097 H   0  0  0  0  0  0  0  0  0  0  0  0
   -8.8397    3.1162   -3.8346 H   0  0  0  0  0  0  0  0  0  0  0  0
   -4.0311   -0.7843   -8.2441 H   0  0  0  0  0  0  0  0  0  0  0  0
   -3.1999   -0.8970  -10.5170 H   0  0  0  0  0  0  0  0  0  0  0  0
   -2.7319   -0.7726  -14.1835 H   0  0  0  0  0  0  0  0  0  0  0  0
   -2.3817   -1.0913  -12.4794 H   0  0  0  0  0  0  0  0  0  0  0  0
   -4.8009   -1.8054  -12.1690 H   0  0  0  0  0  0  0  0  0  0  0  0
   -3.9884   -2.7959  -13.3875 H   0  0  0  0  0  0  0  0  0  0  0  0
   -5.0832   -1.4996  -13.8834 H   0  0  0  0  0  0  0  0  0  0  0  0
   -6.1568    2.8130   -9.1889 H   0  0  0  0  0  0  0  0  0  0  0  0
   -4.1088    3.4163   -7.5442 H   0  0  0  0  0  0  0  0  0  0  0  0
   -4.3508    6.1565   -3.5827 H   0  0  0  0  0  0  0  0  0  0  0  0
   -2.0959    5.9906   -0.0175 H   0  0  0  0  0  0  0  0  0  0  0  0
   -3.4534    7.1251    1.6323 H   0  0  0  0  0  0  0  0  0  0  0  0
   -5.0239    7.8966    3.1407 H   0  0  0  0  0  0  0  0  0  0  0  0
   -3.5726    8.9361    3.0445 H   0  0  0  0  0  0  0  0  0  0  0  0
   -6.3278    9.8210    4.0509 H   0  0  0  0  0  0  0  0  0  0  0  0
   -4.9366    9.4680    5.0836 H   0  0  0  0  0  0  0  0  0  0  0  0
   -4.8907   10.8412    3.9698 H   0  0  0  0  0  0  0  0  0  0  0  0
   -3.4254    8.7275   -3.0322 H   0  0  0  0  0  0  0  0  0  0  0  0
    1.5337    3.1662   -4.0346 H   0  0  0  0  0  0  0  0  0  0  0  0
    3.0110    2.0104   -5.5685 H   0  0  0  0  0  0  0  0  0  0  0  0
    4.5240    1.1016   -6.7392 H   0  0  0  0  0  0  0  0  0  0  0  0
    4.9017    0.6082   -8.3954 H   0  0  0  0  0  0  0  0  0  0  0  0
    2.5599   -0.0955   -8.7750 H   0  0  0  0  0  0  0  0  0  0  0  0
    2.1057    0.4179   -7.1504 H   0  0  0  0  0  0  0  0  0  0  0  0
    3.2122   -0.9437   -7.3671 H   0  0  0  0  0  0  0  0  0  0  0  0
    0.6122    6.0510   -7.0630 H   0  0  0  0  0  0  0  0  0  0  0  0
    2.5793    5.0004   -3.0522 H   0  0  0  0  0  0  0  0  0  0  0  0
    1.8996    6.3428    1.5103 H   0  0  0  0  0  0  0  0  0  0  0  0
    3.7978    5.7745    5.5659 H   0  0  0  0  0  0  0  0  0  0  0  0
    2.3827    7.2773    6.8959 H   0  0  0  0  0  0  0  0  0  0  0  0
   -2.3036    8.2360    5.4892 H   0  0  0  0  0  0  0  0  0  0  0  0
   -2.0779    6.7491    6.4476 H   0  0  0  0  0  0  0  0  0  0  0  0
   -2.6322    9.5345    7.5976 H   0  0  0  0  0  0  0  0  0  0  0  0
   -3.8179    8.2269    7.4812 H   0  0  0  0  0  0  0  0  0  0  0  0
   -2.4158    8.0615    8.5451 H   0  0  0  0  0  0  0  0  0  0  0  0
    0.5001    5.0985    2.9166 H   0  0  0  0  0  0  0  0  0  0  0  0
    7.0652    1.6539    1.9804 H   0  0  0  0  0  0  0  0  0  0  0  0
    8.2516    0.0182    0.5751 H   0  0  0  0  0  0  0  0  0  0  0  0
    6.1091   -1.4295   -3.5946 H   0  0  0  0  0  0  0  0  0  0  0  0
    7.7950   -1.8383   -3.9636 H   0  0  0  0  0  0  0  0  0  0  0  0
    7.2536    0.4149   -4.8777 H   0  0  0  0  0  0  0  0  0  0  0  0
    6.7699    0.9706   -3.2728 H   0  0  0  0  0  0  0  0  0  0  0  0
    8.4560    0.5503   -3.5887 H   0  0  0  0  0  0  0  0  0  0  0  0
    3.6156    1.2379   -0.5233 H   0  0  0  0  0  0  0  0  0  0  0  0
    5.4029    0.4389    3.4117 H   0  0  0  0  0  0  0  0  0  0  0  0
    4.8707   -1.4127    5.0009 H   0  0  0  0  0  0  0  0  0  0  0  0
    6.7168   -2.9325    5.0170 H   0  0  0  0  0  0  0  0  0  0  0  0
    6.6075   -4.4213    3.1070 H   0  0  0  0  0  0  0  0  0  0  0  0
    6.1568   -5.3835    1.2537 H   0  0  0  0  0  0  0  0  0  0  0  0
    5.9381   -6.9927    0.5543 H   0  0  0  0  0  0  0  0  0  0  0  0
    7.9178   -6.3723    2.8129 H   0  0  0  0  0  0  0  0  0  0  0  0
    8.3536   -6.5866    1.1131 H   0  0  0  0  0  0  0  0  0  0  0  0
    7.6792   -7.9360    2.0353 H   0  0  0  0  0  0  0  0  0  0  0  0
    3.7917   -5.3096    7.0534 H   0  0  0  0  0  0  0  0  0  0  0  0
    3.7103   -1.5421   11.7686 H   0  0  0  0  0  0  0  0  0  0  0  0
    3.5875   -0.0278   13.7038 H   0  0  0  0  0  0  0  0  0  0  0  0
    6.8003    3.6704   13.9683 H   0  0  0  0  0  0  0  0  0  0  0  0
    6.3085    3.6105   15.6706 H   0  0  0  0  0  0  0  0  0  0  0  0
    8.4288    2.3351   15.3460 H   0  0  0  0  0  0  0  0  0  0  0  0
    7.6446    1.3111   14.1416 H   0  0  0  0  0  0  0  0  0  0  0  0
    7.1187    1.2479   15.8272 H   0  0  0  0  0  0  0  0  0  0  0  0
    6.6893    0.9959   10.0278 H   0  0  0  0  0  0  0  0  0  0  0  0
    5.7765   -2.9520   11.9251 H   0  0  0  0  0  0  0  0  0  0  0  0
    6.0512   -5.5036   11.4736 H   0  0  0  0  0  0  0  0  0  0  0  0
  1  2  1  0  0  0  0
  2  3  1  0  0  0  0
  3  4  1  0  0  0  0
  4  5  2  0  0  0  0
  5  6  1  0  0  0  0
  6  7  1  0  0  0  0
  7  8  1  0  0  0  0
  6  9  1  0  0  0  0
  9 10  1  0  0  0  0
  6 11  1  0  0  0  0
 11 12  1  0  0  0  0
  5 13  1  0  0  0  0
 13 14  2  0  0  0  0
 14 15  1  0  0  0  0
 14 16  1  0  0  0  0
 16 17  1  0  0  0  0
 17 18  1  0  0  0  0
 18 19  1  0  0  0  0
 19 20  2  0  0  0  0
 20 21  1  0  0  0  0
 21 22  1  0  0  0  0
 22 23  1  0  0  0  0
 21 24  1  0  0  0  0
 24 25  1  0  0  0  0
 21 26  1  0  0  0  0
 26 27  1  0  0  0  0
 20 28  1  0  0  0  0
 28 29  2  0  0  0  0
 29 30  1  0  0  0  0
 29 31  1  0  0  0  0
 31 32  2  0  0  0  0
 32 33  1  0  0  0  0
 33 34  2  0  0  0  0
 34 35  1  0  0  0  0
 35 36  2  0  0  0  0
 36 37  1  0  0  0  0
 37 38  2  0  0  0  0
 38 39  1  0  0  0  0
 39 40  1  0  0  0  0
 40 41  1  0  0  0  0
 38 42  1  0  0  0  0
 42 43  1  0  0  0  0
 42 44  2  0  0  0  0
 34 45  1  0  0  0  0
 45 46  2  0  0  0  0
 46 47  1  0  0  0  0
 47 48  1  0  0  0  0
 48 49  2  0  0  0  0
 49 50  1  0  0  0  0
 50 51  2  0  0  0  0
 51 52  1  0  0  0  0
 52 53  1  0  0  0  0
 53 54  1  0  0  0  0
 51 55  1  0  0  0  0
 55 56  2  0  0  0  0
 55 57  1  0  0  0  0
 47 58  2  0  0  0  0
 58 59  1  0  0  0  0
 46 60  1  0  0  0  0
 60 61  2  0  0  0  0
 61 62  1  0  0  0  0
 61 63  1  0  0  0  0
 63 64  2  0  0  0  0
 64 65  1  0  0  0  0
 65 66  2  0  0  0  0
 66 67  1  0  0  0  0
 67 68  2  0  0  0  0
 68 69  1  0  0  0  0
 69 70  2  0  0  0  0
 70 71  1  0  0  0  0
 71 72  1  0  0  0  0
 72 73  1  0  0  0  0
 70 74  1  0  0  0  0
 74 75  1  0  0  0  0
 74 76  2  0  0  0  0
 66 77  1  0  0  0  0
 77 78  2  0  0  0  0
 78 79  1  0  0  0  0
 79 80  1  0  0  0  0
 80 81  2  0  0  0  0
 81 82  1  0  0  0  0
 82 83  2  0  0  0  0
 83 84  1  0  0  0  0
 84 85  1  0  0  0  0
 85 86  1  0  0  0  0
 83 87  1  0  0  0  0
 87 88  2  0  0  0  0
 87 89  1  0  0  0  0
 79 90  2  0  0  0  0
 90 91  1  0  0  0  0
 78 92  1  0  0  0  0
 92 93  2  0  0  0  0
 93 94  1  0  0  0  0
 93 95  1  0  0  0  0
 95 96  2  0  0  0  0
 96 97  1  0  0  0  0
 97 98  2  0  0  0  0
 98 99  1  0  0  0  0
 99100  2  0  0  0  0
100101  1  0  0  0  0
101102  2  0  0  0  0
102103  1  0  0  0  0
103104  1  0  0  0  0
104105  1  0  0  0  0
102106  1  0  0  0  0
106107  1  0  0  0  0
106108  2  0  0  0  0
 98109  1  0  0  0  0
109110  2  0  0  0  0
110111  1  0  0  0  0
111112  1  0  0  0  0
112113  2  0  0  0  0
113114  1  0  0  0  0
114115  2  0  0  0  0
115116  1  0  0  0  0
116117  1  0  0  0  0
117118  1  0  0  0  0
115119  1  0  0  0  0
119120  2  0  0  0  0
119121  1  0  0  0  0
111122  2  0  0  0  0
122123  1  0  0  0  0
110124  1  0  0  0  0
124125  2  0  0  0  0
125126  1  0  0  0  0
125127  1  0  0  0  0
127128  2  0  0  0  0
128129  1  0  0  0  0
129130  2  0  0  0  0
130131  1  0  0  0  0
131132  2  0  0  0  0
132133  1  0  0  0  0
133134  2  0  0  0  0
134135  1  0  0  0  0
135136  1  0  0  0  0
136137  1  0  0  0  0
134138  1  0  0  0  0
138139  1  0  0  0  0
138140  2  0  0  0  0
130141  1  0  0  0  0
141142  2  0  0  0  0
142143  1  0  0  0  0
143144  1  0  0  0  0
144145  2  0  0  0  0
145146  1  0  0  0  0
146147  2  0  0  0  0
147148  1  0  0  0  0
148149  1  0  0  0  0
149150  1  0  0  0  0
147151  1  0  0  0  0
151152  2  0  0  0  0
151153  1  0  0  0  0
143154  2  0  0  0  0
154155  1  0  0  0  0
142156  1  0  0  0  0
156157  2  0  0  0  0
157158  1  0  0  0  0
 12  1  2  0  0  0  0
 27 16  2  0  0  0  0
 59 31  1  0  0  0  0
 91 63  1  0  0  0  0
123 95  1  0  0  0  0
155127  1  0  0  0  0
 11  3  2  0  0  0  0
 26 18  2  0  0  0  0
 58 33  1  0  0  0  0
 90 65  1  0  0  0  0
122 97  1  0  0  0  0
154129  1  0  0  0  0
 15  4  1  0  0  0  0
 30 19  1  0  0  0  0
 44 35  1  0  0  0  0
 62 45  1  0  0  0  0
 76 67  1  0  0  0  0
 94 77  1  0  0  0  0
108 99  1  0  0  0  0
126109  1  0  0  0  0
140131  1  0  0  0  0
158141  1  0  0  0  0
 56 48  1  0  0  0  0
 88 80  1  0  0  0  0
120112  1  0  0  0  0
152144  1  0  0  0  0
  1159  1  0  0  0  0
  7160  1  0  0  0  0
  7161  1  0  0  0  0
  8162  1  0  0  0  0
  8163  1  0  0  0  0
  8164  1  0  0  0  0
  9165  1  0  0  0  0
  9166  1  0  0  0  0
 10167  1  0  0  0  0
 10168  1  0  0  0  0
 10169  1  0  0  0  0
 12170  1  0  0  0  0
 13171  1  0  0  0  0
 22172  1  0  0  0  0
 22173  1  0  0  0  0
 23174  1  0  0  0  0
 23175  1  0  0  0  0
 23176  1  0  0  0  0
 24177  1  0  0  0  0
 24178  1  0  0  0  0
 25179  1  0  0  0  0
 25180  1  0  0  0  0
 25181  1  0  0  0  0
 27182  1  0  0  0  0
 28183  1  0  0  0  0
 32184  1  0  0  0  0
 36185  1  0  0  0  0
 37186  1  0  0  0  0
 40187  1  0  0  0  0
 40188  1  0  0  0  0
 41189  1  0  0  0  0
 41190  1  0  0  0  0
 41191  1  0  0  0  0
 44192  1  0  0  0  0
 49193  1  0  0  0  0
 50194  1  0  0  0  0
 53195  1  0  0  0  0
 53196  1  0  0  0  0
 54197  1  0  0  0  0
 54198  1  0  0  0  0
 54199  1  0  0  0  0
 56200  1  0  0  0  0
 60201  1  0  0  0  0
 64202  1  0  0  0  0
 68203  1  0  0  0  0
 69204  1  0  0  0  0
 72205  1  0  0  0  0
 72206  1  0  0  0  0
 73207  1  0  0  0  0
 73208  1  0  0  0  0
 73209  1  0  0  0  0
 76210  1  0  0  0  0
 81211  1  0  0  0  0
 82212  1  0  0  0  0
 85213  1  0  0  0  0
 85214  1  0  0  0  0
 86215  1  0  0  0  0
 86216  1  0  0  0  0
 86217  1  0  0  0  0
 88218  1  0  0  0  0
 92219  1  0  0  0  0
 96220  1  0  0  0  0
100221  1  0  0  0  0
101222  1  0  0  0  0
104223  1  0  0  0  0
104224  1  0  0  0  0
105225  1  0  0  0  0
105226  1  0  0  0  0
105227  1  0  0  0  0
108228  1  0  0  0  0
113229  1  0  0  0  0
114230  1  0  0  0  0
117231  1  0  0  0  0
117232  1  0  0  0  0
118233  1  0  0  0  0
118234  1  0  0  0  0
118235  1  0  0  0  0
120236  1  0  0  0  0
124237  1  0  0  0  0
128238  1  0  0  0  0
132239  1  0  0  0  0
133240  1  0  0  0  0
136241  1  0  0  0  0
136242  1  0  0  0  0
137243  1  0  0  0  0
137244  1  0  0  0  0
137245  1  0  0  0  0
140246  1  0  0  0  0
145247  1  0  0  0  0
146248  1  0  0  0  0
149249  1  0  0  0  0
149250  1  0  0  0  0
150251  1  0  0  0  0
150252  1  0  0  0  0
150253  1  0  0  0  0
152254  1  0  0  0  0
156255  1  0  0  0  0
157256  1  0  0  0  0
M  END
