
  xtb     03032214053D
 energy: -478.170989449477 gnorm: 0.000323566867 xtb: 6.4.1 (unknown)
279306  0     0  0            999 V2000
   -5.2758   -2.8004   10.3438 C   0  0  0  0  0  0  0  0  0  0  0  0
   -4.9094   -1.8675    9.4423 C   0  0  0  0  0  0  0  0  0  0  0  0
   -5.2168   -2.2417    8.1002 C   0  0  0  0  0  0  0  0  0  0  0  0
   -4.9391   -1.5414    6.9178 C   0  0  0  0  0  0  0  0  0  0  0  0
   -4.2352   -0.2519    6.9129 C   0  0  0  0  0  0  0  0  0  0  0  0
   -3.0999   -0.0917    6.1239 C   0  0  0  0  0  0  0  0  0  0  0  0
   -2.4058    1.1016    6.0952 C   0  0  0  0  0  0  0  0  0  0  0  0
   -2.8265    2.1855    6.8555 C   0  0  0  0  0  0  0  0  0  0  0  0
   -2.0514    3.7661    6.9061 S   0  0  0  0  0  0  0  0  0  0  0  0
   -0.6970    3.6562    5.6881 C   0  0  0  0  0  0  0  0  0  0  0  0
    0.5502    3.0019    6.2519 C   0  0  0  0  0  0  0  0  0  0  0  0
   -3.9673    2.0116    7.6423 C   0  0  0  0  0  0  0  0  0  0  0  0
   -4.4062    3.0456    8.3897 F   0  0  0  0  0  0  0  0  0  0  0  0
   -4.6663    0.8258    7.6828 C   0  0  0  0  0  0  0  0  0  0  0  0
   -5.3055   -2.1594    5.7312 C   0  0  0  0  0  0  0  0  0  0  0  0
   -5.8839   -3.4502    5.6675 C   0  0  0  0  0  0  0  0  0  0  0  0
   -6.1381   -4.1616    6.8504 C   0  0  0  0  0  0  0  0  0  0  0  0
   -6.6655   -5.5306    6.8214 C   0  0  0  0  0  0  0  0  0  0  0  0
   -6.0633   -6.5029    6.0278 C   0  0  0  0  0  0  0  0  0  0  0  0
   -6.5326   -7.8020    6.0035 C   0  0  0  0  0  0  0  0  0  0  0  0
   -7.6296   -8.1749    6.7726 C   0  0  0  0  0  0  0  0  0  0  0  0
   -8.3332   -9.7844    6.8356 S   0  0  0  0  0  0  0  0  0  0  0  0
   -7.2921  -10.7520    5.6794 C   0  0  0  0  0  0  0  0  0  0  0  0
   -7.8060  -12.1789    5.6433 C   0  0  0  0  0  0  0  0  0  0  0  0
   -8.2224   -7.1890    7.5658 C   0  0  0  0  0  0  0  0  0  0  0  0
   -7.7602   -5.8938    7.6036 C   0  0  0  0  0  0  0  0  0  0  0  0
   -9.2904   -7.5166    8.3201 F   0  0  0  0  0  0  0  0  0  0  0  0
   -5.8227   -3.5207    8.0414 C   0  0  0  0  0  0  0  0  0  0  0  0
   -6.0103   -4.1988    9.6384 S   0  0  0  0  0  0  0  0  0  0  0  0
   -6.1365   -3.8508    4.3278 C   0  0  0  0  0  0  0  0  0  0  0  0
   -5.7867   -2.9144    3.4051 C   0  0  0  0  0  0  0  0  0  0  0  0
   -5.1275   -1.4638    4.1423 S   0  0  0  0  0  0  0  0  0  0  0  0
   -5.7671   -3.0174    1.9802 C   0  0  0  0  0  0  0  0  0  0  0  0
   -5.6420   -1.9985    1.0863 C   0  0  0  0  0  0  0  0  0  0  0  0
   -5.4162   -2.4311   -0.2445 C   0  0  0  0  0  0  0  0  0  0  0  0
   -5.1732   -1.6357   -1.3764 C   0  0  0  0  0  0  0  0  0  0  0  0
   -5.1698   -0.1688   -1.3156 C   0  0  0  0  0  0  0  0  0  0  0  0
   -4.4309    0.5216   -0.3547 C   0  0  0  0  0  0  0  0  0  0  0  0
   -4.4498    1.8970   -0.3134 C   0  0  0  0  0  0  0  0  0  0  0  0
   -5.2053    2.6514   -1.2138 C   0  0  0  0  0  0  0  0  0  0  0  0
   -5.1931    4.3925   -0.9395 S   0  0  0  0  0  0  0  0  0  0  0  0
   -5.6274    5.1888   -2.5275 C   0  0  0  0  0  0  0  0  0  0  0  0
   -4.5972    4.9252   -3.6058 C   0  0  0  0  0  0  0  0  0  0  0  0
   -5.9268    1.9475   -2.1724 C   0  0  0  0  0  0  0  0  0  0  0  0
   -6.7030    2.5846   -3.0792 F   0  0  0  0  0  0  0  0  0  0  0  0
   -5.9021    0.5683   -2.2385 C   0  0  0  0  0  0  0  0  0  0  0  0
   -4.8563   -2.3083   -2.5457 C   0  0  0  0  0  0  0  0  0  0  0  0
   -4.7731   -3.7194   -2.6317 C   0  0  0  0  0  0  0  0  0  0  0  0
   -5.0835   -4.5193   -1.5161 C   0  0  0  0  0  0  0  0  0  0  0  0
   -4.9582   -5.9778   -1.6142 C   0  0  0  0  0  0  0  0  0  0  0  0
   -4.2203   -6.7087   -0.6841 C   0  0  0  0  0  0  0  0  0  0  0  0
   -4.0029   -8.0577   -0.8633 C   0  0  0  0  0  0  0  0  0  0  0  0
   -4.5134   -8.7364   -1.9682 C   0  0  0  0  0  0  0  0  0  0  0  0
   -4.1349  -10.4564   -2.1223 S   0  0  0  0  0  0  0  0  0  0  0  0
   -3.7717  -10.6701   -3.9121 C   0  0  0  0  0  0  0  0  0  0  0  0
   -4.8363  -11.4773   -4.6265 C   0  0  0  0  0  0  0  0  0  0  0  0
   -5.3042   -8.0090   -2.8530 C   0  0  0  0  0  0  0  0  0  0  0  0
   -5.5170   -6.6551   -2.6953 C   0  0  0  0  0  0  0  0  0  0  0  0
   -5.8844   -8.6102   -3.9152 F   0  0  0  0  0  0  0  0  0  0  0  0
   -5.3843   -3.8466   -0.3413 C   0  0  0  0  0  0  0  0  0  0  0  0
   -5.6938   -4.5904    1.2083 S   0  0  0  0  0  0  0  0  0  0  0  0
   -4.1673   -4.1368   -3.8433 C   0  0  0  0  0  0  0  0  0  0  0  0
   -3.7871   -3.1039   -4.6501 C   0  0  0  0  0  0  0  0  0  0  0  0
   -4.2809   -1.5488   -4.0068 S   0  0  0  0  0  0  0  0  0  0  0  0
   -2.8297   -3.1526   -5.7091 C   0  0  0  0  0  0  0  0  0  0  0  0
   -2.0072   -4.2032   -6.0031 C   0  0  0  0  0  0  0  0  0  0  0  0
   -0.8490   -3.8312   -6.7324 C   0  0  0  0  0  0  0  0  0  0  0  0
    0.3271   -4.5941   -6.8825 C   0  0  0  0  0  0  0  0  0  0  0  0
    0.2923   -6.0225   -6.5471 C   0  0  0  0  0  0  0  0  0  0  0  0
   -0.7189   -6.8289   -7.0725 C   0  0  0  0  0  0  0  0  0  0  0  0
   -0.8108   -8.1595   -6.7280 C   0  0  0  0  0  0  0  0  0  0  0  0
    0.0878   -8.7393   -5.8338 C   0  0  0  0  0  0  0  0  0  0  0  0
   -0.1885  -10.4305   -5.3943 S   0  0  0  0  0  0  0  0  0  0  0  0
    1.4903  -11.1538   -5.3026 C   0  0  0  0  0  0  0  0  0  0  0  0
    2.2495  -10.9910   -6.6036 C   0  0  0  0  0  0  0  0  0  0  0  0
    1.0857   -7.9223   -5.3115 C   0  0  0  0  0  0  0  0  0  0  0  0
    1.9702   -8.4022   -4.4101 F   0  0  0  0  0  0  0  0  0  0  0  0
    1.2051   -6.5936   -5.6675 C   0  0  0  0  0  0  0  0  0  0  0  0
    1.4751   -3.8951   -7.2257 C   0  0  0  0  0  0  0  0  0  0  0  0
    1.4582   -2.5127   -7.5470 C   0  0  0  0  0  0  0  0  0  0  0  0
    0.2729   -1.7678   -7.4652 C   0  0  0  0  0  0  0  0  0  0  0  0
    0.2439   -0.2991   -7.5584 C   0  0  0  0  0  0  0  0  0  0  0  0
    0.9981    0.4710   -6.6727 C   0  0  0  0  0  0  0  0  0  0  0  0
    0.8778    1.8427   -6.6587 C   0  0  0  0  0  0  0  0  0  0  0  0
    0.0241    2.5073   -7.5399 C   0  0  0  0  0  0  0  0  0  0  0  0
   -0.0032    4.2671   -7.4173 S   0  0  0  0  0  0  0  0  0  0  0  0
   -1.6996    4.7654   -7.8923 C   0  0  0  0  0  0  0  0  0  0  0  0
   -2.7513    4.1601   -6.9848 C   0  0  0  0  0  0  0  0  0  0  0  0
   -0.6881    1.7273   -8.4455 C   0  0  0  0  0  0  0  0  0  0  0  0
   -0.6082    0.3476   -8.4424 C   0  0  0  0  0  0  0  0  0  0  0  0
   -1.5017    2.2911   -9.3650 F   0  0  0  0  0  0  0  0  0  0  0  0
   -0.8499   -2.4479   -7.0320 C   0  0  0  0  0  0  0  0  0  0  0  0
   -2.3133   -1.6700   -6.4873 S   0  0  0  0  0  0  0  0  0  0  0  0
    2.7585   -1.9803   -7.6878 C   0  0  0  0  0  0  0  0  0  0  0  0
    3.7542   -2.8647   -7.3764 C   0  0  0  0  0  0  0  0  0  0  0  0
    3.1235   -4.4800   -7.1217 S   0  0  0  0  0  0  0  0  0  0  0  0
    5.0155   -2.4140   -6.8624 C   0  0  0  0  0  0  0  0  0  0  0  0
    5.4827   -1.1380   -6.9988 C   0  0  0  0  0  0  0  0  0  0  0  0
    6.1968   -0.6770   -5.8644 C   0  0  0  0  0  0  0  0  0  0  0  0
    6.4050    0.6613   -5.5027 C   0  0  0  0  0  0  0  0  0  0  0  0
    6.0600    1.7848   -6.3876 C   0  0  0  0  0  0  0  0  0  0  0  0
    6.9769    2.7982   -6.6551 C   0  0  0  0  0  0  0  0  0  0  0  0
    6.6182    3.8800   -7.4318 C   0  0  0  0  0  0  0  0  0  0  0  0
    5.3417    3.9894   -7.9800 C   0  0  0  0  0  0  0  0  0  0  0  0
    4.9839    5.4109   -8.9675 S   0  0  0  0  0  0  0  0  0  0  0  0
    3.2875    5.8724   -8.4517 C   0  0  0  0  0  0  0  0  0  0  0  0
    3.1937    6.1197   -6.9605 C   0  0  0  0  0  0  0  0  0  0  0  0
    4.4476    2.9528   -7.7311 C   0  0  0  0  0  0  0  0  0  0  0  0
    3.2112    2.9519   -8.2760 F   0  0  0  0  0  0  0  0  0  0  0  0
    4.7823    1.8819   -6.9282 C   0  0  0  0  0  0  0  0  0  0  0  0
    6.7310    0.8972   -4.1772 C   0  0  0  0  0  0  0  0  0  0  0  0
    6.9401   -0.1245   -3.2182 C   0  0  0  0  0  0  0  0  0  0  0  0
    6.8232   -1.4690   -3.6094 C   0  0  0  0  0  0  0  0  0  0  0  0
    6.9534   -2.5937   -2.6714 C   0  0  0  0  0  0  0  0  0  0  0  0
    6.2016   -2.6675   -1.5004 C   0  0  0  0  0  0  0  0  0  0  0  0
    6.3063   -3.7614   -0.6691 C   0  0  0  0  0  0  0  0  0  0  0  0
    7.1667   -4.8191   -0.9622 C   0  0  0  0  0  0  0  0  0  0  0  0
    7.2361   -6.1449    0.1997 S   0  0  0  0  0  0  0  0  0  0  0  0
    7.5788   -7.6248   -0.8354 C   0  0  0  0  0  0  0  0  0  0  0  0
    7.0806   -8.8564   -0.1053 C   0  0  0  0  0  0  0  0  0  0  0  0
    7.9241   -4.7230   -2.1260 C   0  0  0  0  0  0  0  0  0  0  0  0
    7.8104   -3.6443   -2.9796 C   0  0  0  0  0  0  0  0  0  0  0  0
    8.8103   -5.6873   -2.4594 F   0  0  0  0  0  0  0  0  0  0  0  0
    6.4052   -1.7043   -4.9116 C   0  0  0  0  0  0  0  0  0  0  0  0
    5.7232   -3.2189   -5.4632 S   0  0  0  0  0  0  0  0  0  0  0  0
    6.9795    0.4007   -1.8930 C   0  0  0  0  0  0  0  0  0  0  0  0
    6.7089    1.7314   -1.8348 C   0  0  0  0  0  0  0  0  0  0  0  0
    6.5955    2.4623   -3.4274 S   0  0  0  0  0  0  0  0  0  0  0  0
    6.1572    2.4863   -0.7330 C   0  0  0  0  0  0  0  0  0  0  0  0
    6.5495    2.7669    0.5321 C   0  0  0  0  0  0  0  0  0  0  0  0
    5.5552    3.4547    1.2940 C   0  0  0  0  0  0  0  0  0  0  0  0
    5.6120    3.8692    2.6354 C   0  0  0  0  0  0  0  0  0  0  0  0
    6.8361    3.7371    3.4335 C   0  0  0  0  0  0  0  0  0  0  0  0
    6.8090    3.1793    4.7077 C   0  0  0  0  0  0  0  0  0  0  0  0
    7.9566    3.0741    5.4699 C   0  0  0  0  0  0  0  0  0  0  0  0
    9.1763    3.5330    4.9849 C   0  0  0  0  0  0  0  0  0  0  0  0
   10.7081    3.4705    5.8443 S   0  0  0  0  0  0  0  0  0  0  0  0
   10.2494    2.8064    7.4887 C   0  0  0  0  0  0  0  0  0  0  0  0
   11.4887    2.7841    8.3634 C   0  0  0  0  0  0  0  0  0  0  0  0
    9.1889    4.0898    3.7033 C   0  0  0  0  0  0  0  0  0  0  0  0
   10.3548    4.5466    3.2022 F   0  0  0  0  0  0  0  0  0  0  0  0
    8.0546    4.1947    2.9327 C   0  0  0  0  0  0  0  0  0  0  0  0
    4.4587    4.4339    3.1642 C   0  0  0  0  0  0  0  0  0  0  0  0
    3.2543    4.5877    2.4328 C   0  0  0  0  0  0  0  0  0  0  0  0
    3.1862    4.1508    1.1009 C   0  0  0  0  0  0  0  0  0  0  0  0
    1.9342    4.0917    0.3386 C   0  0  0  0  0  0  0  0  0  0  0  0
    0.7921    3.5272    0.9099 C   0  0  0  0  0  0  0  0  0  0  0  0
   -0.3318    3.2847    0.1497 C   0  0  0  0  0  0  0  0  0  0  0  0
   -0.3645    3.5957   -1.2074 C   0  0  0  0  0  0  0  0  0  0  0  0
   -1.8112    3.1853   -2.1364 S   0  0  0  0  0  0  0  0  0  0  0  0
   -1.1004    2.5119   -3.6936 C   0  0  0  0  0  0  0  0  0  0  0  0
   -2.0537    1.4813   -4.2643 C   0  0  0  0  0  0  0  0  0  0  0  0
    0.7510    4.2277   -1.7481 C   0  0  0  0  0  0  0  0  0  0  0  0
    1.8860    4.4677   -1.0012 C   0  0  0  0  0  0  0  0  0  0  0  0
    0.7533    4.6161   -3.0413 F   0  0  0  0  0  0  0  0  0  0  0  0
    4.3592    3.6395    0.5600 C   0  0  0  0  0  0  0  0  0  0  0  0
    4.5244    3.0521   -1.0657 S   0  0  0  0  0  0  0  0  0  0  0  0
    2.2495    5.2415    3.1878 C   0  0  0  0  0  0  0  0  0  0  0  0
    2.6434    5.5751    4.4526 C   0  0  0  0  0  0  0  0  0  0  0  0
    4.2927    5.0752    4.7791 S   0  0  0  0  0  0  0  0  0  0  0  0
    1.8787    6.2423    5.4521 C   0  0  0  0  0  0  0  0  0  0  0  0
    2.4171    6.2692    7.1178 S   0  0  0  0  0  0  0  0  0  0  0  0
    1.0184    7.1552    7.5587 C   0  0  0  0  0  0  0  0  0  0  0  0
    0.4670    7.7379    8.7279 C   0  0  0  0  0  0  0  0  0  0  0  0
   -0.7188    8.3769    8.3994 C   0  0  0  0  0  0  0  0  0  0  0  0
   -1.0191    8.2323    6.9232 C   0  0  0  0  0  0  0  0  0  0  0  0
   -2.3481    7.4680    6.7686 C   0  0  0  0  0  0  0  0  0  0  0  0
   -2.7879    7.2142    5.3334 C   0  0  0  0  0  0  0  0  0  0  0  0
   -0.9840    9.5827    6.1809 C   0  0  0  0  0  0  0  0  0  0  0  0
   -2.0702   10.5676    6.5908 C   0  0  0  0  0  0  0  0  0  0  0  0
    0.1767    7.4141    6.4824 C   0  0  0  0  0  0  0  0  0  0  0  0
    0.6745    6.9031    5.2852 C   0  0  0  0  0  0  0  0  0  0  0  0
   -1.3428    8.9394    9.5236 C   0  0  0  0  0  0  0  0  0  0  0  0
   -0.6160    8.7381   10.6602 C   0  0  0  0  0  0  0  0  0  0  0  0
    0.8392    7.8457   10.4011 S   0  0  0  0  0  0  0  0  0  0  0  0
   -5.1642   -2.7656   11.4100 H   0  0  0  0  0  0  0  0  0  0  0  0
   -4.4248   -0.9441    9.7021 H   0  0  0  0  0  0  0  0  0  0  0  0
   -2.7385   -0.9215    5.5361 H   0  0  0  0  0  0  0  0  0  0  0  0
   -1.5298    1.1742    5.4723 H   0  0  0  0  0  0  0  0  0  0  0  0
   -0.4937    4.6968    5.4351 H   0  0  0  0  0  0  0  0  0  0  0  0
   -1.0763    3.1492    4.8020 H   0  0  0  0  0  0  0  0  0  0  0  0
    0.3582    1.9762    6.5588 H   0  0  0  0  0  0  0  0  0  0  0  0
    1.3377    3.0010    5.4999 H   0  0  0  0  0  0  0  0  0  0  0  0
    0.9026    3.5564    7.1184 H   0  0  0  0  0  0  0  0  0  0  0  0
   -5.5535    0.7573    8.2927 H   0  0  0  0  0  0  0  0  0  0  0  0
   -5.1961   -6.2467    5.4380 H   0  0  0  0  0  0  0  0  0  0  0  0
   -6.0320   -8.5241    5.3797 H   0  0  0  0  0  0  0  0  0  0  0  0
   -7.3609  -10.2889    4.6949 H   0  0  0  0  0  0  0  0  0  0  0  0
   -6.2647  -10.7182    6.0424 H   0  0  0  0  0  0  0  0  0  0  0  0
   -7.7586  -12.6258    6.6335 H   0  0  0  0  0  0  0  0  0  0  0  0
   -8.8389  -12.2031    5.3040 H   0  0  0  0  0  0  0  0  0  0  0  0
   -7.2002  -12.7723    4.9619 H   0  0  0  0  0  0  0  0  0  0  0  0
   -8.2673   -5.1738    8.2259 H   0  0  0  0  0  0  0  0  0  0  0  0
   -6.5755   -4.7947    4.0587 H   0  0  0  0  0  0  0  0  0  0  0  0
   -5.6978   -0.9653    1.3778 H   0  0  0  0  0  0  0  0  0  0  0  0
   -3.8175   -0.0261    0.3443 H   0  0  0  0  0  0  0  0  0  0  0  0
   -3.8776    2.4294    0.4299 H   0  0  0  0  0  0  0  0  0  0  0  0
   -5.6567    6.2471   -2.2658 H   0  0  0  0  0  0  0  0  0  0  0  0
   -6.6243    4.8712   -2.8239 H   0  0  0  0  0  0  0  0  0  0  0  0
   -4.5711    3.8693   -3.8651 H   0  0  0  0  0  0  0  0  0  0  0  0
   -3.6081    5.2209   -3.2640 H   0  0  0  0  0  0  0  0  0  0  0  0
   -4.8503    5.4933   -4.4988 H   0  0  0  0  0  0  0  0  0  0  0  0
   -6.4933    0.0797   -2.9977 H   0  0  0  0  0  0  0  0  0  0  0  0
   -3.7749   -6.2069    0.1603 H   0  0  0  0  0  0  0  0  0  0  0  0
   -3.4069   -8.6129   -0.1561 H   0  0  0  0  0  0  0  0  0  0  0  0
   -3.6524   -9.6781   -4.3419 H   0  0  0  0  0  0  0  0  0  0  0  0
   -2.8087  -11.1804   -3.9411 H   0  0  0  0  0  0  0  0  0  0  0  0
   -4.5431  -11.6249   -5.6640 H   0  0  0  0  0  0  0  0  0  0  0  0
   -5.7929  -10.9623   -4.6048 H   0  0  0  0  0  0  0  0  0  0  0  0
   -4.9530  -12.4503   -4.1552 H   0  0  0  0  0  0  0  0  0  0  0  0
   -6.1373   -6.1393   -3.4124 H   0  0  0  0  0  0  0  0  0  0  0  0
   -3.9439   -5.1640   -4.0648 H   0  0  0  0  0  0  0  0  0  0  0  0
   -2.1529   -5.1902   -5.6040 H   0  0  0  0  0  0  0  0  0  0  0  0
   -1.4259   -6.4063   -7.7703 H   0  0  0  0  0  0  0  0  0  0  0  0
   -1.5908   -8.7794   -7.1421 H   0  0  0  0  0  0  0  0  0  0  0  0
    1.2962  -12.2048   -5.0882 H   0  0  0  0  0  0  0  0  0  0  0  0
    2.0200  -10.7117   -4.4616 H   0  0  0  0  0  0  0  0  0  0  0  0
    3.2052  -11.5067   -6.5352 H   0  0  0  0  0  0  0  0  0  0  0  0
    2.4416   -9.9403   -6.8133 H   0  0  0  0  0  0  0  0  0  0  0  0
    1.6835  -11.4116   -7.4323 H   0  0  0  0  0  0  0  0  0  0  0  0
    1.9888   -6.0085   -5.2131 H   0  0  0  0  0  0  0  0  0  0  0  0
    1.6466   -0.0201   -5.9616 H   0  0  0  0  0  0  0  0  0  0  0  0
    1.4406    2.4355   -5.9542 H   0  0  0  0  0  0  0  0  0  0  0  0
   -1.6728    5.8507   -7.7905 H   0  0  0  0  0  0  0  0  0  0  0  0
   -1.8653    4.5133   -8.9370 H   0  0  0  0  0  0  0  0  0  0  0  0
   -2.7567    3.0748   -7.0630 H   0  0  0  0  0  0  0  0  0  0  0  0
   -2.5655    4.4338   -5.9487 H   0  0  0  0  0  0  0  0  0  0  0  0
   -3.7346    4.5274   -7.2711 H   0  0  0  0  0  0  0  0  0  0  0  0
   -1.2020   -0.2089   -9.1508 H   0  0  0  0  0  0  0  0  0  0  0  0
    2.9352   -0.9412   -7.8936 H   0  0  0  0  0  0  0  0  0  0  0  0
    5.2307   -0.5075   -7.8308 H   0  0  0  0  0  0  0  0  0  0  0  0
    7.9738    2.7364   -6.2461 H   0  0  0  0  0  0  0  0  0  0  0  0
    7.3261    4.6700   -7.6276 H   0  0  0  0  0  0  0  0  0  0  0  0
    3.0974    6.7854   -9.0157 H   0  0  0  0  0  0  0  0  0  0  0  0
    2.5919    5.1028   -8.7773 H   0  0  0  0  0  0  0  0  0  0  0  0
    2.1836    6.4349   -6.7094 H   0  0  0  0  0  0  0  0  0  0  0  0
    3.8948    6.8929   -6.6535 H   0  0  0  0  0  0  0  0  0  0  0  0
    3.4114    5.2120   -6.4010 H   0  0  0  0  0  0  0  0  0  0  0  0
    4.0288    1.1386   -6.7186 H   0  0  0  0  0  0  0  0  0  0  0  0
    5.5010   -1.8816   -1.2629 H   0  0  0  0  0  0  0  0  0  0  0  0
    5.7120   -3.8230    0.2294 H   0  0  0  0  0  0  0  0  0  0  0  0
    7.0521   -7.4862   -1.7783 H   0  0  0  0  0  0  0  0  0  0  0  0
    8.6516   -7.6794   -1.0143 H   0  0  0  0  0  0  0  0  0  0  0  0
    6.0093   -8.7895    0.0704 H   0  0  0  0  0  0  0  0  0  0  0  0
    7.5820   -8.9602    0.8543 H   0  0  0  0  0  0  0  0  0  0  0  0
    7.2834   -9.7428   -0.7024 H   0  0  0  0  0  0  0  0  0  0  0  0
    8.4163   -3.6230   -3.8724 H   0  0  0  0  0  0  0  0  0  0  0  0
    7.1026   -0.2079   -1.0157 H   0  0  0  0  0  0  0  0  0  0  0  0
    7.5108    2.4910    0.9264 H   0  0  0  0  0  0  0  0  0  0  0  0
    5.8796    2.8022    5.1062 H   0  0  0  0  0  0  0  0  0  0  0  0
    7.8914    2.6284    6.4486 H   0  0  0  0  0  0  0  0  0  0  0  0
    9.4850    3.4584    7.9117 H   0  0  0  0  0  0  0  0  0  0  0  0
    9.8537    1.8001    7.3496 H   0  0  0  0  0  0  0  0  0  0  0  0
   11.8909    3.7879    8.4787 H   0  0  0  0  0  0  0  0  0  0  0  0
   11.2400    2.3917    9.3471 H   0  0  0  0  0  0  0  0  0  0  0  0
   12.2567    2.1547    7.9198 H   0  0  0  0  0  0  0  0  0  0  0  0
    8.1195    4.6575    1.9603 H   0  0  0  0  0  0  0  0  0  0  0  0
    0.8100    3.2274    1.9468 H   0  0  0  0  0  0  0  0  0  0  0  0
   -1.2004    2.8181    0.5878 H   0  0  0  0  0  0  0  0  0  0  0  0
   -0.1439    2.0596   -3.4360 H   0  0  0  0  0  0  0  0  0  0  0  0
   -0.9392    3.3353   -4.3879 H   0  0  0  0  0  0  0  0  0  0  0  0
   -1.6345    1.0530   -5.1727 H   0  0  0  0  0  0  0  0  0  0  0  0
   -3.0136    1.9323   -4.5041 H   0  0  0  0  0  0  0  0  0  0  0  0
   -2.2269    0.6805   -3.5488 H   0  0  0  0  0  0  0  0  0  0  0  0
    2.7186    4.9640   -1.4744 H   0  0  0  0  0  0  0  0  0  0  0  0
    1.2773    5.4716    2.7925 H   0  0  0  0  0  0  0  0  0  0  0  0
   -2.2399    6.5091    7.2806 H   0  0  0  0  0  0  0  0  0  0  0  0
   -3.1255    8.0275    7.2905 H   0  0  0  0  0  0  0  0  0  0  0  0
   -2.9847    8.1433    4.8051 H   0  0  0  0  0  0  0  0  0  0  0  0
   -3.7026    6.6262    5.3394 H   0  0  0  0  0  0  0  0  0  0  0  0
   -2.0345    6.6547    4.7864 H   0  0  0  0  0  0  0  0  0  0  0  0
   -1.0559    9.3841    5.1104 H   0  0  0  0  0  0  0  0  0  0  0  0
   -0.0062   10.0360    6.3644 H   0  0  0  0  0  0  0  0  0  0  0  0
   -1.9801   10.8257    7.6420 H   0  0  0  0  0  0  0  0  0  0  0  0
   -1.9690   11.4813    6.0088 H   0  0  0  0  0  0  0  0  0  0  0  0
   -3.0617   10.1609    6.4124 H   0  0  0  0  0  0  0  0  0  0  0  0
    0.2136    7.0198    4.3211 H   0  0  0  0  0  0  0  0  0  0  0  0
   -2.2829    9.4604    9.5180 H   0  0  0  0  0  0  0  0  0  0  0  0
   -0.8486    9.0624   11.6551 H   0  0  0  0  0  0  0  0  0  0  0  0
  1  2  2  0  0  0  0
  2  3  1  0  0  0  0
  3  4  2  0  0  0  0
  4  5  1  0  0  0  0
  5  6  2  0  0  0  0
  6  7  1  0  0  0  0
  7  8  2  0  0  0  0
  8  9  1  0  0  0  0
  9 10  1  0  0  0  0
 10 11  1  0  0  0  0
  8 12  1  0  0  0  0
 12 13  1  0  0  0  0
 12 14  2  0  0  0  0
  4 15  1  0  0  0  0
 15 16  2  0  0  0  0
 16 17  1  0  0  0  0
 17 18  1  0  0  0  0
 18 19  2  0  0  0  0
 19 20  1  0  0  0  0
 20 21  2  0  0  0  0
 21 22  1  0  0  0  0
 22 23  1  0  0  0  0
 23 24  1  0  0  0  0
 21 25  1  0  0  0  0
 25 26  2  0  0  0  0
 25 27  1  0  0  0  0
 17 28  2  0  0  0  0
 28 29  1  0  0  0  0
 16 30  1  0  0  0  0
 30 31  2  0  0  0  0
 31 32  1  0  0  0  0
 31 33  1  0  0  0  0
 33 34  2  0  0  0  0
 34 35  1  0  0  0  0
 35 36  2  0  0  0  0
 36 37  1  0  0  0  0
 37 38  2  0  0  0  0
 38 39  1  0  0  0  0
 39 40  2  0  0  0  0
 40 41  1  0  0  0  0
 41 42  1  0  0  0  0
 42 43  1  0  0  0  0
 40 44  1  0  0  0  0
 44 45  1  0  0  0  0
 44 46  2  0  0  0  0
 36 47  1  0  0  0  0
 47 48  2  0  0  0  0
 48 49  1  0  0  0  0
 49 50  1  0  0  0  0
 50 51  2  0  0  0  0
 51 52  1  0  0  0  0
 52 53  2  0  0  0  0
 53 54  1  0  0  0  0
 54 55  1  0  0  0  0
 55 56  1  0  0  0  0
 53 57  1  0  0  0  0
 57 58  2  0  0  0  0
 57 59  1  0  0  0  0
 49 60  2  0  0  0  0
 60 61  1  0  0  0  0
 48 62  1  0  0  0  0
 62 63  2  0  0  0  0
 63 64  1  0  0  0  0
 63 65  1  0  0  0  0
 65 66  2  0  0  0  0
 66 67  1  0  0  0  0
 67 68  2  0  0  0  0
 68 69  1  0  0  0  0
 69 70  2  0  0  0  0
 70 71  1  0  0  0  0
 71 72  2  0  0  0  0
 72 73  1  0  0  0  0
 73 74  1  0  0  0  0
 74 75  1  0  0  0  0
 72 76  1  0  0  0  0
 76 77  1  0  0  0  0
 76 78  2  0  0  0  0
 68 79  1  0  0  0  0
 79 80  2  0  0  0  0
 80 81  1  0  0  0  0
 81 82  1  0  0  0  0
 82 83  2  0  0  0  0
 83 84  1  0  0  0  0
 84 85  2  0  0  0  0
 85 86  1  0  0  0  0
 86 87  1  0  0  0  0
 87 88  1  0  0  0  0
 85 89  1  0  0  0  0
 89 90  2  0  0  0  0
 89 91  1  0  0  0  0
 81 92  2  0  0  0  0
 92 93  1  0  0  0  0
 80 94  1  0  0  0  0
 94 95  2  0  0  0  0
 95 96  1  0  0  0  0
 95 97  1  0  0  0  0
 97 98  2  0  0  0  0
 98 99  1  0  0  0  0
 99100  2  0  0  0  0
100101  1  0  0  0  0
101102  2  0  0  0  0
102103  1  0  0  0  0
103104  2  0  0  0  0
104105  1  0  0  0  0
105106  1  0  0  0  0
106107  1  0  0  0  0
104108  1  0  0  0  0
108109  1  0  0  0  0
108110  2  0  0  0  0
100111  1  0  0  0  0
111112  2  0  0  0  0
112113  1  0  0  0  0
113114  1  0  0  0  0
114115  2  0  0  0  0
115116  1  0  0  0  0
116117  2  0  0  0  0
117118  1  0  0  0  0
118119  1  0  0  0  0
119120  1  0  0  0  0
117121  1  0  0  0  0
121122  2  0  0  0  0
121123  1  0  0  0  0
113124  2  0  0  0  0
124125  1  0  0  0  0
112126  1  0  0  0  0
126127  2  0  0  0  0
127128  1  0  0  0  0
127129  1  0  0  0  0
129130  2  0  0  0  0
130131  1  0  0  0  0
131132  2  0  0  0  0
132133  1  0  0  0  0
133134  2  0  0  0  0
134135  1  0  0  0  0
135136  2  0  0  0  0
136137  1  0  0  0  0
137138  1  0  0  0  0
138139  1  0  0  0  0
136140  1  0  0  0  0
140141  1  0  0  0  0
140142  2  0  0  0  0
132143  1  0  0  0  0
143144  2  0  0  0  0
144145  1  0  0  0  0
145146  1  0  0  0  0
146147  2  0  0  0  0
147148  1  0  0  0  0
148149  2  0  0  0  0
149150  1  0  0  0  0
150151  1  0  0  0  0
151152  1  0  0  0  0
149153  1  0  0  0  0
153154  2  0  0  0  0
153155  1  0  0  0  0
145156  2  0  0  0  0
156157  1  0  0  0  0
144158  1  0  0  0  0
158159  2  0  0  0  0
159160  1  0  0  0  0
159161  1  0  0  0  0
161162  1  0  0  0  0
162163  1  0  0  0  0
163164  1  0  0  0  0
164165  2  0  0  0  0
165166  1  0  0  0  0
166167  1  0  0  0  0
167168  1  0  0  0  0
166169  1  0  0  0  0
169170  1  0  0  0  0
166171  1  0  0  0  0
171172  1  0  0  0  0
165173  1  0  0  0  0
173174  2  0  0  0  0
174175  1  0  0  0  0
 29  1  1  0  0  0  0
 61 33  1  0  0  0  0
 93 65  1  0  0  0  0
125 97  1  0  0  0  0
157129  1  0  0  0  0
172161  2  0  0  0  0
 28  3  1  0  0  0  0
 60 35  1  0  0  0  0
 92 67  1  0  0  0  0
124 99  1  0  0  0  0
156131  1  0  0  0  0
171163  2  0  0  0  0
 14  5  1  0  0  0  0
 32 15  1  0  0  0  0
 46 37  1  0  0  0  0
 64 47  1  0  0  0  0
 78 69  1  0  0  0  0
 96 79  1  0  0  0  0
110101  1  0  0  0  0
128111  1  0  0  0  0
142133  1  0  0  0  0
160143  1  0  0  0  0
175164  1  0  0  0  0
 26 18  1  0  0  0  0
 58 50  1  0  0  0  0
 90 82  1  0  0  0  0
122114  1  0  0  0  0
154146  1  0  0  0  0
  1176  1  0  0  0  0
  2177  1  0  0  0  0
  6178  1  0  0  0  0
  7179  1  0  0  0  0
 10180  1  0  0  0  0
 10181  1  0  0  0  0
 11182  1  0  0  0  0
 11183  1  0  0  0  0
 11184  1  0  0  0  0
 14185  1  0  0  0  0
 19186  1  0  0  0  0
 20187  1  0  0  0  0
 23188  1  0  0  0  0
 23189  1  0  0  0  0
 24190  1  0  0  0  0
 24191  1  0  0  0  0
 24192  1  0  0  0  0
 26193  1  0  0  0  0
 30194  1  0  0  0  0
 34195  1  0  0  0  0
 38196  1  0  0  0  0
 39197  1  0  0  0  0
 42198  1  0  0  0  0
 42199  1  0  0  0  0
 43200  1  0  0  0  0
 43201  1  0  0  0  0
 43202  1  0  0  0  0
 46203  1  0  0  0  0
 51204  1  0  0  0  0
 52205  1  0  0  0  0
 55206  1  0  0  0  0
 55207  1  0  0  0  0
 56208  1  0  0  0  0
 56209  1  0  0  0  0
 56210  1  0  0  0  0
 58211  1  0  0  0  0
 62212  1  0  0  0  0
 66213  1  0  0  0  0
 70214  1  0  0  0  0
 71215  1  0  0  0  0
 74216  1  0  0  0  0
 74217  1  0  0  0  0
 75218  1  0  0  0  0
 75219  1  0  0  0  0
 75220  1  0  0  0  0
 78221  1  0  0  0  0
 83222  1  0  0  0  0
 84223  1  0  0  0  0
 87224  1  0  0  0  0
 87225  1  0  0  0  0
 88226  1  0  0  0  0
 88227  1  0  0  0  0
 88228  1  0  0  0  0
 90229  1  0  0  0  0
 94230  1  0  0  0  0
 98231  1  0  0  0  0
102232  1  0  0  0  0
103233  1  0  0  0  0
106234  1  0  0  0  0
106235  1  0  0  0  0
107236  1  0  0  0  0
107237  1  0  0  0  0
107238  1  0  0  0  0
110239  1  0  0  0  0
115240  1  0  0  0  0
116241  1  0  0  0  0
119242  1  0  0  0  0
119243  1  0  0  0  0
120244  1  0  0  0  0
120245  1  0  0  0  0
120246  1  0  0  0  0
122247  1  0  0  0  0
126248  1  0  0  0  0
130249  1  0  0  0  0
134250  1  0  0  0  0
135251  1  0  0  0  0
138252  1  0  0  0  0
138253  1  0  0  0  0
139254  1  0  0  0  0
139255  1  0  0  0  0
139256  1  0  0  0  0
142257  1  0  0  0  0
147258  1  0  0  0  0
148259  1  0  0  0  0
151260  1  0  0  0  0
151261  1  0  0  0  0
152262  1  0  0  0  0
152263  1  0  0  0  0
152264  1  0  0  0  0
154265  1  0  0  0  0
158266  1  0  0  0  0
167267  1  0  0  0  0
167268  1  0  0  0  0
168269  1  0  0  0  0
168270  1  0  0  0  0
168271  1  0  0  0  0
169272  1  0  0  0  0
169273  1  0  0  0  0
170274  1  0  0  0  0
170275  1  0  0  0  0
170276  1  0  0  0  0
172277  1  0  0  0  0
173278  1  0  0  0  0
174279  1  0  0  0  0
M  END
