
  xtb     03042202403D
 energy: -209.667269849620 gnorm: 0.000208572932 xtb: 6.4.1 (unknown)
124137  0     0  0            999 V2000
   10.8129    4.5815    8.3838 C   0  0  0  0  0  0  0  0  0  0  0  0
   11.9790    3.5184    7.7399 S   0  0  0  0  0  0  0  0  0  0  0  0
   11.5430    3.8884    6.1024 C   0  0  0  0  0  0  0  0  0  0  0  0
   10.5452    4.8592    6.0800 C   0  0  0  0  0  0  0  0  0  0  0  0
   10.1150    5.2419    7.3968 C   0  0  0  0  0  0  0  0  0  0  0  0
    9.0916    6.2092    7.5525 C   0  0  0  0  0  0  0  0  0  0  0  0
    8.5431    6.7878    6.4509 C   0  0  0  0  0  0  0  0  0  0  0  0
    9.0141    6.4332    5.1675 C   0  0  0  0  0  0  0  0  0  0  0  0
    8.4602    7.0632    4.1069 F   0  0  0  0  0  0  0  0  0  0  0  0
    9.9874    5.5069    4.9549 C   0  0  0  0  0  0  0  0  0  0  0  0
   12.2581    3.2718    5.0241 C   0  0  0  0  0  0  0  0  0  0  0  0
   11.7639    2.8399    3.8434 C   0  0  0  0  0  0  0  0  0  0  0  0
   10.4065    2.6827    3.4340 C   0  0  0  0  0  0  0  0  0  0  0  0
    9.0598    2.6100    4.5557 S   0  0  0  0  0  0  0  0  0  0  0  0
    7.9841    2.2953    3.2564 C   0  0  0  0  0  0  0  0  0  0  0  0
    6.5995    2.0931    3.0663 C   0  0  0  0  0  0  0  0  0  0  0  0
    6.3476    1.9082    1.7082 C   0  0  0  0  0  0  0  0  0  0  0  0
    7.6300    1.9902    0.9093 C   0  0  0  0  0  0  0  0  0  0  0  0
    7.8497    0.6412    0.1984 C   0  0  0  0  0  0  0  0  0  0  0  0
    9.1384    0.5377   -0.6060 C   0  0  0  0  0  0  0  0  0  0  0  0
    7.6491    3.2083   -0.0350 C   0  0  0  0  0  0  0  0  0  0  0  0
    6.6318    3.1602   -1.1670 C   0  0  0  0  0  0  0  0  0  0  0  0
    8.6276    2.2323    2.0219 C   0  0  0  0  0  0  0  0  0  0  0  0
    9.9959    2.4525    2.1306 C   0  0  0  0  0  0  0  0  0  0  0  0
    5.0098    1.6416    1.4449 C   0  0  0  0  0  0  0  0  0  0  0  0
    4.2314    1.6442    2.5904 C   0  0  0  0  0  0  0  0  0  0  0  0
    5.1813    1.9766    4.0284 S   0  0  0  0  0  0  0  0  0  0  0  0
    2.8425    1.3910    2.6804 C   0  0  0  0  0  0  0  0  0  0  0  0
    1.9330    1.0312    1.2234 S   0  0  0  0  0  0  0  0  0  0  0  0
    0.5115    0.8239    2.1632 C   0  0  0  0  0  0  0  0  0  0  0  0
   -0.8266    0.4413    1.9547 C   0  0  0  0  0  0  0  0  0  0  0  0
   -1.4918    0.4027    3.1817 C   0  0  0  0  0  0  0  0  0  0  0  0
   -0.5555    0.8066    4.3037 C   0  0  0  0  0  0  0  0  0  0  0  0
   -0.3060   -0.3331    5.3100 C   0  0  0  0  0  0  0  0  0  0  0  0
   -1.5141   -0.7406    6.1425 C   0  0  0  0  0  0  0  0  0  0  0  0
   -1.0933    2.1017    4.9435 C   0  0  0  0  0  0  0  0  0  0  0  0
   -0.2104    2.6936    6.0338 C   0  0  0  0  0  0  0  0  0  0  0  0
    0.7218    1.0440    3.5241 C   0  0  0  0  0  0  0  0  0  0  0  0
    2.0458    1.3538    3.8135 C   0  0  0  0  0  0  0  0  0  0  0  0
   -2.8272    0.0465    3.0547 C   0  0  0  0  0  0  0  0  0  0  0  0
   -3.1949   -0.2123    1.7385 C   0  0  0  0  0  0  0  0  0  0  0  0
   -1.8351    0.0125    0.6390 S   0  0  0  0  0  0  0  0  0  0  0  0
   -4.4170   -0.6527    1.1830 C   0  0  0  0  0  0  0  0  0  0  0  0
   -4.4051   -1.2406   -0.4468 S   0  0  0  0  0  0  0  0  0  0  0  0
   -6.0919   -1.6669   -0.4329 C   0  0  0  0  0  0  0  0  0  0  0  0
   -6.6630   -1.3076    0.8047 C   0  0  0  0  0  0  0  0  0  0  0  0
   -5.7191   -0.7312    1.7168 C   0  0  0  0  0  0  0  0  0  0  0  0
   -6.1643   -0.2672    2.9694 C   0  0  0  0  0  0  0  0  0  0  0  0
   -7.4789   -0.3864    3.3233 C   0  0  0  0  0  0  0  0  0  0  0  0
   -8.3843   -0.9554    2.4172 C   0  0  0  0  0  0  0  0  0  0  0  0
   -9.6816   -1.0401    2.7838 F   0  0  0  0  0  0  0  0  0  0  0  0
   -8.0147   -1.3997    1.1795 C   0  0  0  0  0  0  0  0  0  0  0  0
   -6.5899   -2.2693   -1.5987 C   0  0  0  0  0  0  0  0  0  0  0  0
   -7.7690   -2.9323   -1.8002 C   0  0  0  0  0  0  0  0  0  0  0  0
   -8.1358   -3.4735   -3.0417 C   0  0  0  0  0  0  0  0  0  0  0  0
   -7.1654   -3.2545   -4.4623 S   0  0  0  0  0  0  0  0  0  0  0  0
   -8.2306   -4.1901   -5.4753 C   0  0  0  0  0  0  0  0  0  0  0  0
   -9.3419   -4.6334   -4.7270 C   0  0  0  0  0  0  0  0  0  0  0  0
   -9.2814   -4.2364   -3.3549 C   0  0  0  0  0  0  0  0  0  0  0  0
  -10.3075   -4.6062   -2.4677 C   0  0  0  0  0  0  0  0  0  0  0  0
  -11.3757   -5.3302   -2.9195 C   0  0  0  0  0  0  0  0  0  0  0  0
  -11.4368   -5.6795   -4.2756 C   0  0  0  0  0  0  0  0  0  0  0  0
  -12.5163   -6.3693   -4.7045 F   0  0  0  0  0  0  0  0  0  0  0  0
  -10.4639   -5.3509   -5.1777 C   0  0  0  0  0  0  0  0  0  0  0  0
   -7.8298   -4.3540   -6.8114 C   0  0  0  0  0  0  0  0  0  0  0  0
   -8.3340   -5.1894   -7.7671 C   0  0  0  0  0  0  0  0  0  0  0  0
   -7.8414   -5.2503   -9.0825 C   0  0  0  0  0  0  0  0  0  0  0  0
   -6.5861   -4.1919   -9.6490 S   0  0  0  0  0  0  0  0  0  0  0  0
   -6.5823   -4.8785  -11.2380 C   0  0  0  0  0  0  0  0  0  0  0  0
   -7.5295   -5.9039  -11.3321 C   0  0  0  0  0  0  0  0  0  0  0  0
   -8.2475   -6.1181  -10.1136 C   0  0  0  0  0  0  0  0  0  0  0  0
   -9.2329   -7.1211  -10.0507 C   0  0  0  0  0  0  0  0  0  0  0  0
   -9.4987   -7.8842  -11.1518 C   0  0  0  0  0  0  0  0  0  0  0  0
   -8.7828   -7.6573  -12.3405 C   0  0  0  0  0  0  0  0  0  0  0  0
   -9.0750   -8.4335  -13.4070 F   0  0  0  0  0  0  0  0  0  0  0  0
   -7.8189   -6.7007  -12.4593 C   0  0  0  0  0  0  0  0  0  0  0  0
   -5.7008   -4.4066  -12.2570 C   0  0  0  0  0  0  0  0  0  0  0  0
   -4.8095   -3.4241  -12.1054 C   0  0  0  0  0  0  0  0  0  0  0  0
   10.6953    4.6666    9.4454 H   0  0  0  0  0  0  0  0  0  0  0  0
    8.7666    6.4769    8.5459 H   0  0  0  0  0  0  0  0  0  0  0  0
    7.7620    7.5277    6.5251 H   0  0  0  0  0  0  0  0  0  0  0  0
   10.3295    5.2827    3.9578 H   0  0  0  0  0  0  0  0  0  0  0  0
   13.3183    3.1358    5.1997 H   0  0  0  0  0  0  0  0  0  0  0  0
   12.4798    2.5097    3.0998 H   0  0  0  0  0  0  0  0  0  0  0  0
    7.8459   -0.1388    0.9645 H   0  0  0  0  0  0  0  0  0  0  0  0
    6.9960    0.4585   -0.4562 H   0  0  0  0  0  0  0  0  0  0  0  0
    9.1726    1.2807   -1.3981 H   0  0  0  0  0  0  0  0  0  0  0  0
    9.2009   -0.4473   -1.0638 H   0  0  0  0  0  0  0  0  0  0  0  0
   10.0054    0.6669    0.0354 H   0  0  0  0  0  0  0  0  0  0  0  0
    8.6539    3.3022   -0.4500 H   0  0  0  0  0  0  0  0  0  0  0  0
    7.4627    4.0980    0.5721 H   0  0  0  0  0  0  0  0  0  0  0  0
    5.6195    3.1176   -0.7754 H   0  0  0  0  0  0  0  0  0  0  0  0
    6.7221    4.0596   -1.7722 H   0  0  0  0  0  0  0  0  0  0  0  0
    6.7953    2.3012   -1.8122 H   0  0  0  0  0  0  0  0  0  0  0  0
   10.6891    2.4742    1.3086 H   0  0  0  0  0  0  0  0  0  0  0  0
    4.5877    1.4360    0.4775 H   0  0  0  0  0  0  0  0  0  0  0  0
    0.5054   -0.0277    5.9724 H   0  0  0  0  0  0  0  0  0  0  0  0
    0.0439   -1.2007    4.7445 H   0  0  0  0  0  0  0  0  0  0  0  0
   -1.8893    0.0913    6.7323 H   0  0  0  0  0  0  0  0  0  0  0  0
   -1.2288   -1.5373    6.8263 H   0  0  0  0  0  0  0  0  0  0  0  0
   -2.3140   -1.1128    5.5088 H   0  0  0  0  0  0  0  0  0  0  0  0
   -2.0861    1.8970    5.3475 H   0  0  0  0  0  0  0  0  0  0  0  0
   -1.2123    2.8383    4.1446 H   0  0  0  0  0  0  0  0  0  0  0  0
   -0.6680    3.6039    6.4153 H   0  0  0  0  0  0  0  0  0  0  0  0
    0.7700    2.9475    5.6412 H   0  0  0  0  0  0  0  0  0  0  0  0
   -0.0884    2.0035    6.8642 H   0  0  0  0  0  0  0  0  0  0  0  0
    2.4521    1.5348    4.7925 H   0  0  0  0  0  0  0  0  0  0  0  0
   -3.5053   -0.0567    3.8796 H   0  0  0  0  0  0  0  0  0  0  0  0
   -5.4751    0.2127    3.6425 H   0  0  0  0  0  0  0  0  0  0  0  0
   -7.8427   -0.0334    4.2750 H   0  0  0  0  0  0  0  0  0  0  0  0
   -8.7619   -1.7794    0.5053 H   0  0  0  0  0  0  0  0  0  0  0  0
   -5.9093   -2.2312   -2.4427 H   0  0  0  0  0  0  0  0  0  0  0  0
   -8.4545   -3.0964   -0.9847 H   0  0  0  0  0  0  0  0  0  0  0  0
  -10.2533   -4.3153   -1.4307 H   0  0  0  0  0  0  0  0  0  0  0  0
  -12.1784   -5.6280   -2.2644 H   0  0  0  0  0  0  0  0  0  0  0  0
  -10.5873   -5.6242   -6.2106 H   0  0  0  0  0  0  0  0  0  0  0  0
   -6.9755   -3.7499   -7.0979 H   0  0  0  0  0  0  0  0  0  0  0  0
   -9.1304   -5.8764   -7.5321 H   0  0  0  0  0  0  0  0  0  0  0  0
   -9.7755   -7.2887   -9.1338 H   0  0  0  0  0  0  0  0  0  0  0  0
  -10.2461   -8.6611  -11.1360 H   0  0  0  0  0  0  0  0  0  0  0  0
   -7.2974   -6.5656  -13.3926 H   0  0  0  0  0  0  0  0  0  0  0  0
   -5.7898   -4.9062  -13.2122 H   0  0  0  0  0  0  0  0  0  0  0  0
   -4.1723   -3.1123  -12.9131 H   0  0  0  0  0  0  0  0  0  0  0  0
   -4.6966   -2.9069  -11.1671 H   0  0  0  0  0  0  0  0  0  0  0  0
  1  2  1  0  0  0  0
  2  3  1  0  0  0  0
  3  4  2  0  0  0  0
  4  5  1  0  0  0  0
  5  6  1  0  0  0  0
  6  7  2  0  0  0  0
  7  8  1  0  0  0  0
  8  9  1  0  0  0  0
  8 10  2  0  0  0  0
  3 11  1  0  0  0  0
 11 12  2  0  0  0  0
 12 13  1  0  0  0  0
 13 14  1  0  0  0  0
 14 15  1  0  0  0  0
 15 16  1  0  0  0  0
 16 17  2  0  0  0  0
 17 18  1  0  0  0  0
 18 19  1  0  0  0  0
 19 20  1  0  0  0  0
 18 21  1  0  0  0  0
 21 22  1  0  0  0  0
 18 23  1  0  0  0  0
 23 24  1  0  0  0  0
 17 25  1  0  0  0  0
 25 26  2  0  0  0  0
 26 27  1  0  0  0  0
 26 28  1  0  0  0  0
 28 29  1  0  0  0  0
 29 30  1  0  0  0  0
 30 31  1  0  0  0  0
 31 32  2  0  0  0  0
 32 33  1  0  0  0  0
 33 34  1  0  0  0  0
 34 35  1  0  0  0  0
 33 36  1  0  0  0  0
 36 37  1  0  0  0  0
 33 38  1  0  0  0  0
 38 39  1  0  0  0  0
 32 40  1  0  0  0  0
 40 41  2  0  0  0  0
 41 42  1  0  0  0  0
 41 43  1  0  0  0  0
 43 44  1  0  0  0  0
 44 45  1  0  0  0  0
 45 46  2  0  0  0  0
 46 47  1  0  0  0  0
 47 48  1  0  0  0  0
 48 49  2  0  0  0  0
 49 50  1  0  0  0  0
 50 51  1  0  0  0  0
 50 52  2  0  0  0  0
 45 53  1  0  0  0  0
 53 54  2  0  0  0  0
 54 55  1  0  0  0  0
 55 56  1  0  0  0  0
 56 57  1  0  0  0  0
 57 58  2  0  0  0  0
 58 59  1  0  0  0  0
 59 60  1  0  0  0  0
 60 61  2  0  0  0  0
 61 62  1  0  0  0  0
 62 63  1  0  0  0  0
 62 64  2  0  0  0  0
 57 65  1  0  0  0  0
 65 66  2  0  0  0  0
 66 67  1  0  0  0  0
 67 68  1  0  0  0  0
 68 69  1  0  0  0  0
 69 70  2  0  0  0  0
 70 71  1  0  0  0  0
 71 72  1  0  0  0  0
 72 73  2  0  0  0  0
 73 74  1  0  0  0  0
 74 75  1  0  0  0  0
 74 76  2  0  0  0  0
 69 77  1  0  0  0  0
 77 78  2  0  0  0  0
  5  1  2  0  0  0  0
 24 13  2  0  0  0  0
 39 28  2  0  0  0  0
 47 43  2  0  0  0  0
 59 55  2  0  0  0  0
 71 67  2  0  0  0  0
 10  4  1  0  0  0  0
 23 15  2  0  0  0  0
 38 30  2  0  0  0  0
 52 46  1  0  0  0  0
 64 58  1  0  0  0  0
 76 70  1  0  0  0  0
 27 16  1  0  0  0  0
 42 31  1  0  0  0  0
  1 79  1  0  0  0  0
  6 80  1  0  0  0  0
  7 81  1  0  0  0  0
 10 82  1  0  0  0  0
 11 83  1  0  0  0  0
 12 84  1  0  0  0  0
 19 85  1  0  0  0  0
 19 86  1  0  0  0  0
 20 87  1  0  0  0  0
 20 88  1  0  0  0  0
 20 89  1  0  0  0  0
 21 90  1  0  0  0  0
 21 91  1  0  0  0  0
 22 92  1  0  0  0  0
 22 93  1  0  0  0  0
 22 94  1  0  0  0  0
 24 95  1  0  0  0  0
 25 96  1  0  0  0  0
 34 97  1  0  0  0  0
 34 98  1  0  0  0  0
 35 99  1  0  0  0  0
 35100  1  0  0  0  0
 35101  1  0  0  0  0
 36102  1  0  0  0  0
 36103  1  0  0  0  0
 37104  1  0  0  0  0
 37105  1  0  0  0  0
 37106  1  0  0  0  0
 39107  1  0  0  0  0
 40108  1  0  0  0  0
 48109  1  0  0  0  0
 49110  1  0  0  0  0
 52111  1  0  0  0  0
 53112  1  0  0  0  0
 54113  1  0  0  0  0
 60114  1  0  0  0  0
 61115  1  0  0  0  0
 64116  1  0  0  0  0
 65117  1  0  0  0  0
 66118  1  0  0  0  0
 72119  1  0  0  0  0
 73120  1  0  0  0  0
 76121  1  0  0  0  0
 77122  1  0  0  0  0
 78123  1  0  0  0  0
 78124  1  0  0  0  0
M  END
