124

C         10.81290        4.58150        8.38380
S         11.97900        3.51840        7.73990
C         11.54300        3.88840        6.10240
C         10.54520        4.85920        6.08000
C         10.11500        5.24190        7.39680
C          9.09160        6.20920        7.55250
C          8.54310        6.78780        6.45090
C          9.01410        6.43320        5.16750
F          8.46020        7.06320        4.10690
C          9.98740        5.50690        4.95490
C         12.25810        3.27180        5.02410
C         11.76390        2.83990        3.84340
C         10.40650        2.68270        3.43400
S          9.05980        2.61000        4.55570
C          7.98410        2.29530        3.25640
C          6.59950        2.09310        3.06630
C          6.34760        1.90820        1.70820
C          7.63000        1.99020        0.90930
C          7.84970        0.64120        0.19840
C          9.13840        0.53770       -0.60600
C          7.64910        3.20830       -0.03500
C          6.63180        3.16020       -1.16700
C          8.62760        2.23230        2.02190
C          9.99590        2.45250        2.13060
C          5.00980        1.64160        1.44490
C          4.23140        1.64420        2.59040
S          5.18130        1.97660        4.02840
C          2.84250        1.39100        2.68040
S          1.93300        1.03120        1.22340
C          0.51150        0.82390        2.16320
C         -0.82660        0.44130        1.95470
C         -1.49180        0.40270        3.18170
C         -0.55550        0.80660        4.30370
C         -0.30600       -0.33310        5.31000
C         -1.51410       -0.74060        6.14250
C         -1.09330        2.10170        4.94350
C         -0.21040        2.69360        6.03380
C          0.72180        1.04400        3.52410
C          2.04580        1.35380        3.81350
C         -2.82720        0.04650        3.05470
C         -3.19490       -0.21230        1.73850
S         -1.83510        0.01250        0.63900
C         -4.41700       -0.65270        1.18300
S         -4.40510       -1.24060       -0.44680
C         -6.09190       -1.66690       -0.43290
C         -6.66300       -1.30760        0.80470
C         -5.71910       -0.73120        1.71680
C         -6.16430       -0.26720        2.96940
C         -7.47890       -0.38640        3.32330
C         -8.38430       -0.95540        2.41720
F         -9.68160       -1.04010        2.78380
C         -8.01470       -1.39970        1.17950
C         -6.58990       -2.26930       -1.59870
C         -7.76900       -2.93230       -1.80020
C         -8.13580       -3.47350       -3.04170
S         -7.16540       -3.25450       -4.46230
C         -8.23060       -4.19010       -5.47530
C         -9.34190       -4.63340       -4.72700
C         -9.28140       -4.23640       -3.35490
C        -10.30750       -4.60620       -2.46770
C        -11.37570       -5.33020       -2.91950
C        -11.43680       -5.67950       -4.27560
F        -12.51630       -6.36930       -4.70450
C        -10.46390       -5.35090       -5.17770
C         -7.82980       -4.35400       -6.81140
C         -8.33400       -5.18940       -7.76710
C         -7.84140       -5.25030       -9.08250
S         -6.58610       -4.19190       -9.64900
C         -6.58230       -4.87850      -11.23800
C         -7.52950       -5.90390      -11.33210
C         -8.24750       -6.11810      -10.11360
C         -9.23290       -7.12110      -10.05070
C         -9.49870       -7.88420      -11.15180
C         -8.78280       -7.65730      -12.34050
F         -9.07500       -8.43350      -13.40700
C         -7.81890       -6.70070      -12.45930
C         -5.70080       -4.40660      -12.25700
C         -4.80950       -3.42410      -12.10540
H         10.69530        4.66660        9.44540
H          8.76660        6.47690        8.54590
H          7.76200        7.52770        6.52510
H         10.32950        5.28270        3.95780
H         13.31830        3.13580        5.19970
H         12.47980        2.50970        3.09980
H          7.84590       -0.13880        0.96450
H          6.99600        0.45850       -0.45620
H          9.17260        1.28070       -1.39810
H          9.20090       -0.44730       -1.06380
H         10.00540        0.66690        0.03540
H          8.65390        3.30220       -0.45000
H          7.46270        4.09800        0.57210
H          5.61950        3.11760       -0.77540
H          6.72210        4.05960       -1.77220
H          6.79530        2.30120       -1.81220
H         10.68910        2.47420        1.30860
H          4.58770        1.43600        0.47750
H          0.50540       -0.02770        5.97240
H          0.04390       -1.20070        4.74450
H         -1.88930        0.09130        6.73230
H         -1.22880       -1.53730        6.82630
H         -2.31400       -1.11280        5.50880
H         -2.08610        1.89700        5.34750
H         -1.21230        2.83830        4.14460
H         -0.66800        3.60390        6.41530
H          0.77000        2.94750        5.64120
H         -0.08840        2.00350        6.86420
H          2.45210        1.53480        4.79250
H         -3.50530       -0.05670        3.87960
H         -5.47510        0.21270        3.64250
H         -7.84270       -0.03340        4.27500
H         -8.76190       -1.77940        0.50530
H         -5.90930       -2.23120       -2.44270
H         -8.45450       -3.09640       -0.98470
H        -10.25330       -4.31530       -1.43070
H        -12.17840       -5.62800       -2.26440
H        -10.58730       -5.62420       -6.21060
H         -6.97550       -3.74990       -7.09790
H         -9.13040       -5.87640       -7.53210
H         -9.77550       -7.28870       -9.13380
H        -10.24610       -8.66110      -11.13600
H         -7.29740       -6.56560      -13.39260
H         -5.78980       -4.90620      -13.21220
H         -4.17230       -3.11230      -12.91310
H         -4.69660       -2.90690      -11.16710
