256

C          7.37490        1.82670        6.91610
S          5.67130        1.81200        6.62280
C          5.87690        0.49990        5.52990
C          5.06180       -0.30460        4.69260
C          5.87710       -1.20650        4.02370
C          7.33160       -1.01580        4.39790
C          8.06230       -0.54820        3.11930
C          9.55870       -0.30600        3.25050
C          7.88600       -2.33560        4.97650
C          9.02090       -2.19900        5.98500
C          7.20280        0.10640        5.40360
C          8.05620        0.88230        6.20660
C          5.16750       -2.03150        3.15900
C          3.81370       -1.75800        3.16130
S          3.40450       -0.46540        4.27090
C          2.82810       -2.38000        2.34960
C          1.48190       -2.16770        2.27380
C          0.83280       -2.96330        1.29380
C         -0.52440       -2.96240        0.92710
C         -1.45970       -1.99290        1.51470
C         -1.19410       -0.63060        1.39390
C         -2.06910        0.29710        1.91140
C         -3.21230       -0.08740        2.60820
S         -4.15790        1.21370        3.34630
C         -5.90570        0.73620        3.10220
C         -6.26070        0.65190        1.63230
C         -3.45800       -1.45120        2.72890
F         -4.53430       -1.90130        3.41000
C         -2.61730       -2.39460        2.16900
C         -0.90810       -3.83340       -0.07930
C          0.01250       -4.64430       -0.78820
C          1.38010       -4.59890       -0.47030
C          2.39420       -5.19770       -1.34690
C          2.36020       -4.92240       -2.71540
C          3.35460       -5.37940       -3.55070
C          4.43650       -6.10690       -3.05900
S          5.71290       -6.52080       -4.21480
C          6.23360       -8.20720       -3.73480
C          5.07900       -9.18770       -3.77100
C          4.46260       -6.36830       -1.69290
C          3.45780       -5.94050       -0.84670
F          5.49210       -7.04680       -1.13990
C          1.74240       -3.80590        0.60760
S          3.36230       -3.60050        1.20940
C         -0.60290       -5.35030       -1.84770
C         -1.92820       -5.05360       -2.01520
S         -2.50860       -3.95430       -0.77270
C         -2.68840       -5.32660       -3.19030
S         -4.05010       -4.29680       -3.59840
C         -3.91650       -4.76760       -5.24540
C         -4.21020       -4.15290       -6.48700
C         -3.41350       -4.72280       -7.47760
C         -2.68160       -5.93100       -6.92930
C         -1.18200       -5.90320       -7.26000
C         -0.45680       -4.67640       -6.71660
C         -3.34410       -7.24390       -7.39880
C         -3.35170       -7.42580       -8.91120
C         -2.94220       -5.74290       -5.44750
C         -2.27010       -6.07890       -4.27730
C         -3.22090       -3.87210       -8.56640
C         -3.84700       -2.64960       -8.40190
S         -4.85320       -2.62920       -6.94650
C         -3.29360       -1.36480       -8.72710
C         -1.94180       -1.15260       -8.68890
C         -1.58620        0.11570       -8.16510
C         -0.36590        0.40280       -7.52590
C          0.75400       -0.54040       -7.65610
C          1.23840       -0.91120       -8.90930
C          2.24020       -1.85140       -9.02570
C          2.78510       -2.47540       -7.90450
S          3.98880       -3.74360       -8.18350
C          5.22660       -3.49970       -6.85780
C          5.81930       -2.10600       -6.88090
C          2.27870       -2.10770       -6.66250
F          2.72020       -2.70210       -5.52960
C          1.29390       -1.15130       -6.52940
C         -0.37810        1.45300       -6.62210
C         -1.50500        2.28990       -6.41920
C         -2.70100        2.04540       -7.11750
C         -3.93600        2.79380       -6.84540
C         -4.66360        3.36150       -7.88510
C         -5.83350        4.05740       -7.64410
C         -6.32150        4.20070       -6.35060
S         -7.79520        5.04750       -5.88820
C         -8.30170        5.93600       -7.39990
C         -7.40510        7.12230       -7.70030
C         -5.59860        3.59340       -5.32210
C         -4.43020        2.90370       -5.54710
F         -6.06250        3.67890       -4.05850
C         -2.72180        0.92950       -7.93540
S         -4.19090        0.12120       -8.44940
C         -1.33060        3.15050       -5.30620
C         -0.17660        2.92370       -4.61480
S          0.86930        1.78190       -5.44240
C          0.05850        3.24570       -3.24460
C          0.92960        2.62620       -2.39640
C          0.64980        2.85650       -1.02540
C          1.23200        2.24230        0.09540
C          2.32040        1.26010       -0.01390
C          2.21850        0.13520       -0.82710
C          3.25180       -0.77920       -0.92190
C          4.43280       -0.59220       -0.21280
S          5.84860       -1.63570       -0.26060
C          5.48410       -2.87650       -1.54560
C          5.62470       -2.33510       -2.95410
C          4.50560        0.52320        0.62390
F          5.63000        0.73250        1.33920
C          3.48080        1.43240        0.73760
C          0.68260        2.55310        1.32980
C         -0.42600        3.42120        1.49760
C         -1.00690        4.03550        0.37820
C         -2.22570        4.85310        0.46880
C         -2.26470        6.13050       -0.08420
C         -3.43060        6.86830       -0.06440
C         -4.59490        6.35310        0.49360
S         -6.06670        7.34540        0.47830
C         -7.24200        6.21910       -0.36430
C         -6.79960        5.90970       -1.77960
C         -4.53540        5.08680        1.06600
C         -3.37700        4.33670        1.05590
F         -5.62850        4.54710        1.64350
C         -0.44350        3.74250       -0.85330
S         -1.09420        4.25670       -2.38810
C         -0.87670        3.44810        2.84260
C         -0.19090        2.60020        3.66020
S          1.12900        1.79400        2.83500
C         -0.53580        2.19580        4.98230
C          0.08290        1.24780        5.74020
C         -0.63410        0.91590        6.91690
C         -0.30520       -0.05360        7.87310
C          0.95760       -0.79980        7.76540
C          2.17310       -0.12580        7.81870
C          3.36610       -0.80970        7.70650
C          3.38190       -2.18520        7.51250
S          4.86140       -3.12520        7.30800
C          6.07140       -2.20220        8.32070
C          5.66360       -2.12250        9.77820
C          2.15660       -2.84500        7.44330
F          2.13310       -4.17680        7.23860
C          0.95760       -2.17810        7.58180
C         -1.22010       -0.26150        8.89100
C         -2.43230        0.46370        9.00240
C         -2.75870        1.43830        8.04890
C         -4.01840        2.19290        8.09620
C         -4.40660        2.90210        9.23060
C         -5.57280        3.63780        9.23090
C         -6.40450        3.67940        8.11290
S         -7.87960        4.64320        8.22290
C         -8.08200        5.30090        6.51740
C         -8.84080        6.61140        6.58070
C         -6.02530        2.92920        7.00380
C         -4.84680        2.21350        6.97910
F         -6.81520        2.86400        5.90810
C         -1.84740        1.63730        7.02220
S         -2.02430        2.76890        5.70810
C         -3.19740        0.02940       10.12590
C         -2.58850       -0.94490       10.83140
S         -1.05080       -1.41560       10.18820
H          7.77060        2.54720        7.60420
H          7.88730       -1.29750        2.34470
H          7.58270        0.37400        2.78780
H          9.77370        0.40460        4.04380
H          9.93280        0.10850        2.31660
H         10.09510       -1.23120        3.44270
H          7.06060       -2.85930        5.46570
H          8.21320       -2.95540        4.13980
H          8.69830       -1.63800        6.85810
H          9.32830       -3.19050        6.31280
H          9.88550       -1.70140        5.55830
H          9.12210        0.76610        6.27680
H          5.59930       -2.79570        2.53840
H          0.96970       -1.46040        2.90190
H         -0.30850       -0.30300        0.87010
H         -1.87950        1.35010        1.78800
H         -6.45390        1.53910        3.59510
H         -6.09200       -0.19890        3.62590
H         -6.07150        1.60370        1.14060
H         -5.67730       -0.12100        1.13350
H         -7.31590        0.40950        1.52530
H         -2.85820       -3.44030        2.28340
H          1.56230       -4.32060       -3.12230
H          3.31540       -5.16380       -4.60630
H          6.70410       -8.16630       -2.75490
H          6.98740       -8.45780       -4.48140
H          4.32710       -8.92860       -3.02770
H          5.44340      -10.18980       -3.55490
H          4.60950       -9.18950       -4.75280
H          3.52550       -6.18280        0.20200
H         -0.06420       -6.01660       -2.49570
H         -0.72070       -6.80440       -6.85090
H         -1.06430       -5.92830       -8.34370
H          0.58230       -4.69080       -7.03770
H         -0.91530       -3.75960       -7.08180
H         -0.48100       -4.65660       -5.62970
H         -4.37480       -7.24750       -7.03610
H         -2.82220       -8.08030       -6.92900
H         -3.89540       -8.33220       -9.16720
H         -2.34260       -7.51620       -9.30430
H         -3.84180       -6.58450       -9.39500
H         -1.45790       -6.78020       -4.21970
H         -2.57440       -4.07920       -9.40040
H         -1.22760       -1.94610       -8.81760
H          0.83030       -0.44790       -9.79480
H          2.61630       -2.13150       -9.99730
H          4.77110       -3.73260       -5.89840
H          5.98000       -4.25560       -7.07810
H          6.60950       -2.03480       -6.13670
H          6.23870       -1.88480       -7.86010
H          5.06300       -1.35760       -6.65070
H          0.92470       -0.92680       -5.54150
H         -4.30340        3.26760       -8.89860
H         -6.36510        4.48090       -8.48020
H         -8.34520        5.22410       -8.22310
H         -9.31580        6.26550       -7.17390
H         -7.41530        7.81970       -6.86600
H         -6.37800        6.80560       -7.86830
H         -7.76030        7.63880       -8.59000
H         -3.93080        2.43220       -4.71550
H         -2.07560        3.84820       -4.96890
H          1.71340        1.97580       -2.74200
H          1.31010       -0.04100       -1.38470
H          3.12620       -1.64240       -1.55610
H          4.49480       -3.28890       -1.35550
H          6.22310       -3.65580       -1.35910
H          5.46570       -3.14270       -3.66560
H          6.62160       -1.92730       -3.10410
H          4.89740       -1.55100       -3.15140
H          3.60170        2.28290        1.38980
H         -1.37360        6.54680       -0.52900
H         -3.46050        7.85730       -0.49410
H         -8.18220        6.76970       -0.35340
H         -7.35070        5.31910        0.23700
H         -7.54190        5.28920       -2.27630
H         -6.67680        6.82740       -2.35040
H         -5.85340        5.37200       -1.78310
H         -3.39370        3.35150        1.49650
H         -1.71130        4.03400        3.18330
H          1.00410        0.77230        5.45130
H          2.18540        0.94460        7.95800
H          4.29080       -0.25990        7.75870
H          6.98620       -2.78300        8.20640
H          6.22460       -1.21870        7.87780
H          6.44070       -1.61950       10.35060
H          5.52230       -3.12150       10.18440
H          4.73410       -1.56870        9.89430
H          0.03430       -2.73360        7.52940
H         -3.77110        2.90400       10.10320
H         -5.86190        4.20440       10.10250
H         -8.62010        4.56200        5.92550
H         -7.08320        5.44460        6.10850
H         -8.30270        7.33570        7.18810
H         -9.82690        6.46190        7.01490
H         -8.95790        7.01390        5.57690
H         -4.59850        1.65610        6.08950
H         -4.16320        0.43170       10.37240
H         -2.94600       -1.44160       11.71220
