256

C        -16.52460       13.84160       -9.56100
C        -15.40770       14.18390       -8.88860
C        -14.92400       13.13990       -8.04410
C        -13.77310       13.13410       -7.24180
C        -12.91650       14.32010       -7.11410
C        -13.45360       15.56050       -6.77340
C        -12.64180       16.66780       -6.65610
C        -11.26570       16.58670       -6.86550
S        -10.33420       18.07280       -6.63920
C         -9.01890       17.99520       -7.91060
C         -9.58560       17.87410       -9.31080
C        -10.74040       15.33600       -7.17440
F         -9.41250       15.16560       -7.35940
C        -11.54370       14.22190       -7.31040
C        -13.48820       11.95590       -6.56840
C        -14.30080       10.79800       -6.65180
C        -15.44990       10.80290       -7.45850
C        -16.28720        9.60670       -7.60420
C        -15.72270        8.37720       -7.94250
C        -16.51500        7.26140       -8.10430
C        -17.89530        7.31960       -7.92130
S        -18.80370        5.81250       -8.10700
C        -20.32600        6.32180       -8.98730
C        -20.01780        7.00730      -10.30310
C        -18.44140        8.54670       -7.55830
C        -17.66350        9.67820       -7.41920
F        -19.76550        8.67100       -7.31980
C        -15.73660       11.98440       -8.12750
S        -17.07220       12.23440       -9.22370
C        -13.81940        9.75150       -5.82620
C        -12.67870       10.06970       -5.14470
S        -12.14460       11.70510       -5.48540
C        -11.92420        9.23400       -4.27400
S        -10.49830        9.84690       -3.46510
C        -10.22920        8.30490       -2.76550
C         -9.28630        7.68780       -1.91260
C         -9.63220        6.34960       -1.74350
C        -10.89800        6.02180       -2.50520
C        -10.57190        4.93070       -3.54330
C        -11.73310        4.51860       -4.43770
C        -12.06580        5.66450       -1.56510
C        -11.88270        4.37320       -0.77930
C        -11.18500        7.36380       -3.14450
C        -12.15470        7.90020       -3.98460
C         -8.69540        5.64710       -0.99330
C         -7.65040        6.44730       -0.56650
S         -7.82890        8.10670       -1.10620
C         -6.50020        6.04630        0.15680
S         -6.23320        4.34250        0.48490
C         -4.72230        4.71790        1.20810
C         -3.62420        4.02890        1.76890
C         -2.64690        4.94920        2.14430
C         -3.09100        6.35630        1.81430
C         -2.21810        6.99930        0.71450
C         -0.75540        7.20670        1.08280
C         -3.17450        7.24280        3.06650
C         -4.15280        6.70370        4.10360
C         -4.45440        6.08320        1.21790
C         -5.45990        6.83370        0.61780
C         -1.52650        4.33580        2.69640
C         -1.63380        2.95750        2.71500
S         -3.16930        2.40400        2.07230
C         -0.64620        2.00910        3.09010
C         -0.73440        0.64760        3.03500
C          0.47380       -0.01420        3.35820
C          0.74170       -1.38970        3.33250
C         -0.23410       -2.40970        2.92750
C         -0.89920       -2.34120        1.70500
C         -1.66870       -3.39880        1.26670
C         -1.81490       -4.55300        2.03310
S         -2.73200       -5.90650        1.36600
C         -1.73290       -7.35150        1.91870
C         -1.79390       -8.44310        0.86980
C         -1.21960       -4.56880        3.29140
F         -1.39680       -5.61710        4.12420
C         -0.42610       -3.53030        3.73030
C          2.03780       -1.77580        3.63700
C          3.07940       -0.87050        3.95290
C          2.80280        0.50700        4.00130
C          3.84600        1.49570        4.30400
C          3.65580        2.44840        5.30260
C          4.62710        3.39040        5.56770
C          5.82040        3.41910        4.85110
S          7.01990        4.64840        5.28600
C          7.53490        5.30850        3.65700
C          6.36240        5.88340        2.88760
C          6.00660        2.44770        3.87270
C          5.03850        1.50630        3.58800
F          7.15350        2.39570        3.15990
C          1.50500        0.89510        3.70840
S          0.94540        2.54600        3.60610
C          4.31770       -1.53850        4.14580
C          4.24400       -2.88500        3.94720
S          2.61650       -3.41550        3.56250
C          5.27790       -3.86590        3.92690
C          5.10660       -5.18850        3.64540
C          6.31620       -5.91660        3.55870
C          6.47190       -7.28100        3.26540
C          5.30650       -8.11830        2.95580
C          4.37410       -7.71470        2.00000
C          3.26720       -8.48820        1.72810
C          3.03430       -9.68610        2.40240
S          1.53500      -10.54010        2.01690
C          1.97780      -12.31440        2.09110
C          3.10530      -12.65890        1.13960
C          3.97020      -10.07350        3.35650
F          3.80070      -11.20390        4.07600
C          5.09740       -9.32080        3.62090
C          7.76830       -7.76890        3.26370
C          8.89880       -6.95570        3.53010
C          8.74060       -5.59100        3.83330
C          9.89530       -4.73880        4.14260
C         10.07240       -3.50770        3.51380
C         11.15020       -2.70680        3.82640
C         12.09710       -3.10270        4.76750
S         13.46630       -2.01830        5.06640
C         13.65040       -2.05010        6.88770
C         12.37990       -1.61690        7.59040
C         11.92530       -4.34670        5.36650
C         10.83950       -5.14870        5.07990
F         12.82860       -4.81480        6.25510
C          7.44410       -5.09990        3.82230
S          6.96570       -3.45020        4.14890
C         10.10860       -7.67640        3.37750
C          9.93020       -8.98320        3.02550
S          8.23800       -9.39990        2.86480
C         10.95270       -9.95440        2.79660
C         12.29360       -9.78090        2.97450
C         13.06330      -10.92820        2.65890
C         14.45700      -11.07730        2.74480
C         15.28700       -9.98200        3.26120
C         16.38280       -9.50040        2.54900
C         17.08930       -8.40610        3.00560
C         16.73770       -7.76480        4.18860
S         17.64280       -6.32780        4.69810
C         16.27940       -5.12490        4.93360
C         15.50890       -4.89850        3.64850
C         15.68690       -8.30040        4.92710
F         15.34230       -7.76480        6.11580
C         14.95850       -9.37980        4.47330
C         14.97900      -12.28860        2.31760
C         14.17230      -13.35590        1.85140
C         12.77740      -13.21630        1.79320
C         11.90940      -14.31070        1.33950
C         10.94560      -14.09870        0.35540
C         10.14050      -15.13210       -0.07300
C         10.25140      -16.41070        0.46890
S          9.13400      -17.64780       -0.12500
C         10.18210      -19.14110       -0.28390
C         11.35520      -18.91180       -1.21560
C         11.19480      -16.59970        1.47430
C         12.02360      -15.58020        1.89710
F         11.33140      -17.80090        2.07880
C         12.25630      -11.99190        2.18690
S         10.56600      -11.55980        2.21240
C         14.96510      -14.47840        1.46670
C         16.28490      -14.28120        1.65870
S         16.66820      -12.72450        2.30960
H        -17.08610       14.43640      -10.25460
H        -14.91880       15.13590       -8.98900
H        -14.51290       15.64990       -6.58610
H        -13.06060       17.62710       -6.39400
H         -8.34110       17.17880       -7.67200
H         -8.49450       18.94190       -7.77980
H         -8.77790       17.92760      -10.03810
H        -10.10100       16.92440       -9.44080
H        -10.28940       18.67990       -9.50910
H        -11.08280       13.28250       -7.57310
H        -14.65880        8.30850       -8.11190
H        -16.07720        6.31490       -8.38120
H        -20.84770        5.37810       -9.14730
H        -20.92280        6.94980       -8.32960
H        -20.94550        7.22080      -10.83010
H        -19.49280        7.94670      -10.13860
H        -19.39740        6.37000      -10.92990
H        -18.14050       10.60260       -7.13370
H        -14.31880        8.80540       -5.72990
H         -9.75740        5.30530       -4.16900
H        -10.19610        4.05670       -3.00930
H        -12.08570        5.36000       -5.02710
H        -12.56210        4.12450       -3.85640
H        -11.40200        3.74150       -5.12330
H        -12.18810        6.49340       -0.86300
H        -12.97810        5.60530       -2.16060
H        -11.79030        3.51580       -1.44040
H        -11.00000        4.42670       -0.14840
H        -12.74730        4.21390       -0.13860
H        -12.99740        7.36470       -4.38080
H         -8.73230        4.59700       -0.76460
H         -2.66600        7.96180        0.45760
H         -2.27210        6.36230       -0.17210
H         -0.26880        6.25770        1.28830
H         -0.65230        7.85170        1.95110
H         -0.23830        7.67790        0.24970
H         -3.48220        8.24540        2.76230
H         -2.18280        7.31020        3.51540
H         -4.16490        7.35160        4.97680
H         -3.86350        5.70440        4.42130
H         -5.16040        6.65640        3.69720
H         -5.45870        7.90300        0.50300
H         -0.65470        4.83870        3.07550
H         -1.63740        0.13410        2.75690
H         -0.76730       -1.47660        1.07250
H         -2.15170       -3.36060        0.30270
H         -2.12950       -7.69600        2.87250
H         -0.71140       -6.99920        2.05190
H         -1.43170       -8.07340       -0.08700
H         -1.16880       -9.27760        1.18150
H         -2.81460       -8.79490        0.74000
H          0.02570       -3.60030        4.70760
H          2.74290        2.44410        5.87790
H          4.47730        4.12790        6.34050
H          8.04260        4.52330        3.10140
H          8.25590        6.08400        3.91460
H          6.71410        6.32170        1.95570
H          5.86460        6.65490        3.47130
H          5.63590        5.10770        2.65100
H          5.22060        0.79400        2.79800
H          5.23340       -1.04180        4.41290
H          4.13540       -5.62800        3.50600
H          4.53560       -6.80100        1.44880
H          2.55210       -8.17530        0.98310
H          2.21520      -12.57720        3.11940
H          1.05210      -12.81240        1.80190
H          4.02700      -12.15790        1.42940
H          2.85330      -12.36020        0.12410
H          3.28070      -13.73250        1.15570
H          5.78380       -9.66720        4.37770
H          9.36490       -3.18040        2.76830
H         11.27940       -1.75180        3.34180
H         13.97000       -3.04350        7.19460
H         14.46130       -1.34450        7.06800
H         11.57230       -2.32290        7.40390
H         12.55370       -1.56970        8.66340
H         12.06610       -0.63470        7.24310
H         10.73520       -6.08720        5.60250
H         11.07740       -7.22730        3.49230
H         12.72720       -8.85710        3.30880
H         16.65670       -9.96110        1.61270
H         17.92000       -8.01640        2.43850
H         15.63640       -5.47230        5.73950
H         16.78830       -4.21530        5.25040
H         16.18330       -4.60890        2.84560
H         14.78200       -4.10220        3.79190
H         14.98090       -5.80230        3.34670
H         14.15290       -9.76060        5.08220
H         10.84720      -13.12410       -0.09660
H          9.40490      -14.96700       -0.84460
H          9.49670      -19.88470       -0.69050
H         10.50210      -19.45810        0.70610
H         11.00890      -18.56760       -2.18790
H         12.03460      -18.16560       -0.80740
H         11.90520      -19.84120       -1.34850
H         12.72890      -15.77850        2.68950
H         14.55220      -15.38020        1.05290
H         17.08890      -14.96030        1.45230
