
  xtb     03022200373D
 energy: -447.897997223040 gnorm: 0.000448248160 xtb: 6.4.1 (unknown)
223249  0     0  0            999 V2000
   -7.1815  -18.9704    0.4602 C   0  0  0  0  0  0  0  0  0  0  0  0
   -6.4772  -18.4496   -0.5645 C   0  0  0  0  0  0  0  0  0  0  0  0
   -6.1675  -17.0707   -0.3774 C   0  0  0  0  0  0  0  0  0  0  0  0
   -5.4342  -16.2204   -1.2196 C   0  0  0  0  0  0  0  0  0  0  0  0
   -4.7588  -16.7154   -2.4076 C   0  0  0  0  0  0  0  0  0  0  0  0
   -4.9459  -15.9437   -3.9536 S   0  0  0  0  0  0  0  0  0  0  0  0
   -3.8362  -17.0299   -4.7182 C   0  0  0  0  0  0  0  0  0  0  0  0
   -3.4671  -16.8635   -6.1506 C   0  0  0  0  0  0  0  0  0  0  0  0
   -2.4725  -15.7127   -6.3223 C   0  0  0  0  0  0  0  0  0  0  0  0
   -3.3540  -17.9286   -3.8142 C   0  0  0  0  0  0  0  0  0  0  0  0
   -2.2213  -19.1604   -4.1952 Cl  0  0  0  0  0  0  0  0  0  0  0  0
   -3.8775  -17.7566   -2.5044 C   0  0  0  0  0  0  0  0  0  0  0  0
   -3.3665  -18.7149   -1.1749 Cl  0  0  0  0  0  0  0  0  0  0  0  0
   -5.3473  -14.8859   -0.8448 C   0  0  0  0  0  0  0  0  0  0  0  0
   -5.9000  -14.3841    0.3581 C   0  0  0  0  0  0  0  0  0  0  0  0
   -6.5640  -15.2529    1.2403 C   0  0  0  0  0  0  0  0  0  0  0  0
   -7.0509  -14.7856    2.5265 C   0  0  0  0  0  0  0  0  0  0  0  0
   -8.6855  -15.0735    3.0430 S   0  0  0  0  0  0  0  0  0  0  0  0
   -8.4350  -14.2627    4.5503 C   0  0  0  0  0  0  0  0  0  0  0  0
   -9.5125  -14.1884    5.5748 C   0  0  0  0  0  0  0  0  0  0  0  0
   -9.5288  -15.4533    6.4366 C   0  0  0  0  0  0  0  0  0  0  0  0
   -7.1514  -13.8123    4.6394 C   0  0  0  0  0  0  0  0  0  0  0  0
   -6.3646  -14.1009    3.4925 C   0  0  0  0  0  0  0  0  0  0  0  0
   -4.6990  -13.6947    3.3958 Cl  0  0  0  0  0  0  0  0  0  0  0  0
   -6.5251  -12.9675    5.9953 Cl  0  0  0  0  0  0  0  0  0  0  0  0
   -6.7090  -16.5737    0.8317 C   0  0  0  0  0  0  0  0  0  0  0  0
   -7.5251  -17.8318    1.7168 S   0  0  0  0  0  0  0  0  0  0  0  0
   -5.6790  -12.9908    0.4988 C   0  0  0  0  0  0  0  0  0  0  0  0
   -4.9594  -12.4506   -0.5236 C   0  0  0  0  0  0  0  0  0  0  0  0
   -4.5281  -13.6382   -1.7382 S   0  0  0  0  0  0  0  0  0  0  0  0
   -4.5075  -11.1064   -0.6670 C   0  0  0  0  0  0  0  0  0  0  0  0
   -3.8589  -10.5671   -1.7377 C   0  0  0  0  0  0  0  0  0  0  0  0
   -3.4560   -9.2254   -1.5381 C   0  0  0  0  0  0  0  0  0  0  0  0
   -2.7764   -8.3841   -2.4369 C   0  0  0  0  0  0  0  0  0  0  0  0
   -2.3269   -8.8814   -3.7258 C   0  0  0  0  0  0  0  0  0  0  0  0
   -2.7180   -8.0554   -5.2047 S   0  0  0  0  0  0  0  0  0  0  0  0
   -1.8979   -9.2331   -6.1704 C   0  0  0  0  0  0  0  0  0  0  0  0
   -1.8931   -9.1505   -7.6569 C   0  0  0  0  0  0  0  0  0  0  0  0
   -3.1004   -9.8813   -8.2500 C   0  0  0  0  0  0  0  0  0  0  0  0
   -1.3585  -10.2034   -5.3792 C   0  0  0  0  0  0  0  0  0  0  0  0
   -0.4759  -11.5466   -5.9805 Cl  0  0  0  0  0  0  0  0  0  0  0  0
   -1.5920  -10.0045   -3.9926 C   0  0  0  0  0  0  0  0  0  0  0  0
   -0.9305  -11.0383   -2.7913 Cl  0  0  0  0  0  0  0  0  0  0  0  0
   -2.5506   -7.0774   -2.0266 C   0  0  0  0  0  0  0  0  0  0  0  0
   -2.9399   -6.5972   -0.7524 C   0  0  0  0  0  0  0  0  0  0  0  0
   -3.5985   -7.4443    0.1576 C   0  0  0  0  0  0  0  0  0  0  0  0
   -3.9964   -6.9657    1.4713 C   0  0  0  0  0  0  0  0  0  0  0  0
   -4.9550   -5.5237    1.6416 S   0  0  0  0  0  0  0  0  0  0  0  0
   -4.9796   -5.6452    3.3662 C   0  0  0  0  0  0  0  0  0  0  0  0
   -5.6906   -4.6544    4.2240 C   0  0  0  0  0  0  0  0  0  0  0  0
   -6.1001   -3.4032    3.4599 C   0  0  0  0  0  0  0  0  0  0  0  0
   -4.2820   -6.7452    3.7700 C   0  0  0  0  0  0  0  0  0  0  0  0
   -3.7261   -7.4986    2.7017 C   0  0  0  0  0  0  0  0  0  0  0  0
   -2.7456   -8.8785    2.9668 Cl  0  0  0  0  0  0  0  0  0  0  0  0
   -4.0800   -7.1819    5.4171 Cl  0  0  0  0  0  0  0  0  0  0  0  0
   -3.8451   -8.7438   -0.2623 C   0  0  0  0  0  0  0  0  0  0  0  0
   -4.6892   -9.9641    0.6462 S   0  0  0  0  0  0  0  0  0  0  0  0
   -2.5189   -5.2645   -0.5413 C   0  0  0  0  0  0  0  0  0  0  0  0
   -1.8436   -4.7284   -1.6002 C   0  0  0  0  0  0  0  0  0  0  0  0
   -1.7037   -5.8546   -2.9319 S   0  0  0  0  0  0  0  0  0  0  0  0
   -1.2435   -3.4337   -1.6435 C   0  0  0  0  0  0  0  0  0  0  0  0
   -1.1814   -2.5458   -0.6080 C   0  0  0  0  0  0  0  0  0  0  0  0
   -0.4445   -1.3772   -0.9057 C   0  0  0  0  0  0  0  0  0  0  0  0
   -0.1372   -0.3069   -0.0466 C   0  0  0  0  0  0  0  0  0  0  0  0
   -0.6115   -0.2811    1.3274 C   0  0  0  0  0  0  0  0  0  0  0  0
   -0.3510   -1.6235    2.4036 S   0  0  0  0  0  0  0  0  0  0  0  0
   -1.1663   -0.8389    3.7131 C   0  0  0  0  0  0  0  0  0  0  0  0
   -1.3596   -1.5265    5.0195 C   0  0  0  0  0  0  0  0  0  0  0  0
   -2.5489   -2.4888    4.9631 C   0  0  0  0  0  0  0  0  0  0  0  0
   -1.6122    0.3879    3.3225 C   0  0  0  0  0  0  0  0  0  0  0  0
   -2.4806    1.4604    4.3424 Cl  0  0  0  0  0  0  0  0  0  0  0  0
   -1.2944    0.7112    1.9752 C   0  0  0  0  0  0  0  0  0  0  0  0
   -1.8140    2.1689    1.2395 Cl  0  0  0  0  0  0  0  0  0  0  0  0
    0.6471    0.7115   -0.5702 C   0  0  0  0  0  0  0  0  0  0  0  0
    1.0904    0.7297   -1.9176 C   0  0  0  0  0  0  0  0  0  0  0  0
    0.7840   -0.3432   -2.7733 C   0  0  0  0  0  0  0  0  0  0  0  0
    1.2713   -0.3789   -4.1424 C   0  0  0  0  0  0  0  0  0  0  0  0
    0.1881   -0.6240   -5.4799 S   0  0  0  0  0  0  0  0  0  0  0  0
    1.4709   -0.5318   -6.6361 C   0  0  0  0  0  0  0  0  0  0  0  0
    1.2030   -0.6065   -8.0987 C   0  0  0  0  0  0  0  0  0  0  0  0
    0.9544    0.7882   -8.6787 C   0  0  0  0  0  0  0  0  0  0  0  0
    2.6625   -0.3222   -6.0076 C   0  0  0  0  0  0  0  0  0  0  0  0
    2.5548   -0.2394   -4.5938 C   0  0  0  0  0  0  0  0  0  0  0  0
    3.9245   -0.0649   -3.5721 Cl  0  0  0  0  0  0  0  0  0  0  0  0
    4.1632   -0.1797   -6.8279 Cl  0  0  0  0  0  0  0  0  0  0  0  0
    0.0236   -1.3760   -2.2425 C   0  0  0  0  0  0  0  0  0  0  0  0
   -0.4257   -2.8403   -3.0714 S   0  0  0  0  0  0  0  0  0  0  0  0
    1.8407    1.8946   -2.2090 C   0  0  0  0  0  0  0  0  0  0  0  0
    2.0359    2.6993   -1.1241 C   0  0  0  0  0  0  0  0  0  0  0  0
    1.2556    2.0782    0.3125 S   0  0  0  0  0  0  0  0  0  0  0  0
    2.7638    3.9261   -1.0618 C   0  0  0  0  0  0  0  0  0  0  0  0
    3.2719    4.6510   -2.1002 C   0  0  0  0  0  0  0  0  0  0  0  0
    3.9032    5.8510   -1.6907 C   0  0  0  0  0  0  0  0  0  0  0  0
    4.4320    6.8726   -2.4973 C   0  0  0  0  0  0  0  0  0  0  0  0
    4.4069    6.7924   -3.9489 C   0  0  0  0  0  0  0  0  0  0  0  0
    5.8689    6.9854   -4.8703 S   0  0  0  0  0  0  0  0  0  0  0  0
    5.0457    6.7540   -6.3737 C   0  0  0  0  0  0  0  0  0  0  0  0
    5.7689    6.8523   -7.6710 C   0  0  0  0  0  0  0  0  0  0  0  0
    5.9070    8.3135   -8.1052 C   0  0  0  0  0  0  0  0  0  0  0  0
    3.7144    6.5545   -6.1595 C   0  0  0  0  0  0  0  0  0  0  0  0
    2.5694    6.2957   -7.4123 Cl  0  0  0  0  0  0  0  0  0  0  0  0
    3.3496    6.5712   -4.7866 C   0  0  0  0  0  0  0  0  0  0  0  0
    1.7201    6.4154   -4.2714 Cl  0  0  0  0  0  0  0  0  0  0  0  0
    4.9613    7.9769   -1.8441 C   0  0  0  0  0  0  0  0  0  0  0  0
    5.0213    8.0878   -0.4347 C   0  0  0  0  0  0  0  0  0  0  0  0
    4.5135    7.0585    0.3753 C   0  0  0  0  0  0  0  0  0  0  0  0
    4.5327    7.1358    1.8267 C   0  0  0  0  0  0  0  0  0  0  0  0
    3.9041    8.5221    2.6682 S   0  0  0  0  0  0  0  0  0  0  0  0
    4.1959    7.8186    4.2212 C   0  0  0  0  0  0  0  0  0  0  0  0
    3.8772    8.5703    5.4655 C   0  0  0  0  0  0  0  0  0  0  0  0
    4.8737    9.7080    5.6892 C   0  0  0  0  0  0  0  0  0  0  0  0
    4.7708    6.5914    4.0813 C   0  0  0  0  0  0  0  0  0  0  0  0
    4.9576    6.1982    2.7275 C   0  0  0  0  0  0  0  0  0  0  0  0
    5.7247    4.7265    2.3036 Cl  0  0  0  0  0  0  0  0  0  0  0  0
    5.2276    5.5899    5.3966 Cl  0  0  0  0  0  0  0  0  0  0  0  0
    3.9312    5.9798   -0.2789 C   0  0  0  0  0  0  0  0  0  0  0  0
    3.0919    4.6679    0.4881 S   0  0  0  0  0  0  0  0  0  0  0  0
    5.5638    9.3334   -0.0314 C   0  0  0  0  0  0  0  0  0  0  0  0
    5.8205   10.1731   -1.0700 C   0  0  0  0  0  0  0  0  0  0  0  0
    5.5353    9.4225   -2.6229 S   0  0  0  0  0  0  0  0  0  0  0  0
    6.2361   11.5556   -0.9920 C   0  0  0  0  0  0  0  0  0  0  0  0
    5.6755   12.4245   -0.1200 C   0  0  0  0  0  0  0  0  0  0  0  0
    6.0737   13.7145    0.1138 O   0  0  0  0  0  0  0  0  0  0  0  0
    7.0928   14.2607   -0.6021 C   0  0  0  0  0  0  0  0  0  0  0  0
    7.5104   15.5362   -0.3803 C   0  0  0  0  0  0  0  0  0  0  0  0
    8.7940   15.9859   -1.4337 S   0  0  0  0  0  0  0  0  0  0  0  0
    8.7714   14.4368   -2.1836 C   0  0  0  0  0  0  0  0  0  0  0  0
    7.8243   13.6272   -1.6456 C   0  0  0  0  0  0  0  0  0  0  0  0
    7.5285   11.9660   -2.1422 S   0  0  0  0  0  0  0  0  0  0  0  0
    4.5375   12.1004    0.7279 C   0  0  0  0  0  0  0  0  0  0  0  0
    4.3496   12.5615    1.9928 C   0  0  0  0  0  0  0  0  0  0  0  0
    3.1513   12.0942    2.5949 C   0  0  0  0  0  0  0  0  0  0  0  0
    2.6806   12.3389    3.8955 C   0  0  0  0  0  0  0  0  0  0  0  0
    3.3152   13.3273    4.7478 C   0  0  0  0  0  0  0  0  0  0  0  0
    3.7172   12.9998    6.4071 S   0  0  0  0  0  0  0  0  0  0  0  0
    4.3483   14.5908    6.6547 C   0  0  0  0  0  0  0  0  0  0  0  0
    4.9531   14.9840    7.9567 C   0  0  0  0  0  0  0  0  0  0  0  0
    6.4017   14.5000    8.0571 C   0  0  0  0  0  0  0  0  0  0  0  0
    4.2478   15.3226    5.5091 C   0  0  0  0  0  0  0  0  0  0  0  0
    4.7651   16.9526    5.3659 Cl  0  0  0  0  0  0  0  0  0  0  0  0
    3.6586   14.6142    4.4280 C   0  0  0  0  0  0  0  0  0  0  0  0
    3.3407   15.3552    2.9126 Cl  0  0  0  0  0  0  0  0  0  0  0  0
    1.5716   11.6054    4.3056 C   0  0  0  0  0  0  0  0  0  0  0  0
    0.8907   10.7000    3.4583 C   0  0  0  0  0  0  0  0  0  0  0  0
    1.3017   10.5353    2.1258 C   0  0  0  0  0  0  0  0  0  0  0  0
    0.5948    9.6332    1.2303 C   0  0  0  0  0  0  0  0  0  0  0  0
    1.4123    8.3317    0.4149 S   0  0  0  0  0  0  0  0  0  0  0  0
   -0.0503    7.7632   -0.3109 C   0  0  0  0  0  0  0  0  0  0  0  0
   -0.0710    6.5327   -1.1483 C   0  0  0  0  0  0  0  0  0  0  0  0
   -0.5352    5.3208   -0.3376 C   0  0  0  0  0  0  0  0  0  0  0  0
   -1.1006    8.5521    0.0548 C   0  0  0  0  0  0  0  0  0  0  0  0
   -0.7385    9.6120    0.9283 C   0  0  0  0  0  0  0  0  0  0  0  0
   -1.8654   10.7793    1.4858 Cl  0  0  0  0  0  0  0  0  0  0  0  0
   -2.7113    8.3056   -0.4812 Cl  0  0  0  0  0  0  0  0  0  0  0  0
    2.4347   11.2334    1.7311 C   0  0  0  0  0  0  0  0  0  0  0  0
    3.1918   11.1286    0.1690 S   0  0  0  0  0  0  0  0  0  0  0  0
   -0.1693   10.0357    4.1430 C   0  0  0  0  0  0  0  0  0  0  0  0
   -0.3021   10.4422    5.4214 C   0  0  0  0  0  0  0  0  0  0  0  0
    0.8466   11.6492    5.8884 S   0  0  0  0  0  0  0  0  0  0  0  0
   -7.5399  -19.9752    0.5695 H   0  0  0  0  0  0  0  0  0  0  0  0
   -6.1920  -19.0066   -1.4376 H   0  0  0  0  0  0  0  0  0  0  0  0
   -4.3645  -16.6569   -6.7370 H   0  0  0  0  0  0  0  0  0  0  0  0
   -3.0215  -17.7933   -6.5078 H   0  0  0  0  0  0  0  0  0  0  0  0
   -2.2115  -15.5966   -7.3707 H   0  0  0  0  0  0  0  0  0  0  0  0
   -1.5651  -15.9107   -5.7575 H   0  0  0  0  0  0  0  0  0  0  0  0
   -2.9070  -14.7824   -5.9638 H   0  0  0  0  0  0  0  0  0  0  0  0
   -9.3361  -13.3165    6.2072 H   0  0  0  0  0  0  0  0  0  0  0  0
  -10.4778  -14.0740    5.0790 H   0  0  0  0  0  0  0  0  0  0  0  0
   -8.5776  -15.5716    6.9492 H   0  0  0  0  0  0  0  0  0  0  0  0
   -9.7007  -16.3295    5.8159 H   0  0  0  0  0  0  0  0  0  0  0  0
  -10.3195  -15.3893    7.1791 H   0  0  0  0  0  0  0  0  0  0  0  0
   -6.0482  -12.4032    1.3196 H   0  0  0  0  0  0  0  0  0  0  0  0
   -3.6871  -11.1197   -2.6431 H   0  0  0  0  0  0  0  0  0  0  0  0
   -0.9736   -9.6054   -8.0304 H   0  0  0  0  0  0  0  0  0  0  0  0
   -1.9154   -8.1029   -7.9603 H   0  0  0  0  0  0  0  0  0  0  0  0
   -3.0835  -10.9298   -7.9639 H   0  0  0  0  0  0  0  0  0  0  0  0
   -3.0800   -9.8154   -9.3344 H   0  0  0  0  0  0  0  0  0  0  0  0
   -4.0250   -9.4368   -7.8898 H   0  0  0  0  0  0  0  0  0  0  0  0
   -5.0358   -4.3911    5.0593 H   0  0  0  0  0  0  0  0  0  0  0  0
   -6.5788   -5.1319    4.6502 H   0  0  0  0  0  0  0  0  0  0  0  0
   -6.5959   -2.7021    4.1258 H   0  0  0  0  0  0  0  0  0  0  0  0
   -5.2287   -2.9169    3.0277 H   0  0  0  0  0  0  0  0  0  0  0  0
   -6.7838   -3.6573    2.6531 H   0  0  0  0  0  0  0  0  0  0  0  0
   -2.6975   -4.7293    0.3715 H   0  0  0  0  0  0  0  0  0  0  0  0
   -1.6334   -2.7294    0.3476 H   0  0  0  0  0  0  0  0  0  0  0  0
   -0.4560   -2.0831    5.2741 H   0  0  0  0  0  0  0  0  0  0  0  0
   -1.5352   -0.7723    5.7885 H   0  0  0  0  0  0  0  0  0  0  0  0
   -2.3883   -3.2451    4.1979 H   0  0  0  0  0  0  0  0  0  0  0  0
   -2.6698   -2.9852    5.9222 H   0  0  0  0  0  0  0  0  0  0  0  0
   -3.4613   -1.9441    4.7333 H   0  0  0  0  0  0  0  0  0  0  0  0
    2.0666   -1.0568   -8.5922 H   0  0  0  0  0  0  0  0  0  0  0  0
    0.3299   -1.2365   -8.2744 H   0  0  0  0  0  0  0  0  0  0  0  0
    1.8236    1.4218   -8.5215 H   0  0  0  0  0  0  0  0  0  0  0  0
    0.7615    0.7199   -9.7458 H   0  0  0  0  0  0  0  0  0  0  0  0
    0.0959    1.2500   -8.1969 H   0  0  0  0  0  0  0  0  0  0  0  0
    2.2252    2.1219   -3.1851 H   0  0  0  0  0  0  0  0  0  0  0  0
    3.1897    4.3455   -3.1259 H   0  0  0  0  0  0  0  0  0  0  0  0
    5.2124    6.2952   -8.4270 H   0  0  0  0  0  0  0  0  0  0  0  0
    6.7608    6.4092   -7.5681 H   0  0  0  0  0  0  0  0  0  0  0  0
    6.4573    8.8783   -7.3565 H   0  0  0  0  0  0  0  0  0  0  0  0
    4.9256    8.7645   -8.2284 H   0  0  0  0  0  0  0  0  0  0  0  0
    6.4393    8.3732   -9.0506 H   0  0  0  0  0  0  0  0  0  0  0  0
    2.8696    8.9852    5.3910 H   0  0  0  0  0  0  0  0  0  0  0  0
    3.9082    7.8786    6.3085 H   0  0  0  0  0  0  0  0  0  0  0  0
    4.6262   10.2465    6.5995 H   0  0  0  0  0  0  0  0  0  0  0  0
    5.8831    9.3139    5.7762 H   0  0  0  0  0  0  0  0  0  0  0  0
    4.8408   10.4038    4.8537 H   0  0  0  0  0  0  0  0  0  0  0  0
    5.7289    9.6071    0.9944 H   0  0  0  0  0  0  0  0  0  0  0  0
    7.1272   16.2267    0.3420 H   0  0  0  0  0  0  0  0  0  0  0  0
    9.4525   14.2083   -2.9770 H   0  0  0  0  0  0  0  0  0  0  0  0
    5.0752   13.1698    2.5005 H   0  0  0  0  0  0  0  0  0  0  0  0
    4.3697   14.5521    8.7717 H   0  0  0  0  0  0  0  0  0  0  0  0
    4.9233   16.0716    8.0420 H   0  0  0  0  0  0  0  0  0  0  0  0
    6.8273   14.7928    9.0129 H   0  0  0  0  0  0  0  0  0  0  0  0
    7.0006   14.9353    7.2611 H   0  0  0  0  0  0  0  0  0  0  0  0
    6.4438   13.4168    7.9719 H   0  0  0  0  0  0  0  0  0  0  0  0
   -0.7520    6.6862   -1.9887 H   0  0  0  0  0  0  0  0  0  0  0  0
    0.9302    6.3498   -1.5404 H   0  0  0  0  0  0  0  0  0  0  0  0
    0.1328    5.1449    0.5024 H   0  0  0  0  0  0  0  0  0  0  0  0
   -0.5440    4.4351   -0.9679 H   0  0  0  0  0  0  0  0  0  0  0  0
   -1.5392    5.4839    0.0454 H   0  0  0  0  0  0  0  0  0  0  0  0
   -0.7858    9.2823    3.6894 H   0  0  0  0  0  0  0  0  0  0  0  0
   -1.0137   10.1055    6.1496 H   0  0  0  0  0  0  0  0  0  0  0  0
  1  2  2  0  0  0  0
  2  3  1  0  0  0  0
  3  4  2  0  0  0  0
  4  5  1  0  0  0  0
  5  6  1  0  0  0  0
  6  7  1  0  0  0  0
  7  8  1  0  0  0  0
  8  9  1  0  0  0  0
  7 10  2  0  0  0  0
 10 11  1  0  0  0  0
 10 12  1  0  0  0  0
 12 13  1  0  0  0  0
  4 14  1  0  0  0  0
 14 15  2  0  0  0  0
 15 16  1  0  0  0  0
 16 17  1  0  0  0  0
 17 18  1  0  0  0  0
 18 19  1  0  0  0  0
 19 20  1  0  0  0  0
 20 21  1  0  0  0  0
 19 22  2  0  0  0  0
 22 23  1  0  0  0  0
 23 24  1  0  0  0  0
 22 25  1  0  0  0  0
 16 26  2  0  0  0  0
 26 27  1  0  0  0  0
 15 28  1  0  0  0  0
 28 29  2  0  0  0  0
 29 30  1  0  0  0  0
 29 31  1  0  0  0  0
 31 32  2  0  0  0  0
 32 33  1  0  0  0  0
 33 34  2  0  0  0  0
 34 35  1  0  0  0  0
 35 36  1  0  0  0  0
 36 37  1  0  0  0  0
 37 38  1  0  0  0  0
 38 39  1  0  0  0  0
 37 40  2  0  0  0  0
 40 41  1  0  0  0  0
 40 42  1  0  0  0  0
 42 43  1  0  0  0  0
 34 44  1  0  0  0  0
 44 45  2  0  0  0  0
 45 46  1  0  0  0  0
 46 47  1  0  0  0  0
 47 48  1  0  0  0  0
 48 49  1  0  0  0  0
 49 50  1  0  0  0  0
 50 51  1  0  0  0  0
 49 52  2  0  0  0  0
 52 53  1  0  0  0  0
 53 54  1  0  0  0  0
 52 55  1  0  0  0  0
 46 56  2  0  0  0  0
 56 57  1  0  0  0  0
 45 58  1  0  0  0  0
 58 59  2  0  0  0  0
 59 60  1  0  0  0  0
 59 61  1  0  0  0  0
 61 62  2  0  0  0  0
 62 63  1  0  0  0  0
 63 64  2  0  0  0  0
 64 65  1  0  0  0  0
 65 66  1  0  0  0  0
 66 67  1  0  0  0  0
 67 68  1  0  0  0  0
 68 69  1  0  0  0  0
 67 70  2  0  0  0  0
 70 71  1  0  0  0  0
 70 72  1  0  0  0  0
 72 73  1  0  0  0  0
 64 74  1  0  0  0  0
 74 75  2  0  0  0  0
 75 76  1  0  0  0  0
 76 77  1  0  0  0  0
 77 78  1  0  0  0  0
 78 79  1  0  0  0  0
 79 80  1  0  0  0  0
 80 81  1  0  0  0  0
 79 82  2  0  0  0  0
 82 83  1  0  0  0  0
 83 84  1  0  0  0  0
 82 85  1  0  0  0  0
 76 86  2  0  0  0  0
 86 87  1  0  0  0  0
 75 88  1  0  0  0  0
 88 89  2  0  0  0  0
 89 90  1  0  0  0  0
 89 91  1  0  0  0  0
 91 92  2  0  0  0  0
 92 93  1  0  0  0  0
 93 94  2  0  0  0  0
 94 95  1  0  0  0  0
 95 96  1  0  0  0  0
 96 97  1  0  0  0  0
 97 98  1  0  0  0  0
 98 99  1  0  0  0  0
 97100  2  0  0  0  0
100101  1  0  0  0  0
100102  1  0  0  0  0
102103  1  0  0  0  0
 94104  1  0  0  0  0
104105  2  0  0  0  0
105106  1  0  0  0  0
106107  1  0  0  0  0
107108  1  0  0  0  0
108109  1  0  0  0  0
109110  1  0  0  0  0
110111  1  0  0  0  0
109112  2  0  0  0  0
112113  1  0  0  0  0
113114  1  0  0  0  0
112115  1  0  0  0  0
106116  2  0  0  0  0
116117  1  0  0  0  0
105118  1  0  0  0  0
118119  2  0  0  0  0
119120  1  0  0  0  0
119121  1  0  0  0  0
121122  2  0  0  0  0
122123  1  0  0  0  0
123124  1  0  0  0  0
124125  2  0  0  0  0
125126  1  0  0  0  0
126127  1  0  0  0  0
127128  2  0  0  0  0
128129  1  0  0  0  0
122130  1  0  0  0  0
130131  2  0  0  0  0
131132  1  0  0  0  0
132133  2  0  0  0  0
133134  1  0  0  0  0
134135  1  0  0  0  0
135136  1  0  0  0  0
136137  1  0  0  0  0
137138  1  0  0  0  0
136139  2  0  0  0  0
139140  1  0  0  0  0
139141  1  0  0  0  0
141142  1  0  0  0  0
133143  1  0  0  0  0
143144  2  0  0  0  0
144145  1  0  0  0  0
145146  1  0  0  0  0
146147  1  0  0  0  0
147148  1  0  0  0  0
148149  1  0  0  0  0
149150  1  0  0  0  0
148151  2  0  0  0  0
151152  1  0  0  0  0
152153  1  0  0  0  0
151154  1  0  0  0  0
145155  2  0  0  0  0
155156  1  0  0  0  0
144157  1  0  0  0  0
157158  2  0  0  0  0
158159  1  0  0  0  0
 27  1  1  0  0  0  0
 57 31  1  0  0  0  0
 87 61  1  0  0  0  0
117 91  1  0  0  0  0
129121  1  0  0  0  0
156130  1  0  0  0  0
 26  3  1  0  0  0  0
 56 33  1  0  0  0  0
 86 63  1  0  0  0  0
116 93  1  0  0  0  0
128124  1  0  0  0  0
155132  1  0  0  0  0
 12  5  2  0  0  0  0
 30 14  1  0  0  0  0
 42 35  2  0  0  0  0
 60 44  1  0  0  0  0
 72 65  2  0  0  0  0
 90 74  1  0  0  0  0
102 95  2  0  0  0  0
120104  1  0  0  0  0
141134  2  0  0  0  0
159143  1  0  0  0  0
 23 17  2  0  0  0  0
 53 47  2  0  0  0  0
 83 77  2  0  0  0  0
113107  2  0  0  0  0
152146  2  0  0  0  0
  1160  1  0  0  0  0
  2161  1  0  0  0  0
  8162  1  0  0  0  0
  8163  1  0  0  0  0
  9164  1  0  0  0  0
  9165  1  0  0  0  0
  9166  1  0  0  0  0
 20167  1  0  0  0  0
 20168  1  0  0  0  0
 21169  1  0  0  0  0
 21170  1  0  0  0  0
 21171  1  0  0  0  0
 28172  1  0  0  0  0
 32173  1  0  0  0  0
 38174  1  0  0  0  0
 38175  1  0  0  0  0
 39176  1  0  0  0  0
 39177  1  0  0  0  0
 39178  1  0  0  0  0
 50179  1  0  0  0  0
 50180  1  0  0  0  0
 51181  1  0  0  0  0
 51182  1  0  0  0  0
 51183  1  0  0  0  0
 58184  1  0  0  0  0
 62185  1  0  0  0  0
 68186  1  0  0  0  0
 68187  1  0  0  0  0
 69188  1  0  0  0  0
 69189  1  0  0  0  0
 69190  1  0  0  0  0
 80191  1  0  0  0  0
 80192  1  0  0  0  0
 81193  1  0  0  0  0
 81194  1  0  0  0  0
 81195  1  0  0  0  0
 88196  1  0  0  0  0
 92197  1  0  0  0  0
 98198  1  0  0  0  0
 98199  1  0  0  0  0
 99200  1  0  0  0  0
 99201  1  0  0  0  0
 99202  1  0  0  0  0
110203  1  0  0  0  0
110204  1  0  0  0  0
111205  1  0  0  0  0
111206  1  0  0  0  0
111207  1  0  0  0  0
118208  1  0  0  0  0
125209  1  0  0  0  0
127210  1  0  0  0  0
131211  1  0  0  0  0
137212  1  0  0  0  0
137213  1  0  0  0  0
138214  1  0  0  0  0
138215  1  0  0  0  0
138216  1  0  0  0  0
149217  1  0  0  0  0
149218  1  0  0  0  0
150219  1  0  0  0  0
150220  1  0  0  0  0
150221  1  0  0  0  0
157222  1  0  0  0  0
158223  1  0  0  0  0
M  END
