152

C         -4.04550        9.47150       -0.68690
C         -4.22420        8.89830       -1.91030
C         -4.07460        7.51750       -2.07080
C         -3.72250        6.71410       -1.01040
O         -3.62490        5.35710       -1.09930
C         -3.88090        4.68560       -2.31230
C         -2.69300        4.72190       -3.27210
C         -3.47380        7.28550        0.27770
C         -3.68120        8.68280        0.42340
C         -3.53190        9.29980        1.70050
O         -3.77260       10.64530        1.72330
C         -3.53960       11.37760        2.90570
C         -2.05550       11.62910        3.16010
C         -3.19370        8.53340        2.78760
C         -2.96640        7.16610        2.63240
C         -3.07650        6.52240        1.41770
C         -2.74760        5.10710        1.34210
C         -3.10390        4.21240        2.27730
C         -2.86450        2.79710        2.26590
C         -2.11510        2.00730        1.39380
C         -1.20760        2.47290        0.31160
C         -2.24880        0.61950        1.73180
C         -3.04640        0.55620        2.84640
C         -3.46500        1.91260        3.21380
C         -4.27890        2.06310        4.29870
C         -4.66040        0.90110        5.01050
C         -4.23080       -0.32430        4.59690
O         -3.45070       -0.52520        3.54260
C         -1.66640       -0.51100        1.02610
C         -1.77840       -0.81160       -0.32320
C         -2.58120       -0.04570       -1.31790
C         -1.11080       -2.04880       -0.61200
C         -0.59040       -2.50160        0.57700
C         -0.92960       -1.55640        1.64230
C         -0.51080       -1.83590        2.91260
C          0.21890       -3.02490        3.12170
C          0.50200       -3.84430        2.06780
O          0.12300       -3.61170        0.82080
C         -0.89280       -2.69650       -1.89830
C         -0.47260       -1.96130       -2.98000
C          0.00200       -2.57070       -4.14330
C          0.18610       -3.93150       -4.18990
O          0.73480       -4.59660       -5.24700
C          1.13410       -3.89410       -6.40060
C         -0.03620       -3.54600       -7.31840
C         -0.28280       -4.74080       -3.11100
C         -0.96300       -4.11570       -2.03460
C         -1.76310       -4.92160       -1.16790
O         -2.49950       -4.25080       -0.23610
C         -3.37980       -4.94170        0.61870
C         -4.71030       -5.27770       -0.05050
C         -1.80430       -6.28360       -1.35190
C         -0.97060       -6.89340       -2.29190
C         -0.16810       -6.15890       -3.12950
C          0.81920       -6.85470       -3.96100
C          2.13860       -6.66510       -3.88090
C          2.85910       -5.78330       -2.97630
C          2.72010       -5.60910       -1.60620
C          1.75910       -6.29510       -0.70480
C          3.70880       -4.68940       -1.11090
C          4.47840       -4.32220       -2.17660
C          3.97230       -4.99650       -3.38350
C          4.60350       -4.75580       -4.56940
C          5.71840       -3.88620       -4.56290
C          6.12990       -3.31290       -3.39580
O          5.54610       -3.50620       -2.21940
C          3.88530       -4.37670        0.31750
C          4.40100       -5.38300        1.09900
C          4.49220       -5.27130        2.48590
C          4.07110       -4.12610        3.11720
O          4.00720       -3.98410        4.47360
C          4.48160       -5.00490        5.32290
C          6.00370       -5.01610        5.44260
C          3.60570       -3.01650        2.34850
C          3.48980       -3.15960        0.93470
C          2.95360       -2.06940        0.18060
O          2.98750       -2.18120       -1.16950
C          2.65330       -1.05470       -1.95120
C          3.04730       -1.35380       -3.38900
C          2.45810       -0.96380        0.83220
C          2.59420       -0.83410        2.21240
C          3.20590       -1.80050        2.97420
C          3.46610       -1.50310        4.38480
C          2.58050       -0.95830        5.20570
H         -4.18190       10.53020       -0.54070
H         -4.49690        9.49790       -2.76630
H         -4.25580        7.09780       -3.04750
H         -4.07520        3.65170       -2.00850
H         -4.78590        5.07430       -2.79500
H         -2.92280        4.14110       -4.16150
H         -1.81500        4.29750       -2.79090
H         -2.45940        5.74210       -3.56580
H         -4.00550       10.88510        3.76870
H         -4.05250       12.32980        2.73930
H         -1.52250       10.69140        3.29590
H         -1.93300       12.23950        4.05070
H         -1.62080       12.14980        2.31050
H         -3.08150        8.96220        3.77140
H         -2.65580        6.59770        3.49680
H         -2.20680        4.79280        0.46970
H         -3.69950        4.55710        3.11460
H         -0.58060        1.64840       -0.02090
H         -0.57170        3.27950        0.67500
H         -1.77620        2.84690       -0.53980
H         -4.63410        3.02890        4.62470
H         -5.29390        0.97490        5.87810
H         -4.49210       -1.24540        5.09750
H         -3.05740       -0.73270       -2.01520
H         -3.34250        0.54160       -0.80820
H         -1.96000        0.63940       -1.89600
H         -0.73150       -1.17850        3.74000
H          0.57520       -3.28660        4.10340
H          1.06630       -4.75990        2.16440
H         -0.48430       -0.88280       -2.93440
H          0.27410       -1.93770       -4.97310
H          1.80640       -4.58690       -6.91620
H          1.70730       -2.99570       -6.13690
H          0.33290       -3.06360       -8.21970
H         -0.56570       -4.45450       -7.59380
H         -0.73690       -2.88050       -6.82110
H         -3.55100       -4.24380        1.44500
H         -2.90620       -5.84470        1.02550
H         -4.56340       -5.94520       -0.89590
H         -5.37380       -5.75390        0.66660
H         -5.17540       -4.36430       -0.41230
H         -2.44200       -6.91250       -0.75100
H         -0.94200       -7.97340       -2.33780
H          0.43330       -7.60170       -4.64380
H          2.77530       -7.20600       -4.57380
H          0.88850       -5.66220       -0.53690
H          2.22410       -6.48850        0.26090
H          1.42700       -7.23320       -1.14070
H          4.27790       -5.21090       -5.49270
H          6.25160       -3.67170       -5.47380
H          6.97850       -2.64680       -3.33040
H          4.72690       -6.30040        0.62910
H          4.87220       -6.11400        3.04120
H          4.10720       -5.98610        5.00430
H          4.03820       -4.77000        6.29540
H          6.35040       -4.05490        5.81360
H          6.31230       -5.79380        6.13610
H          6.46810       -5.19770        4.47660
H          3.19420       -0.16850       -1.58880
H          1.57450       -0.86560       -1.88700
H          2.69680       -0.55770       -4.04050
H          2.60140       -2.29660       -3.69360
H          4.12760       -1.43200       -3.47790
H          1.98240       -0.16470        0.28710
H          2.25390        0.07580        2.68370
H          4.46750       -1.70890        4.73610
H          2.82750       -0.70830        6.22360
H          1.56880       -0.75700        4.89530
