
  xtb     02282218193D
 energy: -245.403745436481 gnorm: 0.000208297416 xtb: 6.4.1 (unknown)
160177  0     0  0            999 V2000
    6.2971   11.3074    3.5973 C   0  0  0  0  0  0  0  0  0  0  0  0
    7.2060    9.8388    3.4215 S   0  0  0  0  0  0  0  0  0  0  0  0
    5.7722    8.9165    3.6934 C   0  0  0  0  0  0  0  0  0  0  0  0
    5.3099    7.5996    3.7794 C   0  0  0  0  0  0  0  0  0  0  0  0
    3.9293    7.6728    4.0416 C   0  0  0  0  0  0  0  0  0  0  0  0
    3.5377    8.9849    4.0986 N   0  0  0  0  0  0  0  0  0  0  0  0
    2.2262    9.4633    4.4471 C   0  0  0  0  0  0  0  0  0  0  0  0
    2.0585    9.5925    5.9602 C   0  0  0  0  0  0  0  0  0  0  0  0
    4.6592    9.7488    3.9055 C   0  0  0  0  0  0  0  0  0  0  0  0
    4.9740   11.1211    3.8480 C   0  0  0  0  0  0  0  0  0  0  0  0
    3.3123    6.4199    4.1583 C   0  0  0  0  0  0  0  0  0  0  0  0
    4.2108    5.3938    3.9873 C   0  0  0  0  0  0  0  0  0  0  0  0
    5.8498    5.9641    3.6755 S   0  0  0  0  0  0  0  0  0  0  0  0
    3.9517    3.9969    4.0296 C   0  0  0  0  0  0  0  0  0  0  0  0
    2.3105    3.4241    4.3242 S   0  0  0  0  0  0  0  0  0  0  0  0
    2.8487    1.7894    4.1956 C   0  0  0  0  0  0  0  0  0  0  0  0
    2.3818    0.4724    4.2417 C   0  0  0  0  0  0  0  0  0  0  0  0
    3.4934   -0.3571    4.0142 C   0  0  0  0  0  0  0  0  0  0  0  0
    4.6197    0.4068    3.8558 N   0  0  0  0  0  0  0  0  0  0  0  0
    5.9346   -0.0731    3.5230 C   0  0  0  0  0  0  0  0  0  0  0  0
    6.1309   -0.1792    2.0117 C   0  0  0  0  0  0  0  0  0  0  0  0
    4.2320    1.7189    3.9437 C   0  0  0  0  0  0  0  0  0  0  0  0
    4.8505    2.9722    3.8511 C   0  0  0  0  0  0  0  0  0  0  0  0
    3.1769   -1.7279    4.0111 C   0  0  0  0  0  0  0  0  0  0  0  0
    1.8498   -1.9440    4.2567 C   0  0  0  0  0  0  0  0  0  0  0  0
    0.9370   -0.4503    4.4538 S   0  0  0  0  0  0  0  0  0  0  0  0
    1.1568   -3.2253    4.1601 C   0  0  0  0  0  0  0  0  0  0  0  0
    0.1942   -3.3209    3.1620 C   0  0  0  0  0  0  0  0  0  0  0  0
   -0.3938   -4.5229    2.7569 C   0  0  0  0  0  0  0  0  0  0  0  0
    0.0154   -5.6944    3.3823 C   0  0  0  0  0  0  0  0  0  0  0  0
    0.9179   -5.6199    4.4282 C   0  0  0  0  0  0  0  0  0  0  0  0
    1.4639   -4.3893    4.8819 C   0  0  0  0  0  0  0  0  0  0  0  0
    2.2550   -4.6287    5.9942 N   0  0  0  0  0  0  0  0  0  0  0  0
    2.2674   -5.9947    6.2184 C   0  0  0  0  0  0  0  0  0  0  0  0
    1.4597   -6.6489    5.2650 C   0  0  0  0  0  0  0  0  0  0  0  0
    1.3179   -8.0297    5.2779 C   0  0  0  0  0  0  0  0  0  0  0  0
    1.9892   -8.7528    6.2420 C   0  0  0  0  0  0  0  0  0  0  0  0
    2.7882   -8.1072    7.1818 C   0  0  0  0  0  0  0  0  0  0  0  0
    2.9378   -6.7337    7.1857 C   0  0  0  0  0  0  0  0  0  0  0  0
    2.6371   -3.7192    7.0655 C   0  0  0  0  0  0  0  0  0  0  0  0
    1.5020   -2.7384    7.3919 C   0  0  0  0  0  0  0  0  0  0  0  0
    1.6277   -2.1512    8.7923 C   0  0  0  0  0  0  0  0  0  0  0  0
    3.9785   -3.0073    6.8322 C   0  0  0  0  0  0  0  0  0  0  0  0
    5.0594   -3.9434    6.3050 C   0  0  0  0  0  0  0  0  0  0  0  0
   -1.3678   -4.4924    1.6794 C   0  0  0  0  0  0  0  0  0  0  0  0
   -1.7113   -5.5259    0.9053 C   0  0  0  0  0  0  0  0  0  0  0  0
   -2.6452   -5.4136   -0.2171 C   0  0  0  0  0  0  0  0  0  0  0  0
   -2.4634   -4.3718   -1.1146 C   0  0  0  0  0  0  0  0  0  0  0  0
   -3.2255   -4.1925   -2.2799 C   0  0  0  0  0  0  0  0  0  0  0  0
   -4.2163   -5.1280   -2.5696 C   0  0  0  0  0  0  0  0  0  0  0  0
   -4.4426   -6.1635   -1.6809 C   0  0  0  0  0  0  0  0  0  0  0  0
   -3.6904   -6.3096   -0.4887 C   0  0  0  0  0  0  0  0  0  0  0  0
   -4.1831   -7.3759    0.2335 N   0  0  0  0  0  0  0  0  0  0  0  0
   -5.2248   -7.9391   -0.4781 C   0  0  0  0  0  0  0  0  0  0  0  0
   -5.4094   -7.2226   -1.6838 C   0  0  0  0  0  0  0  0  0  0  0  0
   -6.3915   -7.5926   -2.5918 C   0  0  0  0  0  0  0  0  0  0  0  0
   -7.1883   -8.6795   -2.2980 C   0  0  0  0  0  0  0  0  0  0  0  0
   -7.0069   -9.3866   -1.1129 C   0  0  0  0  0  0  0  0  0  0  0  0
   -6.0353   -9.0330   -0.1963 C   0  0  0  0  0  0  0  0  0  0  0  0
   -3.8433   -7.6729    1.6092 C   0  0  0  0  0  0  0  0  0  0  0  0
   -5.0332   -7.3985    2.5428 C   0  0  0  0  0  0  0  0  0  0  0  0
   -5.4516   -5.9336    2.4928 C   0  0  0  0  0  0  0  0  0  0  0  0
   -3.2884   -9.0958    1.7805 C   0  0  0  0  0  0  0  0  0  0  0  0
   -2.1274   -9.3882    0.8373 C   0  0  0  0  0  0  0  0  0  0  0  0
   -2.9370   -3.0471   -3.1106 C   0  0  0  0  0  0  0  0  0  0  0  0
   -3.5457   -2.7130   -4.2650 C   0  0  0  0  0  0  0  0  0  0  0  0
   -3.2471   -1.5490   -5.0337 C   0  0  0  0  0  0  0  0  0  0  0  0
   -4.1366   -1.2956   -6.5348 S   0  0  0  0  0  0  0  0  0  0  0  0
   -3.2959    0.1836   -6.8085 C   0  0  0  0  0  0  0  0  0  0  0  0
   -3.2068    1.2494   -7.7066 C   0  0  0  0  0  0  0  0  0  0  0  0
   -2.2331    2.1300   -7.1942 C   0  0  0  0  0  0  0  0  0  0  0  0
   -1.7156    1.6225   -6.0297 N   0  0  0  0  0  0  0  0  0  0  0  0
   -0.7929    2.2857   -5.1483 C   0  0  0  0  0  0  0  0  0  0  0  0
   -1.5194    3.1727   -4.1378 C   0  0  0  0  0  0  0  0  0  0  0  0
   -2.3732    0.4455   -5.7756 C   0  0  0  0  0  0  0  0  0  0  0  0
   -2.3496   -0.5350   -4.7787 C   0  0  0  0  0  0  0  0  0  0  0  0
   -2.0329    3.2666   -7.9840 C   0  0  0  0  0  0  0  0  0  0  0  0
   -2.8460    3.2631   -9.0975 C   0  0  0  0  0  0  0  0  0  0  0  0
   -3.8750    1.8387   -9.1837 S   0  0  0  0  0  0  0  0  0  0  0  0
   -2.9204    4.2560  -10.1148 C   0  0  0  0  0  0  0  0  0  0  0  0
   -4.0549    4.0635  -11.4455 S   0  0  0  0  0  0  0  0  0  0  0  0
   -3.5291    5.5574  -12.1275 C   0  0  0  0  0  0  0  0  0  0  0  0
   -3.7500    6.4092  -13.2153 C   0  0  0  0  0  0  0  0  0  0  0  0
   -2.8756    7.4984  -13.0603 C   0  0  0  0  0  0  0  0  0  0  0  0
   -2.1460    7.3487  -11.9088 N   0  0  0  0  0  0  0  0  0  0  0  0
   -1.0738    8.1975  -11.4636 C   0  0  0  0  0  0  0  0  0  0  0  0
    0.2668    7.7716  -12.0611 C   0  0  0  0  0  0  0  0  0  0  0  0
   -2.5254    6.1576  -11.3445 C   0  0  0  0  0  0  0  0  0  0  0  0
   -2.1838    5.4170  -10.2060 C   0  0  0  0  0  0  0  0  0  0  0  0
   -2.9829    8.4489  -14.0947 C   0  0  0  0  0  0  0  0  0  0  0  0
   -3.9214    8.0739  -15.0044 C   0  0  0  0  0  0  0  0  0  0  0  0
   -4.7055    6.5678  -14.6442 S   0  0  0  0  0  0  0  0  0  0  0  0
    6.8183   12.2389    3.5019 H   0  0  0  0  0  0  0  0  0  0  0  0
    1.4888    8.7618    4.0471 H   0  0  0  0  0  0  0  0  0  0  0  0
    2.0776   10.4349    3.9679 H   0  0  0  0  0  0  0  0  0  0  0  0
    2.7904   10.2894    6.3620 H   0  0  0  0  0  0  0  0  0  0  0  0
    1.0618    9.9548    6.1968 H   0  0  0  0  0  0  0  0  0  0  0  0
    2.2030    8.6261    6.4375 H   0  0  0  0  0  0  0  0  0  0  0  0
    4.2738   11.9252    3.9845 H   0  0  0  0  0  0  0  0  0  0  0  0
    2.2697    6.2492    4.3576 H   0  0  0  0  0  0  0  0  0  0  0  0
    6.0677   -1.0539    3.9885 H   0  0  0  0  0  0  0  0  0  0  0  0
    6.6684    0.6170    3.9487 H   0  0  0  0  0  0  0  0  0  0  0  0
    6.0056    0.7962    1.5473 H   0  0  0  0  0  0  0  0  0  0  0  0
    7.1285   -0.5477    1.7892 H   0  0  0  0  0  0  0  0  0  0  0  0
    5.4006   -0.8625    1.5844 H   0  0  0  0  0  0  0  0  0  0  0  0
    5.8940    3.1452    3.6590 H   0  0  0  0  0  0  0  0  0  0  0  0
    3.8689   -2.5245    3.8049 H   0  0  0  0  0  0  0  0  0  0  0  0
   -0.0703   -2.4160    2.6328 H   0  0  0  0  0  0  0  0  0  0  0  0
   -0.3791   -6.6545    3.0883 H   0  0  0  0  0  0  0  0  0  0  0  0
    0.6983   -8.5230    4.5441 H   0  0  0  0  0  0  0  0  0  0  0  0
    1.9003   -9.8284    6.2710 H   0  0  0  0  0  0  0  0  0  0  0  0
    3.3080   -8.6942    7.9249 H   0  0  0  0  0  0  0  0  0  0  0  0
    3.5736   -6.2704    7.9249 H   0  0  0  0  0  0  0  0  0  0  0  0
    2.7610   -4.3624    7.9441 H   0  0  0  0  0  0  0  0  0  0  0  0
    0.5524   -3.2742    7.3143 H   0  0  0  0  0  0  0  0  0  0  0  0
    1.4864   -1.9264    6.6673 H   0  0  0  0  0  0  0  0  0  0  0  0
    0.7767   -1.5073    9.0001 H   0  0  0  0  0  0  0  0  0  0  0  0
    2.5319   -1.5556    8.8865 H   0  0  0  0  0  0  0  0  0  0  0  0
    1.6515   -2.9393    9.5423 H   0  0  0  0  0  0  0  0  0  0  0  0
    3.8399   -2.1803    6.1375 H   0  0  0  0  0  0  0  0  0  0  0  0
    4.3031   -2.5870    7.7854 H   0  0  0  0  0  0  0  0  0  0  0  0
    5.2618   -4.7430    7.0133 H   0  0  0  0  0  0  0  0  0  0  0  0
    5.9841   -3.3943    6.1406 H   0  0  0  0  0  0  0  0  0  0  0  0
    4.7534   -4.3960    5.3642 H   0  0  0  0  0  0  0  0  0  0  0  0
   -1.8365   -3.5316    1.5052 H   0  0  0  0  0  0  0  0  0  0  0  0
   -1.2268   -6.4845    1.0339 H   0  0  0  0  0  0  0  0  0  0  0  0
   -1.6611   -3.6749   -0.9164 H   0  0  0  0  0  0  0  0  0  0  0  0
   -4.8141   -5.0513   -3.4633 H   0  0  0  0  0  0  0  0  0  0  0  0
   -6.5224   -7.0385   -3.5091 H   0  0  0  0  0  0  0  0  0  0  0  0
   -7.9582   -8.9891   -2.9888 H   0  0  0  0  0  0  0  0  0  0  0  0
   -7.6409  -10.2357   -0.9024 H   0  0  0  0  0  0  0  0  0  0  0  0
   -5.9290   -9.6118    0.7070 H   0  0  0  0  0  0  0  0  0  0  0  0
   -3.0580   -6.9646    1.8874 H   0  0  0  0  0  0  0  0  0  0  0  0
   -4.7343   -7.6585    3.5603 H   0  0  0  0  0  0  0  0  0  0  0  0
   -5.8819   -8.0257    2.2709 H   0  0  0  0  0  0  0  0  0  0  0  0
   -6.2735   -5.7511    3.1806 H   0  0  0  0  0  0  0  0  0  0  0  0
   -5.7785   -5.6607    1.4918 H   0  0  0  0  0  0  0  0  0  0  0  0
   -4.6199   -5.2883    2.7695 H   0  0  0  0  0  0  0  0  0  0  0  0
   -2.9574   -9.2056    2.8156 H   0  0  0  0  0  0  0  0  0  0  0  0
   -4.0759   -9.8290    1.6091 H   0  0  0  0  0  0  0  0  0  0  0  0
   -1.2832   -8.7332    1.0411 H   0  0  0  0  0  0  0  0  0  0  0  0
   -2.4299   -9.2469   -0.1979 H   0  0  0  0  0  0  0  0  0  0  0  0
   -1.7937  -10.4160    0.9591 H   0  0  0  0  0  0  0  0  0  0  0  0
   -2.1529   -2.4024   -2.7354 H   0  0  0  0  0  0  0  0  0  0  0  0
   -4.3255   -3.3403   -4.6727 H   0  0  0  0  0  0  0  0  0  0  0  0
   -0.1115    2.8878   -5.7558 H   0  0  0  0  0  0  0  0  0  0  0  0
   -0.2092    1.5226   -4.6258 H   0  0  0  0  0  0  0  0  0  0  0  0
   -0.8032    3.6594   -3.4813 H   0  0  0  0  0  0  0  0  0  0  0  0
   -2.0977    3.9348   -4.6550 H   0  0  0  0  0  0  0  0  0  0  0  0
   -2.1987    2.5747   -3.5349 H   0  0  0  0  0  0  0  0  0  0  0  0
   -1.7188   -0.5088   -3.9096 H   0  0  0  0  0  0  0  0  0  0  0  0
   -1.3394    4.0566   -7.7628 H   0  0  0  0  0  0  0  0  0  0  0  0
   -1.3055    9.2253  -11.7566 H   0  0  0  0  0  0  0  0  0  0  0  0
   -1.0299    8.1498  -10.3719 H   0  0  0  0  0  0  0  0  0  0  0  0
    0.4972    6.7483  -11.7738 H   0  0  0  0  0  0  0  0  0  0  0  0
    0.2276    7.8242  -13.1466 H   0  0  0  0  0  0  0  0  0  0  0  0
    1.0604    8.4237  -11.7063 H   0  0  0  0  0  0  0  0  0  0  0  0
   -1.4402    5.7024   -9.4852 H   0  0  0  0  0  0  0  0  0  0  0  0
   -2.4059    9.3528  -14.1706 H   0  0  0  0  0  0  0  0  0  0  0  0
   -4.2143    8.5976  -15.8925 H   0  0  0  0  0  0  0  0  0  0  0  0
  1  2  1  0  0  0  0
  2  3  1  0  0  0  0
  3  4  1  0  0  0  0
  4  5  2  0  0  0  0
  5  6  1  0  0  0  0
  6  7  1  0  0  0  0
  7  8  1  0  0  0  0
  6  9  1  0  0  0  0
  9 10  1  0  0  0  0
  5 11  1  0  0  0  0
 11 12  2  0  0  0  0
 12 13  1  0  0  0  0
 12 14  1  0  0  0  0
 14 15  1  0  0  0  0
 15 16  1  0  0  0  0
 16 17  1  0  0  0  0
 17 18  2  0  0  0  0
 18 19  1  0  0  0  0
 19 20  1  0  0  0  0
 20 21  1  0  0  0  0
 19 22  1  0  0  0  0
 22 23  1  0  0  0  0
 18 24  1  0  0  0  0
 24 25  2  0  0  0  0
 25 26  1  0  0  0  0
 25 27  1  0  0  0  0
 27 28  2  0  0  0  0
 28 29  1  0  0  0  0
 29 30  2  0  0  0  0
 30 31  1  0  0  0  0
 31 32  2  0  0  0  0
 32 33  1  0  0  0  0
 33 34  1  0  0  0  0
 34 35  2  0  0  0  0
 35 36  1  0  0  0  0
 36 37  2  0  0  0  0
 37 38  1  0  0  0  0
 38 39  2  0  0  0  0
 33 40  1  0  0  0  0
 40 41  1  0  0  0  0
 41 42  1  0  0  0  0
 40 43  1  0  0  0  0
 43 44  1  0  0  0  0
 29 45  1  0  0  0  0
 45 46  2  0  0  0  0
 46 47  1  0  0  0  0
 47 48  2  0  0  0  0
 48 49  1  0  0  0  0
 49 50  2  0  0  0  0
 50 51  1  0  0  0  0
 51 52  2  0  0  0  0
 52 53  1  0  0  0  0
 53 54  1  0  0  0  0
 54 55  2  0  0  0  0
 55 56  1  0  0  0  0
 56 57  2  0  0  0  0
 57 58  1  0  0  0  0
 58 59  2  0  0  0  0
 53 60  1  0  0  0  0
 60 61  1  0  0  0  0
 61 62  1  0  0  0  0
 60 63  1  0  0  0  0
 63 64  1  0  0  0  0
 49 65  1  0  0  0  0
 65 66  2  0  0  0  0
 66 67  1  0  0  0  0
 67 68  1  0  0  0  0
 68 69  1  0  0  0  0
 69 70  1  0  0  0  0
 70 71  2  0  0  0  0
 71 72  1  0  0  0  0
 72 73  1  0  0  0  0
 73 74  1  0  0  0  0
 72 75  1  0  0  0  0
 75 76  1  0  0  0  0
 71 77  1  0  0  0  0
 77 78  2  0  0  0  0
 78 79  1  0  0  0  0
 78 80  1  0  0  0  0
 80 81  1  0  0  0  0
 81 82  1  0  0  0  0
 82 83  1  0  0  0  0
 83 84  2  0  0  0  0
 84 85  1  0  0  0  0
 85 86  1  0  0  0  0
 86 87  1  0  0  0  0
 85 88  1  0  0  0  0
 88 89  1  0  0  0  0
 84 90  1  0  0  0  0
 90 91  2  0  0  0  0
 91 92  1  0  0  0  0
 10  1  2  0  0  0  0
 23 14  2  0  0  0  0
 32 27  1  0  0  0  0
 39 34  1  0  0  0  0
 52 47  1  0  0  0  0
 59 54  1  0  0  0  0
 76 67  2  0  0  0  0
 89 80  2  0  0  0  0
  9  3  2  0  0  0  0
 22 16  2  0  0  0  0
 35 31  1  0  0  0  0
 55 51  1  0  0  0  0
 75 69  2  0  0  0  0
 88 82  2  0  0  0  0
 13  4  1  0  0  0  0
 26 17  1  0  0  0  0
 79 70  1  0  0  0  0
 92 83  1  0  0  0  0
  1 93  1  0  0  0  0
  7 94  1  0  0  0  0
  7 95  1  0  0  0  0
  8 96  1  0  0  0  0
  8 97  1  0  0  0  0
  8 98  1  0  0  0  0
 10 99  1  0  0  0  0
 11100  1  0  0  0  0
 20101  1  0  0  0  0
 20102  1  0  0  0  0
 21103  1  0  0  0  0
 21104  1  0  0  0  0
 21105  1  0  0  0  0
 23106  1  0  0  0  0
 24107  1  0  0  0  0
 28108  1  0  0  0  0
 30109  1  0  0  0  0
 36110  1  0  0  0  0
 37111  1  0  0  0  0
 38112  1  0  0  0  0
 39113  1  0  0  0  0
 40114  1  0  0  0  0
 41115  1  0  0  0  0
 41116  1  0  0  0  0
 42117  1  0  0  0  0
 42118  1  0  0  0  0
 42119  1  0  0  0  0
 43120  1  0  0  0  0
 43121  1  0  0  0  0
 44122  1  0  0  0  0
 44123  1  0  0  0  0
 44124  1  0  0  0  0
 45125  1  0  0  0  0
 46126  1  0  0  0  0
 48127  1  0  0  0  0
 50128  1  0  0  0  0
 56129  1  0  0  0  0
 57130  1  0  0  0  0
 58131  1  0  0  0  0
 59132  1  0  0  0  0
 60133  1  0  0  0  0
 61134  1  0  0  0  0
 61135  1  0  0  0  0
 62136  1  0  0  0  0
 62137  1  0  0  0  0
 62138  1  0  0  0  0
 63139  1  0  0  0  0
 63140  1  0  0  0  0
 64141  1  0  0  0  0
 64142  1  0  0  0  0
 64143  1  0  0  0  0
 65144  1  0  0  0  0
 66145  1  0  0  0  0
 73146  1  0  0  0  0
 73147  1  0  0  0  0
 74148  1  0  0  0  0
 74149  1  0  0  0  0
 74150  1  0  0  0  0
 76151  1  0  0  0  0
 77152  1  0  0  0  0
 86153  1  0  0  0  0
 86154  1  0  0  0  0
 87155  1  0  0  0  0
 87156  1  0  0  0  0
 87157  1  0  0  0  0
 89158  1  0  0  0  0
 90159  1  0  0  0  0
 91160  1  0  0  0  0
M  END
