
  xtb     02282215543D
 energy: -268.560307179856 gnorm: 0.000366743023 xtb: 6.4.1 (unknown)
188205  0     0  0            999 V2000
   -0.3496    1.4534    6.5301 C   0  0  0  0  0  0  0  0  0  0  0  0
   -0.2335    0.0953    6.7146 C   0  0  0  0  0  0  0  0  0  0  0  0
    0.8604   -0.6478    6.2409 C   0  0  0  0  0  0  0  0  0  0  0  0
    1.8948    0.0239    5.5958 C   0  0  0  0  0  0  0  0  0  0  0  0
    1.8020    1.3929    5.4068 C   0  0  0  0  0  0  0  0  0  0  0  0
    0.6680    2.1126    5.8524 C   0  0  0  0  0  0  0  0  0  0  0  0
    0.8028    3.4415    5.5212 N   0  0  0  0  0  0  0  0  0  0  0  0
    2.0177    3.6100    4.8935 C   0  0  0  0  0  0  0  0  0  0  0  0
    2.6735    2.3572    4.7994 C   0  0  0  0  0  0  0  0  0  0  0  0
    3.9294    2.2584    4.2170 C   0  0  0  0  0  0  0  0  0  0  0  0
    4.5268    3.4034    3.7308 C   0  0  0  0  0  0  0  0  0  0  0  0
    3.8788    4.6325    3.8181 C   0  0  0  0  0  0  0  0  0  0  0  0
    2.6273    4.7533    4.3914 C   0  0  0  0  0  0  0  0  0  0  0  0
   -0.1646    4.4634    5.8543 C   0  0  0  0  0  0  0  0  0  0  0  0
    0.3962    5.4310    6.9066 C   0  0  0  0  0  0  0  0  0  0  0  0
    0.6966    4.7208    8.2211 C   0  0  0  0  0  0  0  0  0  0  0  0
   -0.6877    5.1869    4.6010 C   0  0  0  0  0  0  0  0  0  0  0  0
   -2.1145    5.6875    4.7917 C   0  0  0  0  0  0  0  0  0  0  0  0
    0.8115   -2.0879    6.3969 C   0  0  0  0  0  0  0  0  0  0  0  0
    1.7578   -2.9783    6.0757 C   0  0  0  0  0  0  0  0  0  0  0  0
    1.5445   -4.4199    6.1803 C   0  0  0  0  0  0  0  0  0  0  0  0
    0.8721   -4.9377    7.2785 C   0  0  0  0  0  0  0  0  0  0  0  0
    0.6024   -6.3020    7.4478 C   0  0  0  0  0  0  0  0  0  0  0  0
    1.1540   -7.2122    6.5568 C   0  0  0  0  0  0  0  0  0  0  0  0
    1.8334   -6.7319    5.4474 C   0  0  0  0  0  0  0  0  0  0  0  0
    1.9639   -5.3424    5.2080 C   0  0  0  0  0  0  0  0  0  0  0  0
    2.5283   -5.1441    3.9665 N   0  0  0  0  0  0  0  0  0  0  0  0
    2.8346   -6.3768    3.4297 C   0  0  0  0  0  0  0  0  0  0  0  0
    2.4273   -7.3949    4.3235 C   0  0  0  0  0  0  0  0  0  0  0  0
    2.6360   -8.7321    4.0143 C   0  0  0  0  0  0  0  0  0  0  0  0
    3.2541   -9.0465    2.8216 C   0  0  0  0  0  0  0  0  0  0  0  0
    3.6570   -8.0423    1.9446 C   0  0  0  0  0  0  0  0  0  0  0  0
    3.4543   -6.7062    2.2303 C   0  0  0  0  0  0  0  0  0  0  0  0
    2.5498   -3.8869    3.2420 C   0  0  0  0  0  0  0  0  0  0  0  0
    1.8264   -4.0001    1.8847 C   0  0  0  0  0  0  0  0  0  0  0  0
    0.7967   -2.8907    1.6944 C   0  0  0  0  0  0  0  0  0  0  0  0
    3.9922   -3.3677    3.1307 C   0  0  0  0  0  0  0  0  0  0  0  0
    4.0720   -1.9548    2.5663 C   0  0  0  0  0  0  0  0  0  0  0  0
   -0.2594   -6.7566    8.5364 C   0  0  0  0  0  0  0  0  0  0  0  0
   -1.4104   -6.1753    8.9082 C   0  0  0  0  0  0  0  0  0  0  0  0
   -2.0408   -5.0447    8.2712 C   0  0  0  0  0  0  0  0  0  0  0  0
   -1.9396   -4.7829    6.5478 S   0  0  0  0  0  0  0  0  0  0  0  0
   -2.7360   -3.2641    6.7146 C   0  0  0  0  0  0  0  0  0  0  0  0
   -2.8488   -2.2170    5.7637 C   0  0  0  0  0  0  0  0  0  0  0  0
   -3.3632   -1.0020    6.1879 C   0  0  0  0  0  0  0  0  0  0  0  0
   -3.9774   -1.2273    8.0531 Ge  0  0  0  0  0  4  0  0  0  0  0  0
   -5.9764   -1.3618    8.1365 C   0  0  0  0  0  0  0  0  0  0  0  0
   -6.5123   -2.3967    7.1603 C   0  0  0  0  0  0  0  0  0  0  0  0
   -3.2246    0.0833    9.3820 C   0  0  0  0  0  0  0  0  0  0  0  0
   -3.7148    1.5018    9.1382 C   0  0  0  0  0  0  0  0  0  0  0  0
   -3.1288   -3.0069    8.0182 C   0  0  0  0  0  0  0  0  0  0  0  0
   -2.7516   -4.0392    8.8855 C   0  0  0  0  0  0  0  0  0  0  0  0
   -3.2111   -0.0046    5.2214 C   0  0  0  0  0  0  0  0  0  0  0  0
   -2.5840   -0.4442    4.0757 C   0  0  0  0  0  0  0  0  0  0  0  0
   -2.2035   -2.1446    4.1696 S   0  0  0  0  0  0  0  0  0  0  0  0
   -2.1839    0.3154    2.9379 C   0  0  0  0  0  0  0  0  0  0  0  0
   -2.0227   -0.4412    1.3741 S   0  0  0  0  0  0  0  0  0  0  0  0
   -1.5209    1.0548    0.6816 C   0  0  0  0  0  0  0  0  0  0  0  0
   -1.2099    1.3602   -0.6668 C   0  0  0  0  0  0  0  0  0  0  0  0
   -0.8368    2.6633   -0.9626 C   0  0  0  0  0  0  0  0  0  0  0  0
   -0.7420    3.6816    0.7182 Ge  0  0  0  0  0  4  0  0  0  0  0  0
   -1.8774    5.3437    0.7283 C   0  0  0  0  0  0  0  0  0  0  0  0
   -1.7088    6.1455   -0.5528 C   0  0  0  0  0  0  0  0  0  0  0  0
    1.1922    3.9724    1.1654 C   0  0  0  0  0  0  0  0  0  0  0  0
    1.9519    2.6563    1.1973 C   0  0  0  0  0  0  0  0  0  0  0  0
   -1.4613    2.0788    1.6174 C   0  0  0  0  0  0  0  0  0  0  0  0
   -1.8459    1.6511    2.8893 C   0  0  0  0  0  0  0  0  0  0  0  0
   -0.5921    2.8457   -2.3218 C   0  0  0  0  0  0  0  0  0  0  0  0
   -0.7857    1.7027   -3.0748 C   0  0  0  0  0  0  0  0  0  0  0  0
   -1.2666    0.3576   -2.0689 S   0  0  0  0  0  0  0  0  0  0  0  0
   -0.6568    1.5604   -4.4826 C   0  0  0  0  0  0  0  0  0  0  0  0
   -0.9477    0.0274   -5.2672 S   0  0  0  0  0  0  0  0  0  0  0  0
   -0.6227    0.7294   -6.8082 C   0  0  0  0  0  0  0  0  0  0  0  0
   -0.6400    0.1400   -8.0963 C   0  0  0  0  0  0  0  0  0  0  0  0
   -0.3451    0.9493   -9.1856 C   0  0  0  0  0  0  0  0  0  0  0  0
    0.0542    2.7626   -8.5280 Ge  0  0  0  0  0  4  0  0  0  0  0  0
    1.9813    3.2661   -8.7693 C   0  0  0  0  0  0  0  0  0  0  0  0
    2.9137    2.1540   -8.3152 C   0  0  0  0  0  0  0  0  0  0  0  0
   -1.2466    4.1684   -9.1343 C   0  0  0  0  0  0  0  0  0  0  0  0
   -1.1713    5.4329   -8.2932 C   0  0  0  0  0  0  0  0  0  0  0  0
   -0.3061    2.0784   -6.7175 C   0  0  0  0  0  0  0  0  0  0  0  0
   -0.3251    2.5375   -5.4026 C   0  0  0  0  0  0  0  0  0  0  0  0
   -0.3989    0.2529  -10.3913 C   0  0  0  0  0  0  0  0  0  0  0  0
   -0.7305   -1.0801  -10.2419 C   0  0  0  0  0  0  0  0  0  0  0  0
   -0.9835   -1.4840   -8.5618 S   0  0  0  0  0  0  0  0  0  0  0  0
   -0.8702   -2.0636  -11.2597 C   0  0  0  0  0  0  0  0  0  0  0  0
   -1.2246   -3.7257  -10.8587 S   0  0  0  0  0  0  0  0  0  0  0  0
   -1.2127   -4.1531  -12.5276 C   0  0  0  0  0  0  0  0  0  0  0  0
   -1.4281   -5.4154  -13.1455 C   0  0  0  0  0  0  0  0  0  0  0  0
   -1.3620   -5.4821  -14.5252 C   0  0  0  0  0  0  0  0  0  0  0  0
   -0.9889   -3.6792  -15.2229 Ge  0  0  0  0  0  4  0  0  0  0  0  0
    0.7735   -3.5002  -16.1695 C   0  0  0  0  0  0  0  0  0  0  0  0
    1.1844   -2.0490  -16.3625 C   0  0  0  0  0  0  0  0  0  0  0  0
   -2.5377   -2.9012  -16.2335 C   0  0  0  0  0  0  0  0  0  0  0  0
   -3.8477   -3.0723  -15.4811 C   0  0  0  0  0  0  0  0  0  0  0  0
   -0.9491   -3.0689  -13.3497 C   0  0  0  0  0  0  0  0  0  0  0  0
   -0.7579   -1.8921  -12.6255 C   0  0  0  0  0  0  0  0  0  0  0  0
   -1.5952   -6.7852  -14.9978 C   0  0  0  0  0  0  0  0  0  0  0  0
   -1.8292   -7.6743  -13.9943 C   0  0  0  0  0  0  0  0  0  0  0  0
   -1.7727   -6.9478  -12.4321 S   0  0  0  0  0  0  0  0  0  0  0  0
   -1.2162    1.9714    6.9130 H   0  0  0  0  0  0  0  0  0  0  0  0
   -1.0174   -0.4306    7.2418 H   0  0  0  0  0  0  0  0  0  0  0  0
    2.7622   -0.5082    5.2375 H   0  0  0  0  0  0  0  0  0  0  0  0
    4.4264    1.3023    4.1502 H   0  0  0  0  0  0  0  0  0  0  0  0
    5.5060    3.3514    3.2780 H   0  0  0  0  0  0  0  0  0  0  0  0
    4.3654    5.5150    3.4285 H   0  0  0  0  0  0  0  0  0  0  0  0
    2.1546    5.7217    4.4426 H   0  0  0  0  0  0  0  0  0  0  0  0
   -1.0126    3.9375    6.3053 H   0  0  0  0  0  0  0  0  0  0  0  0
    1.3100    5.8921    6.5308 H   0  0  0  0  0  0  0  0  0  0  0  0
   -0.3355    6.2225    7.0775 H   0  0  0  0  0  0  0  0  0  0  0  0
    1.4242    3.9265    8.0700 H   0  0  0  0  0  0  0  0  0  0  0  0
   -0.2080    4.2816    8.6369 H   0  0  0  0  0  0  0  0  0  0  0  0
    1.1017    5.4223    8.9463 H   0  0  0  0  0  0  0  0  0  0  0  0
   -0.0415    6.0306    4.3552 H   0  0  0  0  0  0  0  0  0  0  0  0
   -0.6642    4.4900    3.7572 H   0  0  0  0  0  0  0  0  0  0  0  0
   -2.7921    4.8564    4.9746 H   0  0  0  0  0  0  0  0  0  0  0  0
   -2.4551    6.2103    3.9014 H   0  0  0  0  0  0  0  0  0  0  0  0
   -2.1780    6.3734    5.6334 H   0  0  0  0  0  0  0  0  0  0  0  0
   -0.1373   -2.4628    6.7584 H   0  0  0  0  0  0  0  0  0  0  0  0
    2.7306   -2.6524    5.7343 H   0  0  0  0  0  0  0  0  0  0  0  0
    0.5514   -4.2531    8.0507 H   0  0  0  0  0  0  0  0  0  0  0  0
    1.0111   -8.2736    6.6940 H   0  0  0  0  0  0  0  0  0  0  0  0
    2.3246   -9.5061    4.6997 H   0  0  0  0  0  0  0  0  0  0  0  0
    3.4319  -10.0795    2.5616 H   0  0  0  0  0  0  0  0  0  0  0  0
    4.1412   -8.3144    1.0179 H   0  0  0  0  0  0  0  0  0  0  0  0
    3.7767   -5.9510    1.5319 H   0  0  0  0  0  0  0  0  0  0  0  0
    1.9751   -3.1818    3.8500 H   0  0  0  0  0  0  0  0  0  0  0  0
    2.5474   -3.9692    1.0662 H   0  0  0  0  0  0  0  0  0  0  0  0
    1.3126   -4.9618    1.8340 H   0  0  0  0  0  0  0  0  0  0  0  0
    0.3096   -2.9895    0.7271 H   0  0  0  0  0  0  0  0  0  0  0  0
    0.0317   -2.9449    2.4659 H   0  0  0  0  0  0  0  0  0  0  0  0
    1.2614   -1.9089    1.7429 H   0  0  0  0  0  0  0  0  0  0  0  0
    4.4368   -3.3842    4.1301 H   0  0  0  0  0  0  0  0  0  0  0  0
    4.5794   -4.0444    2.5078 H   0  0  0  0  0  0  0  0  0  0  0  0
    5.0996   -1.5983    2.5943 H   0  0  0  0  0  0  0  0  0  0  0  0
    3.4536   -1.2719    3.1452 H   0  0  0  0  0  0  0  0  0  0  0  0
    3.7328   -1.9258    1.5344 H   0  0  0  0  0  0  0  0  0  0  0  0
    0.0630   -7.6470    9.0614 H   0  0  0  0  0  0  0  0  0  0  0  0
   -1.9345   -6.5562    9.7772 H   0  0  0  0  0  0  0  0  0  0  0  0
   -6.2660   -1.6189    9.1553 H   0  0  0  0  0  0  0  0  0  0  0  0
   -6.4016   -0.3829    7.9150 H   0  0  0  0  0  0  0  0  0  0  0  0
   -6.2297   -2.1418    6.1404 H   0  0  0  0  0  0  0  0  0  0  0  0
   -7.5983   -2.4520    7.2127 H   0  0  0  0  0  0  0  0  0  0  0  0
   -6.1062   -3.3809    7.3858 H   0  0  0  0  0  0  0  0  0  0  0  0
   -2.1368    0.0496    9.3331 H   0  0  0  0  0  0  0  0  0  0  0  0
   -3.5144   -0.2451   10.3800 H   0  0  0  0  0  0  0  0  0  0  0  0
   -4.7959    1.5596    9.2458 H   0  0  0  0  0  0  0  0  0  0  0  0
   -3.2632    2.1925    9.8490 H   0  0  0  0  0  0  0  0  0  0  0  0
   -3.4580    1.8252    8.1318 H   0  0  0  0  0  0  0  0  0  0  0  0
   -2.9336   -4.0252    9.9470 H   0  0  0  0  0  0  0  0  0  0  0  0
   -3.5438    1.0116    5.3428 H   0  0  0  0  0  0  0  0  0  0  0  0
   -2.9188    5.0493    0.8517 H   0  0  0  0  0  0  0  0  0  0  0  0
   -1.6011    5.9518    1.5884 H   0  0  0  0  0  0  0  0  0  0  0  0
   -2.0052    5.5508   -1.4138 H   0  0  0  0  0  0  0  0  0  0  0  0
   -0.6709    6.4447   -0.6846 H   0  0  0  0  0  0  0  0  0  0  0  0
   -2.3233    7.0441   -0.5273 H   0  0  0  0  0  0  0  0  0  0  0  0
    1.2857    4.4776    2.1249 H   0  0  0  0  0  0  0  0  0  0  0  0
    1.6171    4.6310    0.4080 H   0  0  0  0  0  0  0  0  0  0  0  0
    3.0057    2.8276    1.4066 H   0  0  0  0  0  0  0  0  0  0  0  0
    1.8655    2.1398    0.2428 H   0  0  0  0  0  0  0  0  0  0  0  0
    1.5544    2.0053    1.9737 H   0  0  0  0  0  0  0  0  0  0  0  0
   -1.8600    2.2796    3.7621 H   0  0  0  0  0  0  0  0  0  0  0  0
   -0.2869    3.7825   -2.7539 H   0  0  0  0  0  0  0  0  0  0  0  0
    2.1762    4.1752   -8.2007 H   0  0  0  0  0  0  0  0  0  0  0  0
    2.1517    3.4973   -9.8206 H   0  0  0  0  0  0  0  0  0  0  0  0
    2.7532    1.9282   -7.2626 H   0  0  0  0  0  0  0  0  0  0  0  0
    3.9545    2.4432   -8.4507 H   0  0  0  0  0  0  0  0  0  0  0  0
    2.7312    1.2458   -8.8864 H   0  0  0  0  0  0  0  0  0  0  0  0
   -1.0457    4.3992  -10.1802 H   0  0  0  0  0  0  0  0  0  0  0  0
   -2.2482    3.7426   -9.0807 H   0  0  0  0  0  0  0  0  0  0  0  0
   -1.9001    6.1658   -8.6357 H   0  0  0  0  0  0  0  0  0  0  0  0
   -0.1815    5.8803   -8.3574 H   0  0  0  0  0  0  0  0  0  0  0  0
   -1.3772    5.2067   -7.2492 H   0  0  0  0  0  0  0  0  0  0  0  0
   -0.1055    3.5524   -5.1211 H   0  0  0  0  0  0  0  0  0  0  0  0
   -0.2001    0.7012  -11.3486 H   0  0  0  0  0  0  0  0  0  0  0  0
    1.5248   -4.0274  -15.5822 H   0  0  0  0  0  0  0  0  0  0  0  0
    0.7016   -4.0028  -17.1338 H   0  0  0  0  0  0  0  0  0  0  0  0
    2.1507   -1.9865  -16.8604 H   0  0  0  0  0  0  0  0  0  0  0  0
    1.2607   -1.5450  -15.4015 H   0  0  0  0  0  0  0  0  0  0  0  0
    0.4531   -1.5190  -16.9695 H   0  0  0  0  0  0  0  0  0  0  0  0
   -2.5950   -3.3866  -17.2077 H   0  0  0  0  0  0  0  0  0  0  0  0
   -2.3409   -1.8437  -16.4086 H   0  0  0  0  0  0  0  0  0  0  0  0
   -4.0578   -4.1272  -15.3154 H   0  0  0  0  0  0  0  0  0  0  0  0
   -4.6747   -2.6403  -16.0423 H   0  0  0  0  0  0  0  0  0  0  0  0
   -3.7967   -2.5821  -14.5107 H   0  0  0  0  0  0  0  0  0  0  0  0
   -0.5489   -0.9387  -13.0780 H   0  0  0  0  0  0  0  0  0  0  0  0
   -1.5900   -7.0549  -16.0398 H   0  0  0  0  0  0  0  0  0  0  0  0
   -2.0335   -8.7245  -14.0689 H   0  0  0  0  0  0  0  0  0  0  0  0
  1  2  2  0  0  0  0
  2  3  1  0  0  0  0
  3  4  2  0  0  0  0
  4  5  1  0  0  0  0
  5  6  2  0  0  0  0
  6  7  1  0  0  0  0
  7  8  1  0  0  0  0
  8  9  2  0  0  0  0
  9 10  1  0  0  0  0
 10 11  2  0  0  0  0
 11 12  1  0  0  0  0
 12 13  2  0  0  0  0
  7 14  1  0  0  0  0
 14 15  1  0  0  0  0
 15 16  1  0  0  0  0
 14 17  1  0  0  0  0
 17 18  1  0  0  0  0
  3 19  1  0  0  0  0
 19 20  2  0  0  0  0
 20 21  1  0  0  0  0
 21 22  2  0  0  0  0
 22 23  1  0  0  0  0
 23 24  2  0  0  0  0
 24 25  1  0  0  0  0
 25 26  2  0  0  0  0
 26 27  1  0  0  0  0
 27 28  1  0  0  0  0
 28 29  2  0  0  0  0
 29 30  1  0  0  0  0
 30 31  2  0  0  0  0
 31 32  1  0  0  0  0
 32 33  2  0  0  0  0
 27 34  1  0  0  0  0
 34 35  1  0  0  0  0
 35 36  1  0  0  0  0
 34 37  1  0  0  0  0
 37 38  1  0  0  0  0
 23 39  1  0  0  0  0
 39 40  2  0  0  0  0
 40 41  1  0  0  0  0
 41 42  1  0  0  0  0
 42 43  1  0  0  0  0
 43 44  1  0  0  0  0
 44 45  2  0  0  0  0
 45 46  1  0  0  0  0
 46 47  1  0  0  0  0
 47 48  1  0  0  0  0
 46 49  1  0  0  0  0
 49 50  1  0  0  0  0
 46 51  1  0  0  0  0
 51 52  1  0  0  0  0
 45 53  1  0  0  0  0
 53 54  2  0  0  0  0
 54 55  1  0  0  0  0
 54 56  1  0  0  0  0
 56 57  1  0  0  0  0
 57 58  1  0  0  0  0
 58 59  1  0  0  0  0
 59 60  2  0  0  0  0
 60 61  1  0  0  0  0
 61 62  1  0  0  0  0
 62 63  1  0  0  0  0
 61 64  1  0  0  0  0
 64 65  1  0  0  0  0
 61 66  1  0  0  0  0
 66 67  1  0  0  0  0
 60 68  1  0  0  0  0
 68 69  2  0  0  0  0
 69 70  1  0  0  0  0
 69 71  1  0  0  0  0
 71 72  1  0  0  0  0
 72 73  1  0  0  0  0
 73 74  1  0  0  0  0
 74 75  2  0  0  0  0
 75 76  1  0  0  0  0
 76 77  1  0  0  0  0
 77 78  1  0  0  0  0
 76 79  1  0  0  0  0
 79 80  1  0  0  0  0
 76 81  1  0  0  0  0
 81 82  1  0  0  0  0
 75 83  1  0  0  0  0
 83 84  2  0  0  0  0
 84 85  1  0  0  0  0
 84 86  1  0  0  0  0
 86 87  1  0  0  0  0
 87 88  1  0  0  0  0
 88 89  1  0  0  0  0
 89 90  2  0  0  0  0
 90 91  1  0  0  0  0
 91 92  1  0  0  0  0
 92 93  1  0  0  0  0
 91 94  1  0  0  0  0
 94 95  1  0  0  0  0
 91 96  1  0  0  0  0
 96 97  1  0  0  0  0
 90 98  1  0  0  0  0
 98 99  2  0  0  0  0
 99100  1  0  0  0  0
  6  1  1  0  0  0  0
 13  8  1  0  0  0  0
 26 21  1  0  0  0  0
 33 28  1  0  0  0  0
 52 41  2  0  0  0  0
 67 56  2  0  0  0  0
 82 71  2  0  0  0  0
 97 86  2  0  0  0  0
  9  5  1  0  0  0  0
 29 25  1  0  0  0  0
 51 43  2  0  0  0  0
 66 58  2  0  0  0  0
 81 73  2  0  0  0  0
 96 88  2  0  0  0  0
 55 44  1  0  0  0  0
 70 59  1  0  0  0  0
 85 74  1  0  0  0  0
100 89  1  0  0  0  0
  1101  1  0  0  0  0
  2102  1  0  0  0  0
  4103  1  0  0  0  0
 10104  1  0  0  0  0
 11105  1  0  0  0  0
 12106  1  0  0  0  0
 13107  1  0  0  0  0
 14108  1  0  0  0  0
 15109  1  0  0  0  0
 15110  1  0  0  0  0
 16111  1  0  0  0  0
 16112  1  0  0  0  0
 16113  1  0  0  0  0
 17114  1  0  0  0  0
 17115  1  0  0  0  0
 18116  1  0  0  0  0
 18117  1  0  0  0  0
 18118  1  0  0  0  0
 19119  1  0  0  0  0
 20120  1  0  0  0  0
 22121  1  0  0  0  0
 24122  1  0  0  0  0
 30123  1  0  0  0  0
 31124  1  0  0  0  0
 32125  1  0  0  0  0
 33126  1  0  0  0  0
 34127  1  0  0  0  0
 35128  1  0  0  0  0
 35129  1  0  0  0  0
 36130  1  0  0  0  0
 36131  1  0  0  0  0
 36132  1  0  0  0  0
 37133  1  0  0  0  0
 37134  1  0  0  0  0
 38135  1  0  0  0  0
 38136  1  0  0  0  0
 38137  1  0  0  0  0
 39138  1  0  0  0  0
 40139  1  0  0  0  0
 47140  1  0  0  0  0
 47141  1  0  0  0  0
 48142  1  0  0  0  0
 48143  1  0  0  0  0
 48144  1  0  0  0  0
 49145  1  0  0  0  0
 49146  1  0  0  0  0
 50147  1  0  0  0  0
 50148  1  0  0  0  0
 50149  1  0  0  0  0
 52150  1  0  0  0  0
 53151  1  0  0  0  0
 62152  1  0  0  0  0
 62153  1  0  0  0  0
 63154  1  0  0  0  0
 63155  1  0  0  0  0
 63156  1  0  0  0  0
 64157  1  0  0  0  0
 64158  1  0  0  0  0
 65159  1  0  0  0  0
 65160  1  0  0  0  0
 65161  1  0  0  0  0
 67162  1  0  0  0  0
 68163  1  0  0  0  0
 77164  1  0  0  0  0
 77165  1  0  0  0  0
 78166  1  0  0  0  0
 78167  1  0  0  0  0
 78168  1  0  0  0  0
 79169  1  0  0  0  0
 79170  1  0  0  0  0
 80171  1  0  0  0  0
 80172  1  0  0  0  0
 80173  1  0  0  0  0
 82174  1  0  0  0  0
 83175  1  0  0  0  0
 92176  1  0  0  0  0
 92177  1  0  0  0  0
 93178  1  0  0  0  0
 93179  1  0  0  0  0
 93180  1  0  0  0  0
 94181  1  0  0  0  0
 94182  1  0  0  0  0
 95183  1  0  0  0  0
 95184  1  0  0  0  0
 95185  1  0  0  0  0
 97186  1  0  0  0  0
 98187  1  0  0  0  0
 99188  1  0  0  0  0
M  END
