
  xtb     02282219483D
 energy: -445.705260571628 gnorm: 0.000558295959 xtb: 6.4.1 (unknown)
248273  0     0  0            999 V2000
   -1.3404   -6.2829   13.2555 C   0  0  0  0  0  0  0  0  0  0  0  0
   -0.4551   -5.6533   12.4566 C   0  0  0  0  0  0  0  0  0  0  0  0
   -1.0675   -5.0589   11.3151 C   0  0  0  0  0  0  0  0  0  0  0  0
   -0.4616   -4.3345   10.2779 C   0  0  0  0  0  0  0  0  0  0  0  0
    0.9781   -4.1410   10.1904 C   0  0  0  0  0  0  0  0  0  0  0  0
    2.0618   -5.5031   10.2076 S   0  0  0  0  0  0  0  0  0  0  0  0
    3.4501   -4.5076    9.9319 C   0  0  0  0  0  0  0  0  0  0  0  0
    4.8104   -5.0944    9.7817 C   0  0  0  0  0  0  0  0  0  0  0  0
    5.1372   -5.3629    8.3105 C   0  0  0  0  0  0  0  0  0  0  0  0
    3.0798   -3.2000    9.8330 C   0  0  0  0  0  0  0  0  0  0  0  0
    4.1829   -1.9147    9.5518 Cl  0  0  0  0  0  0  0  0  0  0  0  0
    1.6829   -2.9868    9.9844 C   0  0  0  0  0  0  0  0  0  0  0  0
    1.0003   -1.4137    9.9936 Cl  0  0  0  0  0  0  0  0  0  0  0  0
   -1.2996   -3.8463    9.2831 C   0  0  0  0  0  0  0  0  0  0  0  0
   -2.6994   -4.0632    9.2612 C   0  0  0  0  0  0  0  0  0  0  0  0
   -3.2992   -4.8052   10.2907 C   0  0  0  0  0  0  0  0  0  0  0  0
   -4.7226   -5.0997   10.2740 C   0  0  0  0  0  0  0  0  0  0  0  0
   -5.7461   -4.7294   11.6288 S   0  0  0  0  0  0  0  0  0  0  0  0
   -7.1513   -5.3564   10.8377 C   0  0  0  0  0  0  0  0  0  0  0  0
   -8.4921   -5.2922   11.4814 C   0  0  0  0  0  0  0  0  0  0  0  0
   -9.1552   -3.9355   11.2312 C   0  0  0  0  0  0  0  0  0  0  0  0
   -6.8305   -5.8185    9.5960 C   0  0  0  0  0  0  0  0  0  0  0  0
   -5.4543   -5.6779    9.2736 C   0  0  0  0  0  0  0  0  0  0  0  0
   -4.7867   -6.2587    7.8025 Cl  0  0  0  0  0  0  0  0  0  0  0  0
   -7.9626   -6.5187    8.5128 Cl  0  0  0  0  0  0  0  0  0  0  0  0
   -2.4675   -5.2640   11.3066 C   0  0  0  0  0  0  0  0  0  0  0  0
   -2.9715   -6.2004   12.6856 S   0  0  0  0  0  0  0  0  0  0  0  0
   -3.3119   -3.4616    8.1286 C   0  0  0  0  0  0  0  0  0  0  0  0
   -2.4266   -2.8353    7.3081 C   0  0  0  0  0  0  0  0  0  0  0  0
   -0.7784   -2.9528    7.8923 S   0  0  0  0  0  0  0  0  0  0  0  0
   -2.6171   -2.1421    6.0744 C   0  0  0  0  0  0  0  0  0  0  0  0
   -1.7155   -1.2831    5.5246 C   0  0  0  0  0  0  0  0  0  0  0  0
   -2.0683   -0.8409    4.2302 C   0  0  0  0  0  0  0  0  0  0  0  0
   -1.2917   -0.0574    3.3617 C   0  0  0  0  0  0  0  0  0  0  0  0
   -0.1057    0.6421    3.8125 C   0  0  0  0  0  0  0  0  0  0  0  0
    1.3576    0.6664    2.8690 S   0  0  0  0  0  0  0  0  0  0  0  0
    2.1724    1.6805    4.0077 C   0  0  0  0  0  0  0  0  0  0  0  0
    3.5702    2.1313    3.7667 C   0  0  0  0  0  0  0  0  0  0  0  0
    4.5601    0.9677    3.7673 C   0  0  0  0  0  0  0  0  0  0  0  0
    1.3505    1.9702    5.0563 C   0  0  0  0  0  0  0  0  0  0  0  0
    1.7996    2.9550    6.3890 Cl  0  0  0  0  0  0  0  0  0  0  0  0
    0.0588    1.3897    4.9490 C   0  0  0  0  0  0  0  0  0  0  0  0
   -1.1803    1.7150    6.0902 Cl  0  0  0  0  0  0  0  0  0  0  0  0
   -1.7055   -0.0277    2.0366 C   0  0  0  0  0  0  0  0  0  0  0  0
   -2.8942   -0.6334    1.5686 C   0  0  0  0  0  0  0  0  0  0  0  0
   -3.7343   -1.3053    2.4736 C   0  0  0  0  0  0  0  0  0  0  0  0
   -4.9680   -1.9449    2.0510 C   0  0  0  0  0  0  0  0  0  0  0  0
   -5.0044   -3.0613    0.7167 S   0  0  0  0  0  0  0  0  0  0  0  0
   -6.6885   -3.3948    0.9337 C   0  0  0  0  0  0  0  0  0  0  0  0
   -7.4153   -4.3126    0.0143 C   0  0  0  0  0  0  0  0  0  0  0  0
   -7.7965   -3.5998   -1.2853 C   0  0  0  0  0  0  0  0  0  0  0  0
   -7.1822   -2.6666    1.9739 C   0  0  0  0  0  0  0  0  0  0  0  0
   -6.2095   -1.8518    2.6147 C   0  0  0  0  0  0  0  0  0  0  0  0
   -6.5972   -0.8033    3.9130 Cl  0  0  0  0  0  0  0  0  0  0  0  0
   -8.8189   -2.7183    2.4871 Cl  0  0  0  0  0  0  0  0  0  0  0  0
   -3.2821   -1.4181    3.7856 C   0  0  0  0  0  0  0  0  0  0  0  0
   -3.9965   -2.4118    5.0309 S   0  0  0  0  0  0  0  0  0  0  0  0
   -3.0168   -0.5103    0.1524 C   0  0  0  0  0  0  0  0  0  0  0  0
   -1.9480    0.0872   -0.4299 C   0  0  0  0  0  0  0  0  0  0  0  0
   -0.7970    0.6804    0.7451 S   0  0  0  0  0  0  0  0  0  0  0  0
   -1.5674    0.2744   -1.8363 C   0  0  0  0  0  0  0  0  0  0  0  0
   -1.9616    1.4407   -2.4717 C   0  0  0  0  0  0  0  0  0  0  0  0
   -1.5374    1.7927   -3.7588 C   0  0  0  0  0  0  0  0  0  0  0  0
   -0.6245    0.9731   -4.4065 C   0  0  0  0  0  0  0  0  0  0  0  0
   -0.1981   -0.1865   -3.7861 C   0  0  0  0  0  0  0  0  0  0  0  0
   -0.6866   -0.5834   -2.5175 C   0  0  0  0  0  0  0  0  0  0  0  0
   -0.1312   -1.8023   -2.1768 N   0  0  0  0  0  0  0  0  0  0  0  0
    0.7217   -2.1871   -3.1940 C   0  0  0  0  0  0  0  0  0  0  0  0
    0.7286   -1.1937   -4.2015 C   0  0  0  0  0  0  0  0  0  0  0  0
    1.5288   -1.3092   -5.3304 C   0  0  0  0  0  0  0  0  0  0  0  0
    2.3124   -2.4345   -5.4707 C   0  0  0  0  0  0  0  0  0  0  0  0
    2.2760   -3.4354   -4.5040 C   0  0  0  0  0  0  0  0  0  0  0  0
    1.5001   -3.3274   -3.3669 C   0  0  0  0  0  0  0  0  0  0  0  0
   -0.5791   -2.6020   -1.0495 C   0  0  0  0  0  0  0  0  0  0  0  0
    0.4397   -2.6755    0.1053 C   0  0  0  0  0  0  0  0  0  0  0  0
    1.5880   -3.6639   -0.0401 C   0  0  0  0  0  0  0  0  0  0  0  0
   -1.1385   -3.9630   -1.4856 C   0  0  0  0  0  0  0  0  0  0  0  0
   -2.3847   -3.7929   -2.3472 C   0  0  0  0  0  0  0  0  0  0  0  0
   -1.9495    3.0563   -4.3433 C   0  0  0  0  0  0  0  0  0  0  0  0
   -2.1165    3.2686   -5.6570 C   0  0  0  0  0  0  0  0  0  0  0  0
   -2.3503    4.5630   -6.2757 C   0  0  0  0  0  0  0  0  0  0  0  0
   -2.5521    5.6797   -5.4736 C   0  0  0  0  0  0  0  0  0  0  0  0
   -2.6641    6.9856   -5.9568 C   0  0  0  0  0  0  0  0  0  0  0  0
   -2.8691    7.1757   -7.3183 C   0  0  0  0  0  0  0  0  0  0  0  0
   -2.7462    6.0774   -8.1535 C   0  0  0  0  0  0  0  0  0  0  0  0
   -2.3390    4.8098   -7.6624 C   0  0  0  0  0  0  0  0  0  0  0  0
   -2.0510    3.9762   -8.7271 N   0  0  0  0  0  0  0  0  0  0  0  0
   -2.3859    4.6477   -9.8923 C   0  0  0  0  0  0  0  0  0  0  0  0
   -2.8257    5.9540   -9.5815 C   0  0  0  0  0  0  0  0  0  0  0  0
   -3.2284    6.8244  -10.5841 C   0  0  0  0  0  0  0  0  0  0  0  0
   -3.2019    6.3829  -11.8917 C   0  0  0  0  0  0  0  0  0  0  0  0
   -2.7869    5.0895  -12.1948 C   0  0  0  0  0  0  0  0  0  0  0  0
   -2.3775    4.2104  -11.2096 C   0  0  0  0  0  0  0  0  0  0  0  0
   -1.0238    2.9472   -8.6757 C   0  0  0  0  0  0  0  0  0  0  0  0
   -1.5602    1.5802   -9.1280 C   0  0  0  0  0  0  0  0  0  0  0  0
   -0.7547    0.4185   -8.5575 C   0  0  0  0  0  0  0  0  0  0  0  0
    0.2232    3.3927   -9.4550 C   0  0  0  0  0  0  0  0  0  0  0  0
    0.7506    4.7341   -8.9567 C   0  0  0  0  0  0  0  0  0  0  0  0
   -2.4727    8.0950   -5.0356 C   0  0  0  0  0  0  0  0  0  0  0  0
   -1.6214    8.0436   -4.0010 C   0  0  0  0  0  0  0  0  0  0  0  0
   -0.7708    6.9092   -3.6727 C   0  0  0  0  0  0  0  0  0  0  0  0
   -0.7015    6.2578   -2.4830 C   0  0  0  0  0  0  0  0  0  0  0  0
    0.1406    5.1131   -2.4992 C   0  0  0  0  0  0  0  0  0  0  0  0
    0.3592    4.1881   -1.4708 C   0  0  0  0  0  0  0  0  0  0  0  0
   -0.3346    4.2649   -0.1933 C   0  0  0  0  0  0  0  0  0  0  0  0
   -2.0727    4.2254   -0.1239 S   0  0  0  0  0  0  0  0  0  0  0  0
   -2.0893    4.2420    1.6056 C   0  0  0  0  0  0  0  0  0  0  0  0
   -3.3637    4.1796    2.3732 C   0  0  0  0  0  0  0  0  0  0  0  0
   -3.7261    2.7352    2.7263 C   0  0  0  0  0  0  0  0  0  0  0  0
   -0.8153    4.2739    2.0868 C   0  0  0  0  0  0  0  0  0  0  0  0
   -0.4285    4.3365    3.7569 Cl  0  0  0  0  0  0  0  0  0  0  0  0
    0.1791    4.2808    1.0716 C   0  0  0  0  0  0  0  0  0  0  0  0
    1.8498    4.3829    1.4266 Cl  0  0  0  0  0  0  0  0  0  0  0  0
    1.2191    3.1324   -1.7443 C   0  0  0  0  0  0  0  0  0  0  0  0
    1.8143    2.9172   -3.0099 C   0  0  0  0  0  0  0  0  0  0  0  0
    1.6061    3.8589   -4.0373 C   0  0  0  0  0  0  0  0  0  0  0  0
    2.2678    3.7018   -5.3230 C   0  0  0  0  0  0  0  0  0  0  0  0
    2.1545    2.2258   -6.2337 S   0  0  0  0  0  0  0  0  0  0  0  0
    3.2588    2.7805   -7.4444 C   0  0  0  0  0  0  0  0  0  0  0  0
    3.7202    1.8785   -8.5351 C   0  0  0  0  0  0  0  0  0  0  0  0
    4.8390    0.9628   -8.0324 C   0  0  0  0  0  0  0  0  0  0  0  0
    3.6658    4.0483   -7.1582 C   0  0  0  0  0  0  0  0  0  0  0  0
    3.1026    4.5753   -5.9631 C   0  0  0  0  0  0  0  0  0  0  0  0
    3.5242    6.1226   -5.3592 Cl  0  0  0  0  0  0  0  0  0  0  0  0
    4.7605    4.9441   -8.1296 Cl  0  0  0  0  0  0  0  0  0  0  0  0
    0.7817    4.9418   -3.7525 C   0  0  0  0  0  0  0  0  0  0  0  0
    0.3094    6.1966   -4.8636 S   0  0  0  0  0  0  0  0  0  0  0  0
    2.5927    1.7297   -3.0252 C   0  0  0  0  0  0  0  0  0  0  0  0
    2.6050    1.0747   -1.8280 C   0  0  0  0  0  0  0  0  0  0  0  0
    1.6654    1.9010   -0.6137 S   0  0  0  0  0  0  0  0  0  0  0  0
    3.3107   -0.1074   -1.4439 C   0  0  0  0  0  0  0  0  0  0  0  0
    3.9215   -1.0347   -2.2331 C   0  0  0  0  0  0  0  0  0  0  0  0
    4.6188   -2.0299   -1.4998 C   0  0  0  0  0  0  0  0  0  0  0  0
    5.4067   -3.0851   -1.9924 C   0  0  0  0  0  0  0  0  0  0  0  0
    5.6509   -3.2597   -3.4128 C   0  0  0  0  0  0  0  0  0  0  0  0
    5.4901   -4.8268   -4.1520 S   0  0  0  0  0  0  0  0  0  0  0  0
    5.8995   -4.2240   -5.7213 C   0  0  0  0  0  0  0  0  0  0  0  0
    5.9112   -5.1190   -6.9110 C   0  0  0  0  0  0  0  0  0  0  0  0
    4.5036   -5.6050   -7.2602 C   0  0  0  0  0  0  0  0  0  0  0  0
    6.1559   -2.8875   -5.6572 C   0  0  0  0  0  0  0  0  0  0  0  0
    6.6133   -1.9330   -7.0084 Cl  0  0  0  0  0  0  0  0  0  0  0  0
    6.0246   -2.3384   -4.3533 C   0  0  0  0  0  0  0  0  0  0  0  0
    6.4141   -0.6985   -4.0226 Cl  0  0  0  0  0  0  0  0  0  0  0  0
    5.9469   -3.9570   -1.0509 C   0  0  0  0  0  0  0  0  0  0  0  0
    5.7547   -3.8073    0.3417 C   0  0  0  0  0  0  0  0  0  0  0  0
    5.0031   -2.7298    0.8374 C   0  0  0  0  0  0  0  0  0  0  0  0
    4.8389   -2.5663    2.2782 C   0  0  0  0  0  0  0  0  0  0  0  0
    3.2865   -2.6346    3.0632 S   0  0  0  0  0  0  0  0  0  0  0  0
    3.9894   -2.5278    4.6440 C   0  0  0  0  0  0  0  0  0  0  0  0
    3.1539   -2.5826    5.8759 C   0  0  0  0  0  0  0  0  0  0  0  0
    2.1617   -1.4255    5.9604 C   0  0  0  0  0  0  0  0  0  0  0  0
    5.3443   -2.4186    4.5487 C   0  0  0  0  0  0  0  0  0  0  0  0
    5.8281   -2.4451    3.2125 C   0  0  0  0  0  0  0  0  0  0  0  0
    7.4932   -2.2935    2.8241 Cl  0  0  0  0  0  0  0  0  0  0  0  0
    6.3951   -2.2790    5.8996 Cl  0  0  0  0  0  0  0  0  0  0  0  0
    4.4541   -1.8660   -0.0991 C   0  0  0  0  0  0  0  0  0  0  0  0
    3.5082   -0.4540    0.2630 S   0  0  0  0  0  0  0  0  0  0  0  0
    6.3997   -4.8439    1.0786 C   0  0  0  0  0  0  0  0  0  0  0  0
    7.0700   -5.7067    0.2896 C   0  0  0  0  0  0  0  0  0  0  0  0
    6.9561   -5.3350   -1.3958 S   0  0  0  0  0  0  0  0  0  0  0  0
   -1.1452   -6.8052   14.1714 H   0  0  0  0  0  0  0  0  0  0  0  0
    0.5990   -5.5990   12.6574 H   0  0  0  0  0  0  0  0  0  0  0  0
    5.5427   -4.3963   10.1926 H   0  0  0  0  0  0  0  0  0  0  0  0
    4.8632   -6.0283   10.3434 H   0  0  0  0  0  0  0  0  0  0  0  0
    4.4020   -6.0359    7.8755 H   0  0  0  0  0  0  0  0  0  0  0  0
    5.1363   -4.4346    7.7461 H   0  0  0  0  0  0  0  0  0  0  0  0
    6.1203   -5.8179    8.2263 H   0  0  0  0  0  0  0  0  0  0  0  0
   -8.3856   -5.4519   12.5557 H   0  0  0  0  0  0  0  0  0  0  0  0
   -9.1170   -6.0862   11.0685 H   0  0  0  0  0  0  0  0  0  0  0  0
   -9.2801   -3.7681   10.1644 H   0  0  0  0  0  0  0  0  0  0  0  0
   -8.5424   -3.1354   11.6395 H   0  0  0  0  0  0  0  0  0  0  0  0
  -10.1322   -3.9044   11.7055 H   0  0  0  0  0  0  0  0  0  0  0  0
   -4.3699   -3.4739    7.9406 H   0  0  0  0  0  0  0  0  0  0  0  0
   -0.8006   -1.0124    6.0175 H   0  0  0  0  0  0  0  0  0  0  0  0
    3.6167    2.6313    2.7964 H   0  0  0  0  0  0  0  0  0  0  0  0
    3.8390    2.8531    4.5399 H   0  0  0  0  0  0  0  0  0  0  0  0
    4.2852    0.2449    3.0028 H   0  0  0  0  0  0  0  0  0  0  0  0
    4.5696    0.4711    4.7342 H   0  0  0  0  0  0  0  0  0  0  0  0
    5.5622    1.3311    3.5569 H   0  0  0  0  0  0  0  0  0  0  0  0
   -8.3169   -4.6664    0.5171 H   0  0  0  0  0  0  0  0  0  0  0  0
   -6.7827   -5.1719   -0.2163 H   0  0  0  0  0  0  0  0  0  0  0  0
   -6.9046   -3.2468   -1.7980 H   0  0  0  0  0  0  0  0  0  0  0  0
   -8.3299   -4.2814   -1.9420 H   0  0  0  0  0  0  0  0  0  0  0  0
   -8.4370   -2.7473   -1.0737 H   0  0  0  0  0  0  0  0  0  0  0  0
   -3.8412   -0.9093   -0.4105 H   0  0  0  0  0  0  0  0  0  0  0  0
   -2.6272    2.1098   -1.9452 H   0  0  0  0  0  0  0  0  0  0  0  0
   -0.2140    1.2548   -5.3628 H   0  0  0  0  0  0  0  0  0  0  0  0
    1.5301   -0.5285   -6.0759 H   0  0  0  0  0  0  0  0  0  0  0  0
    2.9508   -2.5493   -6.3344 H   0  0  0  0  0  0  0  0  0  0  0  0
    2.8668   -4.3274   -4.6443 H   0  0  0  0  0  0  0  0  0  0  0  0
    1.5177   -4.1310   -2.6523 H   0  0  0  0  0  0  0  0  0  0  0  0
   -1.4336   -2.0574   -0.6447 H   0  0  0  0  0  0  0  0  0  0  0  0
   -0.1234   -2.9342    1.0055 H   0  0  0  0  0  0  0  0  0  0  0  0
    0.8504   -1.6752    0.2604 H   0  0  0  0  0  0  0  0  0  0  0  0
    2.1479   -3.6963    0.8919 H   0  0  0  0  0  0  0  0  0  0  0  0
    2.2705   -3.3639   -0.8287 H   0  0  0  0  0  0  0  0  0  0  0  0
    1.2211   -4.6666   -0.2438 H   0  0  0  0  0  0  0  0  0  0  0  0
   -0.4007   -4.5377   -2.0403 H   0  0  0  0  0  0  0  0  0  0  0  0
   -1.3964   -4.5190   -0.5826 H   0  0  0  0  0  0  0  0  0  0  0  0
   -2.1580   -3.2138   -3.2399 H   0  0  0  0  0  0  0  0  0  0  0  0
   -3.1669   -3.2812   -1.7900 H   0  0  0  0  0  0  0  0  0  0  0  0
   -2.7645   -4.7631   -2.6576 H   0  0  0  0  0  0  0  0  0  0  0  0
   -2.0861    3.8501   -3.6228 H   0  0  0  0  0  0  0  0  0  0  0  0
   -2.0779    2.4106   -6.3109 H   0  0  0  0  0  0  0  0  0  0  0  0
   -2.6133    5.5463   -4.4073 H   0  0  0  0  0  0  0  0  0  0  0  0
   -3.0565    8.1584   -7.7232 H   0  0  0  0  0  0  0  0  0  0  0  0
   -3.5645    7.8211  -10.3408 H   0  0  0  0  0  0  0  0  0  0  0  0
   -3.5152    7.0398  -12.6893 H   0  0  0  0  0  0  0  0  0  0  0  0
   -2.7895    4.7618  -13.2242 H   0  0  0  0  0  0  0  0  0  0  0  0
   -2.0820    3.2077  -11.4743 H   0  0  0  0  0  0  0  0  0  0  0  0
   -0.7134    2.8721   -7.6307 H   0  0  0  0  0  0  0  0  0  0  0  0
   -1.5528    1.5180  -10.2168 H   0  0  0  0  0  0  0  0  0  0  0  0
   -2.5987    1.4916   -8.7998 H   0  0  0  0  0  0  0  0  0  0  0  0
   -1.1615   -0.5270   -8.9079 H   0  0  0  0  0  0  0  0  0  0  0  0
   -0.7876    0.4171   -7.4706 H   0  0  0  0  0  0  0  0  0  0  0  0
    0.2855    0.4752   -8.8686 H   0  0  0  0  0  0  0  0  0  0  0  0
    0.9906    2.6305   -9.3195 H   0  0  0  0  0  0  0  0  0  0  0  0
    0.0051    3.4646  -10.5204 H   0  0  0  0  0  0  0  0  0  0  0  0
    0.8547    4.7326   -7.8729 H   0  0  0  0  0  0  0  0  0  0  0  0
    1.7231    4.9432   -9.3949 H   0  0  0  0  0  0  0  0  0  0  0  0
    0.0775    5.5434   -9.2293 H   0  0  0  0  0  0  0  0  0  0  0  0
   -3.0160    9.0097   -5.2306 H   0  0  0  0  0  0  0  0  0  0  0  0
   -1.5476    8.8854   -3.3237 H   0  0  0  0  0  0  0  0  0  0  0  0
   -1.2788    6.5497   -1.6237 H   0  0  0  0  0  0  0  0  0  0  0  0
   -4.1657    4.6222    1.7794 H   0  0  0  0  0  0  0  0  0  0  0  0
   -3.2478    4.7572    3.2929 H   0  0  0  0  0  0  0  0  0  0  0  0
   -3.8329    2.1377    1.8237 H   0  0  0  0  0  0  0  0  0  0  0  0
   -4.6649    2.7081    3.2726 H   0  0  0  0  0  0  0  0  0  0  0  0
   -2.9519    2.2909    3.3460 H   0  0  0  0  0  0  0  0  0  0  0  0
    4.0835    2.4855   -9.3659 H   0  0  0  0  0  0  0  0  0  0  0  0
    2.8888    1.2636   -8.8855 H   0  0  0  0  0  0  0  0  0  0  0  0
    4.4824    0.3499   -7.2077 H   0  0  0  0  0  0  0  0  0  0  0  0
    5.6839    1.5524   -7.6859 H   0  0  0  0  0  0  0  0  0  0  0  0
    5.1765    0.3090   -8.8321 H   0  0  0  0  0  0  0  0  0  0  0  0
    3.1388    1.3807   -3.8815 H   0  0  0  0  0  0  0  0  0  0  0  0
    3.8500   -1.0223   -3.3039 H   0  0  0  0  0  0  0  0  0  0  0  0
    6.3340   -4.5684   -7.7529 H   0  0  0  0  0  0  0  0  0  0  0  0
    6.5479   -5.9830   -6.7071 H   0  0  0  0  0  0  0  0  0  0  0  0
    4.5372   -6.2457   -8.1371 H   0  0  0  0  0  0  0  0  0  0  0  0
    3.8506   -4.7618   -7.4708 H   0  0  0  0  0  0  0  0  0  0  0  0
    4.0840   -6.1704   -6.4315 H   0  0  0  0  0  0  0  0  0  0  0  0
    3.8183   -2.5589    6.7407 H   0  0  0  0  0  0  0  0  0  0  0  0
    2.6001   -3.5253    5.8952 H   0  0  0  0  0  0  0  0  0  0  0  0
    2.6846   -0.4734    5.9925 H   0  0  0  0  0  0  0  0  0  0  0  0
    1.5647   -1.5224    6.8632 H   0  0  0  0  0  0  0  0  0  0  0  0
    1.5027   -1.4326    5.0953 H   0  0  0  0  0  0  0  0  0  0  0  0
    6.3508   -4.9281    2.1485 H   0  0  0  0  0  0  0  0  0  0  0  0
    7.6394   -6.5657    0.5858 H   0  0  0  0  0  0  0  0  0  0  0  0
  1  2  2  0  0  0  0
  2  3  1  0  0  0  0
  3  4  2  0  0  0  0
  4  5  1  0  0  0  0
  5  6  1  0  0  0  0
  6  7  1  0  0  0  0
  7  8  1  0  0  0  0
  8  9  1  0  0  0  0
  7 10  2  0  0  0  0
 10 11  1  0  0  0  0
 10 12  1  0  0  0  0
 12 13  1  0  0  0  0
  4 14  1  0  0  0  0
 14 15  2  0  0  0  0
 15 16  1  0  0  0  0
 16 17  1  0  0  0  0
 17 18  1  0  0  0  0
 18 19  1  0  0  0  0
 19 20  1  0  0  0  0
 20 21  1  0  0  0  0
 19 22  2  0  0  0  0
 22 23  1  0  0  0  0
 23 24  1  0  0  0  0
 22 25  1  0  0  0  0
 16 26  2  0  0  0  0
 26 27  1  0  0  0  0
 15 28  1  0  0  0  0
 28 29  2  0  0  0  0
 29 30  1  0  0  0  0
 29 31  1  0  0  0  0
 31 32  2  0  0  0  0
 32 33  1  0  0  0  0
 33 34  2  0  0  0  0
 34 35  1  0  0  0  0
 35 36  1  0  0  0  0
 36 37  1  0  0  0  0
 37 38  1  0  0  0  0
 38 39  1  0  0  0  0
 37 40  2  0  0  0  0
 40 41  1  0  0  0  0
 40 42  1  0  0  0  0
 42 43  1  0  0  0  0
 34 44  1  0  0  0  0
 44 45  2  0  0  0  0
 45 46  1  0  0  0  0
 46 47  1  0  0  0  0
 47 48  1  0  0  0  0
 48 49  1  0  0  0  0
 49 50  1  0  0  0  0
 50 51  1  0  0  0  0
 49 52  2  0  0  0  0
 52 53  1  0  0  0  0
 53 54  1  0  0  0  0
 52 55  1  0  0  0  0
 46 56  2  0  0  0  0
 56 57  1  0  0  0  0
 45 58  1  0  0  0  0
 58 59  2  0  0  0  0
 59 60  1  0  0  0  0
 59 61  1  0  0  0  0
 61 62  2  0  0  0  0
 62 63  1  0  0  0  0
 63 64  2  0  0  0  0
 64 65  1  0  0  0  0
 65 66  2  0  0  0  0
 66 67  1  0  0  0  0
 67 68  1  0  0  0  0
 68 69  2  0  0  0  0
 69 70  1  0  0  0  0
 70 71  2  0  0  0  0
 71 72  1  0  0  0  0
 72 73  2  0  0  0  0
 67 74  1  0  0  0  0
 74 75  1  0  0  0  0
 75 76  1  0  0  0  0
 74 77  1  0  0  0  0
 77 78  1  0  0  0  0
 63 79  1  0  0  0  0
 79 80  2  0  0  0  0
 80 81  1  0  0  0  0
 81 82  2  0  0  0  0
 82 83  1  0  0  0  0
 83 84  2  0  0  0  0
 84 85  1  0  0  0  0
 85 86  2  0  0  0  0
 86 87  1  0  0  0  0
 87 88  1  0  0  0  0
 88 89  2  0  0  0  0
 89 90  1  0  0  0  0
 90 91  2  0  0  0  0
 91 92  1  0  0  0  0
 92 93  2  0  0  0  0
 87 94  1  0  0  0  0
 94 95  1  0  0  0  0
 95 96  1  0  0  0  0
 94 97  1  0  0  0  0
 97 98  1  0  0  0  0
 83 99  1  0  0  0  0
 99100  2  0  0  0  0
100101  1  0  0  0  0
101102  2  0  0  0  0
102103  1  0  0  0  0
103104  2  0  0  0  0
104105  1  0  0  0  0
105106  1  0  0  0  0
106107  1  0  0  0  0
107108  1  0  0  0  0
108109  1  0  0  0  0
107110  2  0  0  0  0
110111  1  0  0  0  0
110112  1  0  0  0  0
112113  1  0  0  0  0
104114  1  0  0  0  0
114115  2  0  0  0  0
115116  1  0  0  0  0
116117  1  0  0  0  0
117118  1  0  0  0  0
118119  1  0  0  0  0
119120  1  0  0  0  0
120121  1  0  0  0  0
119122  2  0  0  0  0
122123  1  0  0  0  0
123124  1  0  0  0  0
122125  1  0  0  0  0
116126  2  0  0  0  0
126127  1  0  0  0  0
115128  1  0  0  0  0
128129  2  0  0  0  0
129130  1  0  0  0  0
129131  1  0  0  0  0
131132  2  0  0  0  0
132133  1  0  0  0  0
133134  2  0  0  0  0
134135  1  0  0  0  0
135136  1  0  0  0  0
136137  1  0  0  0  0
137138  1  0  0  0  0
138139  1  0  0  0  0
137140  2  0  0  0  0
140141  1  0  0  0  0
140142  1  0  0  0  0
142143  1  0  0  0  0
134144  1  0  0  0  0
144145  2  0  0  0  0
145146  1  0  0  0  0
146147  1  0  0  0  0
147148  1  0  0  0  0
148149  1  0  0  0  0
149150  1  0  0  0  0
150151  1  0  0  0  0
149152  2  0  0  0  0
152153  1  0  0  0  0
153154  1  0  0  0  0
152155  1  0  0  0  0
146156  2  0  0  0  0
156157  1  0  0  0  0
145158  1  0  0  0  0
158159  2  0  0  0  0
159160  1  0  0  0  0
 27  1  1  0  0  0  0
 57 31  1  0  0  0  0
 66 61  1  0  0  0  0
 73 68  1  0  0  0  0
 86 81  1  0  0  0  0
 93 88  1  0  0  0  0
127101  1  0  0  0  0
157131  1  0  0  0  0
 26  3  1  0  0  0  0
 56 33  1  0  0  0  0
 69 65  1  0  0  0  0
 89 85  1  0  0  0  0
126103  1  0  0  0  0
156133  1  0  0  0  0
 12  5  2  0  0  0  0
 30 14  1  0  0  0  0
 42 35  2  0  0  0  0
 60 44  1  0  0  0  0
112105  2  0  0  0  0
130114  1  0  0  0  0
142135  2  0  0  0  0
160144  1  0  0  0  0
 23 17  2  0  0  0  0
 53 47  2  0  0  0  0
123117  2  0  0  0  0
153147  2  0  0  0  0
  1161  1  0  0  0  0
  2162  1  0  0  0  0
  8163  1  0  0  0  0
  8164  1  0  0  0  0
  9165  1  0  0  0  0
  9166  1  0  0  0  0
  9167  1  0  0  0  0
 20168  1  0  0  0  0
 20169  1  0  0  0  0
 21170  1  0  0  0  0
 21171  1  0  0  0  0
 21172  1  0  0  0  0
 28173  1  0  0  0  0
 32174  1  0  0  0  0
 38175  1  0  0  0  0
 38176  1  0  0  0  0
 39177  1  0  0  0  0
 39178  1  0  0  0  0
 39179  1  0  0  0  0
 50180  1  0  0  0  0
 50181  1  0  0  0  0
 51182  1  0  0  0  0
 51183  1  0  0  0  0
 51184  1  0  0  0  0
 58185  1  0  0  0  0
 62186  1  0  0  0  0
 64187  1  0  0  0  0
 70188  1  0  0  0  0
 71189  1  0  0  0  0
 72190  1  0  0  0  0
 73191  1  0  0  0  0
 74192  1  0  0  0  0
 75193  1  0  0  0  0
 75194  1  0  0  0  0
 76195  1  0  0  0  0
 76196  1  0  0  0  0
 76197  1  0  0  0  0
 77198  1  0  0  0  0
 77199  1  0  0  0  0
 78200  1  0  0  0  0
 78201  1  0  0  0  0
 78202  1  0  0  0  0
 79203  1  0  0  0  0
 80204  1  0  0  0  0
 82205  1  0  0  0  0
 84206  1  0  0  0  0
 90207  1  0  0  0  0
 91208  1  0  0  0  0
 92209  1  0  0  0  0
 93210  1  0  0  0  0
 94211  1  0  0  0  0
 95212  1  0  0  0  0
 95213  1  0  0  0  0
 96214  1  0  0  0  0
 96215  1  0  0  0  0
 96216  1  0  0  0  0
 97217  1  0  0  0  0
 97218  1  0  0  0  0
 98219  1  0  0  0  0
 98220  1  0  0  0  0
 98221  1  0  0  0  0
 99222  1  0  0  0  0
100223  1  0  0  0  0
102224  1  0  0  0  0
108225  1  0  0  0  0
108226  1  0  0  0  0
109227  1  0  0  0  0
109228  1  0  0  0  0
109229  1  0  0  0  0
120230  1  0  0  0  0
120231  1  0  0  0  0
121232  1  0  0  0  0
121233  1  0  0  0  0
121234  1  0  0  0  0
128235  1  0  0  0  0
132236  1  0  0  0  0
138237  1  0  0  0  0
138238  1  0  0  0  0
139239  1  0  0  0  0
139240  1  0  0  0  0
139241  1  0  0  0  0
150242  1  0  0  0  0
150243  1  0  0  0  0
151244  1  0  0  0  0
151245  1  0  0  0  0
151246  1  0  0  0  0
158247  1  0  0  0  0
159248  1  0  0  0  0
M  END
