160

C        -11.25200        0.88610       -0.33870
C        -10.81730        0.09020        0.69700
C        -10.59830       -1.29350        0.55760
C        -10.87960       -1.88920       -0.67100
C        -11.31930       -1.10590       -1.72270
C        -11.48890        0.29410       -1.57500
N        -11.89080        0.83550       -2.77350
C        -11.98420       -0.18230       -3.69940
C        -11.64580       -1.41140       -3.08610
C        -11.66460       -2.59200       -3.81590
C        -12.02050       -2.54070       -5.14820
C        -12.35430       -1.32940       -5.74850
C        -12.34160       -0.14290       -5.04090
C        -12.05520        2.23960       -3.08090
C        -10.71040        2.97600       -2.99060
C         -9.70670        2.44970       -4.00960
C        -13.14550        2.89080       -2.21280
C        -13.82330        4.05340       -2.92840
C        -10.02160       -2.00770        1.67280
C         -9.55050       -3.27010        1.65360
C         -8.79500       -3.87370        2.70230
S         -7.93680       -5.36810        2.32290
C         -7.10690       -5.29550        3.83110
C         -6.04780       -5.88180        4.52350
C         -5.85860       -5.12390        5.69670
N         -6.77800       -4.10790        5.74200
C         -6.94500       -3.15910        6.80990
C         -7.91350       -3.67480        7.87320
C         -7.53510       -4.19430        4.60150
C         -8.49260       -3.40000        3.96000
C         -4.70970       -5.47860        6.41300
C         -4.01410       -6.49270        5.79420
S         -4.82530       -7.08700        4.34250
C         -2.67450       -6.89430        6.04330
S         -1.68510       -5.92540        7.14030
C         -0.25770       -6.67830        6.52670
C          1.12550       -6.50820        6.49230
C          1.62330       -7.42170        5.54040
N          0.59260       -8.17970        5.04570
C          0.67870       -9.10320        3.94460
C          0.55600       -8.38980        2.59920
C         -0.56520       -7.69080        5.59490
C         -1.93470       -7.81260        5.33280
C          2.96610       -7.20810        5.20940
C          3.49540       -6.13370        5.88840
S          2.35630       -5.42920        7.04100
C          4.67580       -5.41140        5.56700
S          5.50880       -5.77680        4.05270
C          6.38920       -4.29650        4.17230
C          7.19400       -3.44800        3.41370
C          7.37380       -2.27310        4.17210
N          6.71690       -2.39260        5.36900
C          6.70980       -1.42990        6.43790
C          7.86770       -1.66040        7.40760
C          6.09880       -3.61590        5.37240
C          5.13350       -4.25610        6.15880
C          8.01430       -1.24620        3.46830
C          8.31530       -1.62130        2.17930
S          7.87180       -3.29400        1.83350
C          8.75530       -0.78720        1.11670
S          8.83470        0.95750        1.36820
C          9.11990        1.19520       -0.31680
C          9.24020        2.20430       -1.27630
C          9.37970        1.56510       -2.52010
N          9.37960        0.20560       -2.34550
C          9.42970       -0.79610       -3.37760
C          8.03320       -1.20060       -3.84720
C          9.19170       -0.02880       -1.00770
C          8.98620       -1.14770       -0.19020
C          9.42480        2.46260       -3.60440
C          9.30010        3.75940       -3.19500
S          9.20220        3.92280       -1.44410
C          9.31650        4.95380       -4.05160
C         10.55790        5.47020       -4.38970
C         10.73070        6.57020       -5.23880
C          9.59990        7.16350       -5.78820
C          8.34640        6.67470       -5.46460
C          8.17820        5.58120       -4.57860
N          6.83300        5.31050       -4.44010
C          6.12700        6.19950       -5.22620
C          7.03310        7.06570       -5.88210
C          6.58040        8.05490       -6.74510
C          5.22390        8.17620       -6.95910
C          4.33140        7.31820       -6.32150
C          4.76170        6.32970       -5.45860
C          6.29980        4.34640       -3.49710
C          5.95070        5.00470       -2.14860
C          4.86320        6.07030       -2.18130
C          5.17340        3.47950       -4.07820
C          5.23730        2.06100       -3.52130
C         12.04360        7.10290       -5.57530
C         13.21440        6.72250       -5.07730
H        -11.39300        1.94240       -0.17520
H        -10.61710        0.54830        1.65560
H        -10.75030       -2.95000       -0.81550
H        -11.40460       -3.52840       -3.34570
H        -12.04170       -3.44610       -5.73610
H        -12.62910       -1.31590       -6.79310
H        -12.60540        0.77980       -5.53620
H        -12.39300        2.28380       -4.12110
H        -10.29800        2.85980       -1.98770
H        -10.88340        4.03940       -3.16390
H         -8.76370        2.98380       -3.92230
H        -10.08180        2.57940       -5.02280
H         -9.51510        1.39100       -3.84870
H        -13.89380        2.13370       -1.96830
H        -12.71740        3.25080       -1.27690
H        -14.30870        3.71310       -3.84060
H        -14.57850        4.50100       -2.28700
H        -13.10100        4.82300       -3.19040
H         -9.89460       -1.42220        2.57420
H         -9.64500       -3.87180        0.76070
H         -5.96480       -2.96930        7.25610
H         -7.31920       -2.22470        6.38260
H         -8.02280       -2.94140        8.66750
H         -7.54130       -4.60260        8.30150
H         -8.88970       -3.86410        7.43280
H         -8.92890       -2.51030        4.37510
H         -4.35490       -4.99890        7.30750
H         -0.12240       -9.83930        4.05430
H          1.63930       -9.62150        4.00940
H         -0.39940       -7.87480        2.53250
H          0.62450       -9.10880        1.78760
H          1.35220       -7.65740        2.48790
H         -2.37800       -8.48040        4.61630
H          3.52160       -7.75130        4.46620
H          5.75590       -1.51170        6.96600
H          6.78100       -0.43080        5.99930
H          7.84100       -0.92170        8.20400
H          8.81780       -1.57850        6.88480
H          7.79820       -2.65280        7.84710
H          4.73190       -3.88450        7.08430
H          8.21770       -0.25980        3.84460
H         10.00710       -0.39540       -4.21510
H          9.95500       -1.66930       -2.97970
H          7.51650       -0.34760       -4.28080
H          7.44710       -1.57040       -3.00920
H          8.10440       -1.98290       -4.59790
H          8.96930       -2.17110       -0.51920
H          9.50900        2.18550       -4.64020
H         11.42720        4.98130       -3.97720
H          9.69410        8.00200       -6.46260
H          7.28250        8.71130       -7.23690
H          4.84590        8.93700       -7.62560
H          3.27240        7.42690       -6.50580
H          4.03830        5.68890       -4.98570
H          7.13140        3.66500       -3.29580
H          5.65880        4.21000       -1.45910
H          6.86500        5.45700       -1.75700
H          3.90880        5.66060       -2.50260
H          4.72970        6.47820       -1.18160
H          5.13470        6.88570       -2.84660
H          4.19640        3.90030       -3.84430
H          5.27780        3.44380       -5.16450
H          5.13870        2.06580       -2.43840
H          6.18730        1.59400       -3.77280
H          4.43520        1.45390       -3.93450
H         12.02380        7.90130       -6.30790
H         14.13290        7.18710       -5.39260
H         13.31120        5.94520       -4.33910
