
  xtb     02282217523D
 energy: -268.543059527881 gnorm: 0.000623066829 xtb: 6.4.1 (unknown)
188205  0     0  0            999 V2000
    2.3999    7.9401   10.1930 C   0  0  0  0  0  0  0  0  0  0  0  0
    2.5807    6.5067    9.2522 S   0  0  0  0  0  0  0  0  0  0  0  0
    0.8872    6.4961    8.9235 C   0  0  0  0  0  0  0  0  0  0  0  0
    0.1186    5.5842    8.1494 C   0  0  0  0  0  0  0  0  0  0  0  0
   -1.2413    5.8238    8.0329 C   0  0  0  0  0  0  0  0  0  0  0  0
   -1.6807    7.4499    9.0546 Ge  0  0  0  0  0  4  0  0  0  0  0  0
   -2.2917    8.9491    7.8698 C   0  0  0  0  0  0  0  0  0  0  0  0
   -1.3314    9.1853    6.7149 C   0  0  0  0  0  0  0  0  0  0  0  0
   -2.8919    7.0990   10.6178 C   0  0  0  0  0  0  0  0  0  0  0  0
   -4.2758    6.6387   10.1877 C   0  0  0  0  0  0  0  0  0  0  0  0
    0.2304    7.5567    9.5195 C   0  0  0  0  0  0  0  0  0  0  0  0
    1.1120    8.3766   10.2452 C   0  0  0  0  0  0  0  0  0  0  0  0
   -1.8789    4.8677    7.2413 C   0  0  0  0  0  0  0  0  0  0  0  0
   -1.0232    3.8983    6.7579 C   0  0  0  0  0  0  0  0  0  0  0  0
    0.6148    4.1750    7.2922 S   0  0  0  0  0  0  0  0  0  0  0  0
   -1.3346    2.7912    5.9201 C   0  0  0  0  0  0  0  0  0  0  0  0
   -0.1204    1.5945    5.5405 S   0  0  0  0  0  0  0  0  0  0  0  0
   -1.2464    0.7409    4.5575 C   0  0  0  0  0  0  0  0  0  0  0  0
   -1.0448   -0.4105    3.7551 C   0  0  0  0  0  0  0  0  0  0  0  0
   -2.0919   -0.8416    2.9600 C   0  0  0  0  0  0  0  0  0  0  0  0
   -3.6646    0.2769    3.3486 Ge  0  0  0  0  0  4  0  0  0  0  0  0
   -4.4597    1.2596    1.7868 C   0  0  0  0  0  0  0  0  0  0  0  0
   -4.9929    0.3154    0.7210 C   0  0  0  0  0  0  0  0  0  0  0  0
   -5.0311   -0.7786    4.3834 C   0  0  0  0  0  0  0  0  0  0  0  0
   -5.1845   -2.2029    3.8716 C   0  0  0  0  0  0  0  0  0  0  0  0
   -2.4936    1.3470    4.5236 C   0  0  0  0  0  0  0  0  0  0  0  0
   -2.5361    2.5030    5.3031 C   0  0  0  0  0  0  0  0  0  0  0  0
   -1.7210   -1.9182    2.1465 C   0  0  0  0  0  0  0  0  0  0  0  0
   -0.4190   -2.3220    2.3247 C   0  0  0  0  0  0  0  0  0  0  0  0
    0.3813   -1.3473    3.5319 S   0  0  0  0  0  0  0  0  0  0  0  0
    0.3614   -3.1729    1.4414 C   0  0  0  0  0  0  0  0  0  0  0  0
    1.5766   -2.6298    1.0394 C   0  0  0  0  0  0  0  0  0  0  0  0
    2.2809   -3.0388   -0.0919 C   0  0  0  0  0  0  0  0  0  0  0  0
    1.8160   -4.1476   -0.7904 C   0  0  0  0  0  0  0  0  0  0  0  0
    0.6938   -4.8118   -0.3188 C   0  0  0  0  0  0  0  0  0  0  0  0
   -0.0483   -4.3517    0.7973 C   0  0  0  0  0  0  0  0  0  0  0  0
   -1.0882   -5.2257    1.0569 N   0  0  0  0  0  0  0  0  0  0  0  0
   -1.0346   -6.2426    0.1187 C   0  0  0  0  0  0  0  0  0  0  0  0
    0.0411   -6.0040   -0.7703 C   0  0  0  0  0  0  0  0  0  0  0  0
    0.3074   -6.8635   -1.8275 C   0  0  0  0  0  0  0  0  0  0  0  0
   -0.5009   -7.9657   -2.0055 C   0  0  0  0  0  0  0  0  0  0  0  0
   -1.5607   -8.2038   -1.1351 C   0  0  0  0  0  0  0  0  0  0  0  0
   -1.8406   -7.3599   -0.0781 C   0  0  0  0  0  0  0  0  0  0  0  0
   -1.7655   -5.2264    2.3427 C   0  0  0  0  0  0  0  0  0  0  0  0
   -0.9418   -5.9967    3.3957 C   0  0  0  0  0  0  0  0  0  0  0  0
   -0.7381   -7.4801    3.1144 C   0  0  0  0  0  0  0  0  0  0  0  0
   -3.2340   -5.6661    2.3066 C   0  0  0  0  0  0  0  0  0  0  0  0
   -4.0340   -4.9698    1.2124 C   0  0  0  0  0  0  0  0  0  0  0  0
    3.4141   -2.2653   -0.5844 C   0  0  0  0  0  0  0  0  0  0  0  0
    3.6808   -0.9805   -0.3210 C   0  0  0  0  0  0  0  0  0  0  0  0
    2.8384   -0.0450    0.4446 C   0  0  0  0  0  0  0  0  0  0  0  0
    1.5361    0.1267   -0.0121 C   0  0  0  0  0  0  0  0  0  0  0  0
    0.6078    0.9897    0.5785 C   0  0  0  0  0  0  0  0  0  0  0  0
    1.0162    1.7428    1.6748 C   0  0  0  0  0  0  0  0  0  0  0  0
    2.3118    1.6164    2.1373 C   0  0  0  0  0  0  0  0  0  0  0  0
    3.2388    0.7030    1.5635 C   0  0  0  0  0  0  0  0  0  0  0  0
    4.4134    0.7473    2.2960 N   0  0  0  0  0  0  0  0  0  0  0  0
    4.2652    1.6933    3.2954 C   0  0  0  0  0  0  0  0  0  0  0  0
    2.9753    2.2600    3.2309 C   0  0  0  0  0  0  0  0  0  0  0  0
    2.5821    3.2458    4.1259 C   0  0  0  0  0  0  0  0  0  0  0  0
    3.4809    3.6630    5.0847 C   0  0  0  0  0  0  0  0  0  0  0  0
    4.7566    3.1090    5.1443 C   0  0  0  0  0  0  0  0  0  0  0  0
    5.1659    2.1298    4.2597 C   0  0  0  0  0  0  0  0  0  0  0  0
    5.5329   -0.1745    2.3121 C   0  0  0  0  0  0  0  0  0  0  0  0
    6.4509   -0.0446    1.0813 C   0  0  0  0  0  0  0  0  0  0  0  0
    7.9232   -0.0137    1.4768 C   0  0  0  0  0  0  0  0  0  0  0  0
    5.0785   -1.6187    2.5639 C   0  0  0  0  0  0  0  0  0  0  0  0
    4.3073   -1.7524    3.8719 C   0  0  0  0  0  0  0  0  0  0  0  0
   -0.7810    1.0584    0.1625 C   0  0  0  0  0  0  0  0  0  0  0  0
   -1.3448    0.8301   -1.0366 C   0  0  0  0  0  0  0  0  0  0  0  0
   -0.7136    0.6033   -2.3037 C   0  0  0  0  0  0  0  0  0  0  0  0
   -1.6321   -0.2185   -3.5471 S   0  0  0  0  0  0  0  0  0  0  0  0
   -0.3149   -0.0823   -4.6488 C   0  0  0  0  0  0  0  0  0  0  0  0
   -0.1890   -0.5466   -5.9822 C   0  0  0  0  0  0  0  0  0  0  0  0
    1.0158   -0.3285   -6.6339 C   0  0  0  0  0  0  0  0  0  0  0  0
    2.2353    0.6100   -5.4012 Ge  0  0  0  0  0  4  0  0  0  0  0  0
    3.7702   -0.5397   -4.8078 C   0  0  0  0  0  0  0  0  0  0  0  0
    3.2982   -1.8944   -4.3044 C   0  0  0  0  0  0  0  0  0  0  0  0
    2.7540    2.4391   -6.0433 C   0  0  0  0  0  0  0  0  0  0  0  0
    1.5486    3.2361   -6.5153 C   0  0  0  0  0  0  0  0  0  0  0  0
    0.7655    0.5863   -4.0924 C   0  0  0  0  0  0  0  0  0  0  0  0
    0.5264    0.9753   -2.7742 C   0  0  0  0  0  0  0  0  0  0  0  0
    1.0064   -0.8230   -7.9380 C   0  0  0  0  0  0  0  0  0  0  0  0
   -0.1878   -1.4144   -8.2932 C   0  0  0  0  0  0  0  0  0  0  0  0
   -1.3380   -1.3635   -6.9765 S   0  0  0  0  0  0  0  0  0  0  0  0
   -0.5454   -2.0109   -9.5311 C   0  0  0  0  0  0  0  0  0  0  0  0
    0.5973   -2.0811  -10.8520 S   0  0  0  0  0  0  0  0  0  0  0  0
   -0.5683   -2.8826  -11.8400 C   0  0  0  0  0  0  0  0  0  0  0  0
   -0.4598   -3.3485  -13.1789 C   0  0  0  0  0  0  0  0  0  0  0  0
   -1.5594   -3.9710  -13.7412 C   0  0  0  0  0  0  0  0  0  0  0  0
   -3.0105   -4.0001  -12.4076 Ge  0  0  0  0  0  4  0  0  0  0  0  0
   -4.5744   -2.8561  -12.9336 C   0  0  0  0  0  0  0  0  0  0  0  0
   -5.5726   -2.6563  -11.8044 C   0  0  0  0  0  0  0  0  0  0  0  0
   -3.5046   -5.8360  -11.7534 C   0  0  0  0  0  0  0  0  0  0  0  0
   -3.8142   -5.8591  -10.2640 C   0  0  0  0  0  0  0  0  0  0  0  0
   -1.7717   -3.0816  -11.1835 C   0  0  0  0  0  0  0  0  0  0  0  0
   -1.7491   -2.5863   -9.8792 C   0  0  0  0  0  0  0  0  0  0  0  0
   -1.3104   -4.3800  -15.0629 C   0  0  0  0  0  0  0  0  0  0  0  0
   -0.0529   -4.0718  -15.4814 C   0  0  0  0  0  0  0  0  0  0  0  0
    0.8742   -3.2673  -14.2705 S   0  0  0  0  0  0  0  0  0  0  0  0
    3.2688    8.3706   10.6511 H   0  0  0  0  0  0  0  0  0  0  0  0
   -3.2834    8.7052    7.4891 H   0  0  0  0  0  0  0  0  0  0  0  0
   -2.3883    9.8519    8.4726 H   0  0  0  0  0  0  0  0  0  0  0  0
   -1.6838    9.9960    6.0793 H   0  0  0  0  0  0  0  0  0  0  0  0
   -0.3425    9.4449    7.0879 H   0  0  0  0  0  0  0  0  0  0  0  0
   -1.2377    8.2870    6.1076 H   0  0  0  0  0  0  0  0  0  0  0  0
   -2.4218    6.3389   11.2414 H   0  0  0  0  0  0  0  0  0  0  0  0
   -2.9652    8.0091   11.2126 H   0  0  0  0  0  0  0  0  0  0  0  0
   -4.7628    7.3984    9.5796 H   0  0  0  0  0  0  0  0  0  0  0  0
   -4.2065    5.7247    9.6019 H   0  0  0  0  0  0  0  0  0  0  0  0
   -4.9028    6.4431   11.0561 H   0  0  0  0  0  0  0  0  0  0  0  0
    0.8060    9.2562   10.7849 H   0  0  0  0  0  0  0  0  0  0  0  0
   -2.9329    4.8748    7.0257 H   0  0  0  0  0  0  0  0  0  0  0  0
   -5.2628    1.8939    2.1624 H   0  0  0  0  0  0  0  0  0  0  0  0
   -3.7014    1.9153    1.3613 H   0  0  0  0  0  0  0  0  0  0  0  0
   -5.3909    0.8754   -0.1239 H   0  0  0  0  0  0  0  0  0  0  0  0
   -5.7915   -0.3058    1.1215 H   0  0  0  0  0  0  0  0  0  0  0  0
   -4.2012   -0.3372    0.3588 H   0  0  0  0  0  0  0  0  0  0  0  0
   -5.9860   -0.2566    4.3345 H   0  0  0  0  0  0  0  0  0  0  0  0
   -4.7228   -0.7947    5.4282 H   0  0  0  0  0  0  0  0  0  0  0  0
   -5.9114   -2.7499    4.4705 H   0  0  0  0  0  0  0  0  0  0  0  0
   -4.2325   -2.7274    3.9230 H   0  0  0  0  0  0  0  0  0  0  0  0
   -5.5210   -2.2104    2.8373 H   0  0  0  0  0  0  0  0  0  0  0  0
   -3.4089    3.1233    5.4060 H   0  0  0  0  0  0  0  0  0  0  0  0
   -2.3610   -2.3493    1.3958 H   0  0  0  0  0  0  0  0  0  0  0  0
    1.9478   -1.7935    1.6044 H   0  0  0  0  0  0  0  0  0  0  0  0
    2.3122   -4.4851   -1.6883 H   0  0  0  0  0  0  0  0  0  0  0  0
    1.1321   -6.6638   -2.4952 H   0  0  0  0  0  0  0  0  0  0  0  0
   -0.3170   -8.6488   -2.8211 H   0  0  0  0  0  0  0  0  0  0  0  0
   -2.1846   -9.0724   -1.2885 H   0  0  0  0  0  0  0  0  0  0  0  0
   -2.6717   -7.5919    0.5638 H   0  0  0  0  0  0  0  0  0  0  0  0
   -1.7672   -4.1822    2.6689 H   0  0  0  0  0  0  0  0  0  0  0  0
   -1.4385   -5.8752    4.3609 H   0  0  0  0  0  0  0  0  0  0  0  0
    0.0374   -5.5156    3.4659 H   0  0  0  0  0  0  0  0  0  0  0  0
   -1.6841   -8.0147    3.0971 H   0  0  0  0  0  0  0  0  0  0  0  0
   -0.2357   -7.6308    2.1623 H   0  0  0  0  0  0  0  0  0  0  0  0
   -0.1210   -7.9171    3.8964 H   0  0  0  0  0  0  0  0  0  0  0  0
   -3.6637   -5.4138    3.2793 H   0  0  0  0  0  0  0  0  0  0  0  0
   -3.3182   -6.7453    2.1959 H   0  0  0  0  0  0  0  0  0  0  0  0
   -5.0705   -5.2979    1.2404 H   0  0  0  0  0  0  0  0  0  0  0  0
   -3.6282   -5.1957    0.2293 H   0  0  0  0  0  0  0  0  0  0  0  0
   -4.0162   -3.8921    1.3541 H   0  0  0  0  0  0  0  0  0  0  0  0
    4.0784   -2.8013   -1.2517 H   0  0  0  0  0  0  0  0  0  0  0  0
    4.5552   -0.5343   -0.7762 H   0  0  0  0  0  0  0  0  0  0  0  0
    1.2172   -0.4865   -0.8403 H   0  0  0  0  0  0  0  0  0  0  0  0
    0.3301    2.4194    2.1636 H   0  0  0  0  0  0  0  0  0  0  0  0
    1.5944    3.6771    4.0657 H   0  0  0  0  0  0  0  0  0  0  0  0
    3.2007    4.4255    5.7953 H   0  0  0  0  0  0  0  0  0  0  0  0
    5.4468    3.4563    5.8992 H   0  0  0  0  0  0  0  0  0  0  0  0
    6.1698    1.7380    4.3336 H   0  0  0  0  0  0  0  0  0  0  0  0
    6.1232    0.1205    3.1840 H   0  0  0  0  0  0  0  0  0  0  0  0
    6.2044    0.8768    0.5493 H   0  0  0  0  0  0  0  0  0  0  0  0
    6.2883   -0.8855    0.4074 H   0  0  0  0  0  0  0  0  0  0  0  0
    8.5523    0.0429    0.5914 H   0  0  0  0  0  0  0  0  0  0  0  0
    8.1374    0.8505    2.1020 H   0  0  0  0  0  0  0  0  0  0  0  0
    8.1900   -0.9134    2.0272 H   0  0  0  0  0  0  0  0  0  0  0  0
    5.9707   -2.2476    2.6001 H   0  0  0  0  0  0  0  0  0  0  0  0
    4.4596   -1.9655    1.7381 H   0  0  0  0  0  0  0  0  0  0  0  0
    4.0070   -2.7858    4.0266 H   0  0  0  0  0  0  0  0  0  0  0  0
    3.4089   -1.1391    3.8588 H   0  0  0  0  0  0  0  0  0  0  0  0
    4.9191   -1.4401    4.7162 H   0  0  0  0  0  0  0  0  0  0  0  0
   -1.4554    1.3105    0.9753 H   0  0  0  0  0  0  0  0  0  0  0  0
   -2.4277    0.8269   -1.0838 H   0  0  0  0  0  0  0  0  0  0  0  0
    4.4544   -0.6653   -5.6468 H   0  0  0  0  0  0  0  0  0  0  0  0
    4.3114   -0.0140   -4.0215 H   0  0  0  0  0  0  0  0  0  0  0  0
    4.1465   -2.5121   -4.0135 H   0  0  0  0  0  0  0  0  0  0  0  0
    2.7428   -2.4182   -5.0804 H   0  0  0  0  0  0  0  0  0  0  0  0
    2.6464   -1.7754   -3.4408 H   0  0  0  0  0  0  0  0  0  0  0  0
    3.4749    2.3291   -6.8530 H   0  0  0  0  0  0  0  0  0  0  0  0
    3.2569    2.9604   -5.2292 H   0  0  0  0  0  0  0  0  0  0  0  0
    1.8495    4.2254   -6.8561 H   0  0  0  0  0  0  0  0  0  0  0  0
    0.8294    3.3541   -5.7070 H   0  0  0  0  0  0  0  0  0  0  0  0
    1.0522    2.7250   -7.3380 H   0  0  0  0  0  0  0  0  0  0  0  0
    1.2287    1.5325   -2.1793 H   0  0  0  0  0  0  0  0  0  0  0  0
    1.8388   -0.7581   -8.6181 H   0  0  0  0  0  0  0  0  0  0  0  0
   -4.1822   -1.8934  -13.2615 H   0  0  0  0  0  0  0  0  0  0  0  0
   -5.0645   -3.3171  -13.7912 H   0  0  0  0  0  0  0  0  0  0  0  0
   -6.0123   -3.6059  -11.5066 H   0  0  0  0  0  0  0  0  0  0  0  0
   -6.3775   -1.9930  -12.1177 H   0  0  0  0  0  0  0  0  0  0  0  0
   -5.0851   -2.2166  -10.9368 H   0  0  0  0  0  0  0  0  0  0  0  0
   -4.3638   -6.1881  -12.3239 H   0  0  0  0  0  0  0  0  0  0  0  0
   -2.6730   -6.5064  -11.9691 H   0  0  0  0  0  0  0  0  0  0  0  0
   -4.6484   -5.2017  -10.0293 H   0  0  0  0  0  0  0  0  0  0  0  0
   -4.0725   -6.8671   -9.9430 H   0  0  0  0  0  0  0  0  0  0  0  0
   -2.9505   -5.5274   -9.6917 H   0  0  0  0  0  0  0  0  0  0  0  0
   -2.5782   -2.6378   -9.1938 H   0  0  0  0  0  0  0  0  0  0  0  0
   -2.0340   -4.8838  -15.6802 H   0  0  0  0  0  0  0  0  0  0  0  0
    0.3995   -4.2659  -16.4342 H   0  0  0  0  0  0  0  0  0  0  0  0
  1  2  1  0  0  0  0
  2  3  1  0  0  0  0
  3  4  1  0  0  0  0
  4  5  2  0  0  0  0
  5  6  1  0  0  0  0
  6  7  1  0  0  0  0
  7  8  1  0  0  0  0
  6  9  1  0  0  0  0
  9 10  1  0  0  0  0
  6 11  1  0  0  0  0
 11 12  1  0  0  0  0
  5 13  1  0  0  0  0
 13 14  2  0  0  0  0
 14 15  1  0  0  0  0
 14 16  1  0  0  0  0
 16 17  1  0  0  0  0
 17 18  1  0  0  0  0
 18 19  1  0  0  0  0
 19 20  2  0  0  0  0
 20 21  1  0  0  0  0
 21 22  1  0  0  0  0
 22 23  1  0  0  0  0
 21 24  1  0  0  0  0
 24 25  1  0  0  0  0
 21 26  1  0  0  0  0
 26 27  1  0  0  0  0
 20 28  1  0  0  0  0
 28 29  2  0  0  0  0
 29 30  1  0  0  0  0
 29 31  1  0  0  0  0
 31 32  2  0  0  0  0
 32 33  1  0  0  0  0
 33 34  2  0  0  0  0
 34 35  1  0  0  0  0
 35 36  2  0  0  0  0
 36 37  1  0  0  0  0
 37 38  1  0  0  0  0
 38 39  2  0  0  0  0
 39 40  1  0  0  0  0
 40 41  2  0  0  0  0
 41 42  1  0  0  0  0
 42 43  2  0  0  0  0
 37 44  1  0  0  0  0
 44 45  1  0  0  0  0
 45 46  1  0  0  0  0
 44 47  1  0  0  0  0
 47 48  1  0  0  0  0
 33 49  1  0  0  0  0
 49 50  2  0  0  0  0
 50 51  1  0  0  0  0
 51 52  2  0  0  0  0
 52 53  1  0  0  0  0
 53 54  2  0  0  0  0
 54 55  1  0  0  0  0
 55 56  2  0  0  0  0
 56 57  1  0  0  0  0
 57 58  1  0  0  0  0
 58 59  2  0  0  0  0
 59 60  1  0  0  0  0
 60 61  2  0  0  0  0
 61 62  1  0  0  0  0
 62 63  2  0  0  0  0
 57 64  1  0  0  0  0
 64 65  1  0  0  0  0
 65 66  1  0  0  0  0
 64 67  1  0  0  0  0
 67 68  1  0  0  0  0
 53 69  1  0  0  0  0
 69 70  2  0  0  0  0
 70 71  1  0  0  0  0
 71 72  1  0  0  0  0
 72 73  1  0  0  0  0
 73 74  1  0  0  0  0
 74 75  2  0  0  0  0
 75 76  1  0  0  0  0
 76 77  1  0  0  0  0
 77 78  1  0  0  0  0
 76 79  1  0  0  0  0
 79 80  1  0  0  0  0
 76 81  1  0  0  0  0
 81 82  1  0  0  0  0
 75 83  1  0  0  0  0
 83 84  2  0  0  0  0
 84 85  1  0  0  0  0
 84 86  1  0  0  0  0
 86 87  1  0  0  0  0
 87 88  1  0  0  0  0
 88 89  1  0  0  0  0
 89 90  2  0  0  0  0
 90 91  1  0  0  0  0
 91 92  1  0  0  0  0
 92 93  1  0  0  0  0
 91 94  1  0  0  0  0
 94 95  1  0  0  0  0
 91 96  1  0  0  0  0
 96 97  1  0  0  0  0
 90 98  1  0  0  0  0
 98 99  2  0  0  0  0
 99100  1  0  0  0  0
 12  1  2  0  0  0  0
 27 16  2  0  0  0  0
 36 31  1  0  0  0  0
 43 38  1  0  0  0  0
 56 51  1  0  0  0  0
 63 58  1  0  0  0  0
 82 71  2  0  0  0  0
 97 86  2  0  0  0  0
 11  3  2  0  0  0  0
 26 18  2  0  0  0  0
 39 35  1  0  0  0  0
 59 55  1  0  0  0  0
 81 73  2  0  0  0  0
 96 88  2  0  0  0  0
 15  4  1  0  0  0  0
 30 19  1  0  0  0  0
 85 74  1  0  0  0  0
100 89  1  0  0  0  0
  1101  1  0  0  0  0
  7102  1  0  0  0  0
  7103  1  0  0  0  0
  8104  1  0  0  0  0
  8105  1  0  0  0  0
  8106  1  0  0  0  0
  9107  1  0  0  0  0
  9108  1  0  0  0  0
 10109  1  0  0  0  0
 10110  1  0  0  0  0
 10111  1  0  0  0  0
 12112  1  0  0  0  0
 13113  1  0  0  0  0
 22114  1  0  0  0  0
 22115  1  0  0  0  0
 23116  1  0  0  0  0
 23117  1  0  0  0  0
 23118  1  0  0  0  0
 24119  1  0  0  0  0
 24120  1  0  0  0  0
 25121  1  0  0  0  0
 25122  1  0  0  0  0
 25123  1  0  0  0  0
 27124  1  0  0  0  0
 28125  1  0  0  0  0
 32126  1  0  0  0  0
 34127  1  0  0  0  0
 40128  1  0  0  0  0
 41129  1  0  0  0  0
 42130  1  0  0  0  0
 43131  1  0  0  0  0
 44132  1  0  0  0  0
 45133  1  0  0  0  0
 45134  1  0  0  0  0
 46135  1  0  0  0  0
 46136  1  0  0  0  0
 46137  1  0  0  0  0
 47138  1  0  0  0  0
 47139  1  0  0  0  0
 48140  1  0  0  0  0
 48141  1  0  0  0  0
 48142  1  0  0  0  0
 49143  1  0  0  0  0
 50144  1  0  0  0  0
 52145  1  0  0  0  0
 54146  1  0  0  0  0
 60147  1  0  0  0  0
 61148  1  0  0  0  0
 62149  1  0  0  0  0
 63150  1  0  0  0  0
 64151  1  0  0  0  0
 65152  1  0  0  0  0
 65153  1  0  0  0  0
 66154  1  0  0  0  0
 66155  1  0  0  0  0
 66156  1  0  0  0  0
 67157  1  0  0  0  0
 67158  1  0  0  0  0
 68159  1  0  0  0  0
 68160  1  0  0  0  0
 68161  1  0  0  0  0
 69162  1  0  0  0  0
 70163  1  0  0  0  0
 77164  1  0  0  0  0
 77165  1  0  0  0  0
 78166  1  0  0  0  0
 78167  1  0  0  0  0
 78168  1  0  0  0  0
 79169  1  0  0  0  0
 79170  1  0  0  0  0
 80171  1  0  0  0  0
 80172  1  0  0  0  0
 80173  1  0  0  0  0
 82174  1  0  0  0  0
 83175  1  0  0  0  0
 92176  1  0  0  0  0
 92177  1  0  0  0  0
 93178  1  0  0  0  0
 93179  1  0  0  0  0
 93180  1  0  0  0  0
 94181  1  0  0  0  0
 94182  1  0  0  0  0
 95183  1  0  0  0  0
 95184  1  0  0  0  0
 95185  1  0  0  0  0
 97186  1  0  0  0  0
 98187  1  0  0  0  0
 99188  1  0  0  0  0
M  END
