248

C         -1.34040       -6.28290       13.25550
C         -0.45510       -5.65330       12.45660
C         -1.06750       -5.05890       11.31510
C         -0.46160       -4.33450       10.27790
C          0.97810       -4.14100       10.19040
S          2.06180       -5.50310       10.20760
C          3.45010       -4.50760        9.93190
C          4.81040       -5.09440        9.78170
C          5.13720       -5.36290        8.31050
C          3.07980       -3.20000        9.83300
Cl         4.18290       -1.91470        9.55180
C          1.68290       -2.98680        9.98440
Cl         1.00030       -1.41370        9.99360
C         -1.29960       -3.84630        9.28310
C         -2.69940       -4.06320        9.26120
C         -3.29920       -4.80520       10.29070
C         -4.72260       -5.09970       10.27400
S         -5.74610       -4.72940       11.62880
C         -7.15130       -5.35640       10.83770
C         -8.49210       -5.29220       11.48140
C         -9.15520       -3.93550       11.23120
C         -6.83050       -5.81850        9.59600
C         -5.45430       -5.67790        9.27360
Cl        -4.78670       -6.25870        7.80250
Cl        -7.96260       -6.51870        8.51280
C         -2.46750       -5.26400       11.30660
S         -2.97150       -6.20040       12.68560
C         -3.31190       -3.46160        8.12860
C         -2.42660       -2.83530        7.30810
S         -0.77840       -2.95280        7.89230
C         -2.61710       -2.14210        6.07440
C         -1.71550       -1.28310        5.52460
C         -2.06830       -0.84090        4.23020
C         -1.29170       -0.05740        3.36170
C         -0.10570        0.64210        3.81250
S          1.35760        0.66640        2.86900
C          2.17240        1.68050        4.00770
C          3.57020        2.13130        3.76670
C          4.56010        0.96770        3.76730
C          1.35050        1.97020        5.05630
Cl         1.79960        2.95500        6.38900
C          0.05880        1.38970        4.94900
Cl        -1.18030        1.71500        6.09020
C         -1.70550       -0.02770        2.03660
C         -2.89420       -0.63340        1.56860
C         -3.73430       -1.30530        2.47360
C         -4.96800       -1.94490        2.05100
S         -5.00440       -3.06130        0.71670
C         -6.68850       -3.39480        0.93370
C         -7.41530       -4.31260        0.01430
C         -7.79650       -3.59980       -1.28530
C         -7.18220       -2.66660        1.97390
C         -6.20950       -1.85180        2.61470
Cl        -6.59720       -0.80330        3.91300
Cl        -8.81890       -2.71830        2.48710
C         -3.28210       -1.41810        3.78560
S         -3.99650       -2.41180        5.03090
C         -3.01680       -0.51030        0.15240
C         -1.94800        0.08720       -0.42990
S         -0.79700        0.68040        0.74510
C         -1.56740        0.27440       -1.83630
C         -1.96160        1.44070       -2.47170
C         -1.53740        1.79270       -3.75880
C         -0.62450        0.97310       -4.40650
C         -0.19810       -0.18650       -3.78610
C         -0.68660       -0.58340       -2.51750
N         -0.13120       -1.80230       -2.17680
C          0.72170       -2.18710       -3.19400
C          0.72860       -1.19370       -4.20150
C          1.52880       -1.30920       -5.33040
C          2.31240       -2.43450       -5.47070
C          2.27600       -3.43540       -4.50400
C          1.50010       -3.32740       -3.36690
C         -0.57910       -2.60200       -1.04950
C          0.43970       -2.67550        0.10530
C          1.58800       -3.66390       -0.04010
C         -1.13850       -3.96300       -1.48560
C         -2.38470       -3.79290       -2.34720
C         -1.94950        3.05630       -4.34330
C         -2.11650        3.26860       -5.65700
C         -2.35030        4.56300       -6.27570
C         -2.55210        5.67970       -5.47360
C         -2.66410        6.98560       -5.95680
C         -2.86910        7.17570       -7.31830
C         -2.74620        6.07740       -8.15350
C         -2.33900        4.80980       -7.66240
N         -2.05100        3.97620       -8.72710
C         -2.38590        4.64770       -9.89230
C         -2.82570        5.95400       -9.58150
C         -3.22840        6.82440      -10.58410
C         -3.20190        6.38290      -11.89170
C         -2.78690        5.08950      -12.19480
C         -2.37750        4.21040      -11.20960
C         -1.02380        2.94720       -8.67570
C         -1.56020        1.58020       -9.12800
C         -0.75470        0.41850       -8.55750
C          0.22320        3.39270       -9.45500
C          0.75060        4.73410       -8.95670
C         -2.47270        8.09500       -5.03560
C         -1.62140        8.04360       -4.00100
C         -0.77080        6.90920       -3.67270
C         -0.70150        6.25780       -2.48300
C          0.14060        5.11310       -2.49920
C          0.35920        4.18810       -1.47080
C         -0.33460        4.26490       -0.19330
S         -2.07270        4.22540       -0.12390
C         -2.08930        4.24200        1.60560
C         -3.36370        4.17960        2.37320
C         -3.72610        2.73520        2.72630
C         -0.81530        4.27390        2.08680
Cl        -0.42850        4.33650        3.75690
C          0.17910        4.28080        1.07160
Cl         1.84980        4.38290        1.42660
C          1.21910        3.13240       -1.74430
C          1.81430        2.91720       -3.00990
C          1.60610        3.85890       -4.03730
C          2.26780        3.70180       -5.32300
S          2.15450        2.22580       -6.23370
C          3.25880        2.78050       -7.44440
C          3.72020        1.87850       -8.53510
C          4.83900        0.96280       -8.03240
C          3.66580        4.04830       -7.15820
C          3.10260        4.57530       -5.96310
Cl         3.52420        6.12260       -5.35920
Cl         4.76050        4.94410       -8.12960
C          0.78170        4.94180       -3.75250
S          0.30940        6.19660       -4.86360
C          2.59270        1.72970       -3.02520
C          2.60500        1.07470       -1.82800
S          1.66540        1.90100       -0.61370
C          3.31070       -0.10740       -1.44390
C          3.92150       -1.03470       -2.23310
C          4.61880       -2.02990       -1.49980
C          5.40670       -3.08510       -1.99240
C          5.65090       -3.25970       -3.41280
S          5.49010       -4.82680       -4.15200
C          5.89950       -4.22400       -5.72130
C          5.91120       -5.11900       -6.91100
C          4.50360       -5.60500       -7.26020
C          6.15590       -2.88750       -5.65720
Cl         6.61330       -1.93300       -7.00840
C          6.02460       -2.33840       -4.35330
Cl         6.41410       -0.69850       -4.02260
C          5.94690       -3.95700       -1.05090
C          5.75470       -3.80730        0.34170
C          5.00310       -2.72980        0.83740
C          4.83890       -2.56630        2.27820
S          3.28650       -2.63460        3.06320
C          3.98940       -2.52780        4.64400
C          3.15390       -2.58260        5.87590
C          2.16170       -1.42550        5.96040
C          5.34430       -2.41860        4.54870
C          5.82810       -2.44510        3.21250
Cl         7.49320       -2.29350        2.82410
Cl         6.39510       -2.27900        5.89960
C          4.45410       -1.86600       -0.09910
S          3.50820       -0.45400        0.26300
C          6.39970       -4.84390        1.07860
C          7.07000       -5.70670        0.28960
S          6.95610       -5.33500       -1.39580
H         -1.14520       -6.80520       14.17140
H          0.59900       -5.59900       12.65740
H          5.54270       -4.39630       10.19260
H          4.86320       -6.02830       10.34340
H          4.40200       -6.03590        7.87550
H          5.13630       -4.43460        7.74610
H          6.12030       -5.81790        8.22630
H         -8.38560       -5.45190       12.55570
H         -9.11700       -6.08620       11.06850
H         -9.28010       -3.76810       10.16440
H         -8.54240       -3.13540       11.63950
H        -10.13220       -3.90440       11.70550
H         -4.36990       -3.47390        7.94060
H         -0.80060       -1.01240        6.01750
H          3.61670        2.63130        2.79640
H          3.83900        2.85310        4.53990
H          4.28520        0.24490        3.00280
H          4.56960        0.47110        4.73420
H          5.56220        1.33110        3.55690
H         -8.31690       -4.66640        0.51710
H         -6.78270       -5.17190       -0.21630
H         -6.90460       -3.24680       -1.79800
H         -8.32990       -4.28140       -1.94200
H         -8.43700       -2.74730       -1.07370
H         -3.84120       -0.90930       -0.41050
H         -2.62720        2.10980       -1.94520
H         -0.21400        1.25480       -5.36280
H          1.53010       -0.52850       -6.07590
H          2.95080       -2.54930       -6.33440
H          2.86680       -4.32740       -4.64430
H          1.51770       -4.13100       -2.65230
H         -1.43360       -2.05740       -0.64470
H         -0.12340       -2.93420        1.00550
H          0.85040       -1.67520        0.26040
H          2.14790       -3.69630        0.89190
H          2.27050       -3.36390       -0.82870
H          1.22110       -4.66660       -0.24380
H         -0.40070       -4.53770       -2.04030
H         -1.39640       -4.51900       -0.58260
H         -2.15800       -3.21380       -3.23990
H         -3.16690       -3.28120       -1.79000
H         -2.76450       -4.76310       -2.65760
H         -2.08610        3.85010       -3.62280
H         -2.07790        2.41060       -6.31090
H         -2.61330        5.54630       -4.40730
H         -3.05650        8.15840       -7.72320
H         -3.56450        7.82110      -10.34080
H         -3.51520        7.03980      -12.68930
H         -2.78950        4.76180      -13.22420
H         -2.08200        3.20770      -11.47430
H         -0.71340        2.87210       -7.63070
H         -1.55280        1.51800      -10.21680
H         -2.59870        1.49160       -8.79980
H         -1.16150       -0.52700       -8.90790
H         -0.78760        0.41710       -7.47060
H          0.28550        0.47520       -8.86860
H          0.99060        2.63050       -9.31950
H          0.00510        3.46460      -10.52040
H          0.85470        4.73260       -7.87290
H          1.72310        4.94320       -9.39490
H          0.07750        5.54340       -9.22930
H         -3.01600        9.00970       -5.23060
H         -1.54760        8.88540       -3.32370
H         -1.27880        6.54970       -1.62370
H         -4.16570        4.62220        1.77940
H         -3.24780        4.75720        3.29290
H         -3.83290        2.13770        1.82370
H         -4.66490        2.70810        3.27260
H         -2.95190        2.29090        3.34600
H          4.08350        2.48550       -9.36590
H          2.88880        1.26360       -8.88550
H          4.48240        0.34990       -7.20770
H          5.68390        1.55240       -7.68590
H          5.17650        0.30900       -8.83210
H          3.13880        1.38070       -3.88150
H          3.85000       -1.02230       -3.30390
H          6.33400       -4.56840       -7.75290
H          6.54790       -5.98300       -6.70710
H          4.53720       -6.24570       -8.13710
H          3.85060       -4.76180       -7.47080
H          4.08400       -6.17040       -6.43150
H          3.81830       -2.55890        6.74070
H          2.60010       -3.52530        5.89520
H          2.68460       -0.47340        5.99250
H          1.56470       -1.52240        6.86320
H          1.50270       -1.43260        5.09530
H          6.35080       -4.92810        2.14850
H          7.63940       -6.56570        0.58580
