160

C          2.48120       -0.23950        2.68150
S          3.27670        0.00970        4.20360
C          1.75770       -0.08760        5.02070
C          1.17960        0.00440        6.29330
C         -0.19920       -0.19820        6.12200
N         -0.47650       -0.41640        4.79800
C         -1.78170       -0.60050        4.22470
C         -2.49490        0.73270        4.00450
C          0.70890       -0.32760        4.11730
C          1.13610       -0.40140        2.77630
C         -0.93070       -0.10170        7.31830
C         -0.13320        0.20990        8.38560
S          1.56800        0.32370        7.94540
C         -0.52680        0.27090        9.78860
C          0.20390       -0.53260       10.65430
C         -0.18400       -0.82970       11.96370
C         -1.30250       -0.18520       12.47820
C         -1.97980        0.72400       11.68220
C         -1.61680        0.97080       10.33280
N         -2.43630        1.95480        9.81620
C         -3.30600        2.36150       10.80980
C         -3.07850        1.59540       11.97600
C         -3.83860        1.79200       13.12090
C         -4.82220        2.75840       13.10380
C         -5.03710        3.52440       11.96140
C         -4.29190        3.34200       10.81250
C         -2.19310        2.66310        8.57610
C         -3.44990        2.83080        7.70050
C         -4.37860        1.62270        7.71420
C         -1.53190        4.02400        8.85170
C         -0.14960        3.87070        9.47480
C          0.53840       -1.80920       12.76490
C          1.25310       -2.84170       12.29880
C          1.38630       -3.18510       10.89300
S         -0.05640       -3.46720        9.91790
C          0.91370       -3.51530        8.48960
C          0.81510       -3.59660        7.09970
C          2.12700       -3.50970        6.59230
N          3.01530       -3.40600        7.62990
C          4.42820       -3.15450        7.51580
C          4.72840       -1.65920        7.43430
C          2.28260       -3.38580        8.78720
C          2.54040       -3.22060       10.16010
C          2.19070       -3.53970        5.19460
C          0.94150       -3.64640        4.63040
S         -0.34800       -3.71940        5.83280
C          0.60740       -3.62310        3.25210
S          1.88320       -3.50600        2.04430
C          0.69820       -3.33880        0.79970
C          0.57520       -3.08270       -0.56710
C         -0.80510       -3.02950       -0.84770
N         -1.51960       -3.23160        0.30680
C         -2.94800       -3.36120        0.41550
C         -3.40070       -4.80470        0.20220
C         -0.61010       -3.43060        1.31440
C         -0.65480       -3.59870        2.70270
C         -1.09500       -2.71220       -2.17850
C          0.05310       -2.51520       -2.91650
S          1.51900       -2.74900       -1.97120
C          0.14630       -2.09280       -4.27170
S          1.72740       -1.85110       -5.00460
C          0.98320       -1.27190       -6.44790
C          1.28860       -0.73410       -7.70190
C          0.06330       -0.44090       -8.32640
N         -0.97510       -0.81100       -7.50930
C         -2.37190       -0.54730       -7.73080
C         -2.78480        0.81170       -7.16730
C         -0.42110       -1.29280       -6.34980
C         -0.89040       -1.76230       -5.11800
C          0.21050        0.15090       -9.59200
C          1.52920        0.29950       -9.93230
S          2.62890       -0.27960       -8.69030
C          2.04470        1.00020      -11.10120
C          2.93240        2.04950      -10.89350
C          3.35080        2.92220      -11.90410
C          2.82770        2.75520      -13.18240
C          1.98060        1.68970      -13.43110
C          1.62040        0.76880      -12.41680
N          0.83780       -0.23310      -12.95650
C          0.66090        0.04470      -14.30070
C          1.33680        1.24080      -14.63210
C          1.29410        1.74740      -15.92350
C          0.57460        1.06040      -16.87940
C         -0.09290       -0.11660      -16.55180
C         -0.06090       -0.63740      -15.27230
C          0.68280       -1.55840      -12.37710
C          1.65140       -2.52180      -13.08410
C          1.75600       -3.87910      -12.40230
C         -0.78570       -2.02070      -12.40010
C         -1.21760       -2.70120      -11.10460
C          4.28530        3.98490      -11.55830
C          4.83450        4.86180      -12.39050
H          3.08110       -0.26030        1.79390
H         -1.65830       -1.12350        3.27290
H         -2.36650       -1.23510        4.89800
H         -2.60850        1.25800        4.94950
H         -3.48010        0.56550        3.57720
H         -1.91950        1.35920        3.32670
H          0.49650       -0.56650        1.92790
H         -1.98620       -0.27900        7.41290
H          1.11260       -0.96450       10.26950
H         -1.64060       -0.38470       13.48400
H         -3.65780        1.19760       14.00380
H         -5.42900        2.92980       13.98030
H         -5.80590        4.28340       11.97160
H         -4.48970        3.96100        9.95360
H         -1.47790        2.05520        8.01830
H         -4.00970        3.71420        8.00850
H         -3.10900        3.01650        6.67870
H         -5.21360        1.78870        7.03690
H         -4.77620        1.45090        8.71120
H         -3.85640        0.72460        7.39560
H         -1.44740        4.56130        7.90480
H         -2.16790        4.61000        9.51770
H         -0.21120        3.35580       10.43100
H          0.50600        3.29970        8.82060
H          0.29880        4.84690        9.64240
H          0.46370       -1.67710       13.83700
H          1.79450       -3.47110       12.99510
H          4.92310       -3.59190        8.38770
H          4.79320       -3.66040        6.61800
H          4.34840       -1.14840        8.31600
H          4.25540       -1.22570        6.55670
H          5.80050       -1.49640        7.36750
H          3.51210       -3.06380       10.59340
H          3.08690       -3.46870        4.60490
H         -3.40840       -2.70830       -0.33140
H         -3.24890       -3.01870        1.40990
H         -3.09950       -5.15070       -0.78380
H         -2.94860       -5.45300        0.94900
H         -4.48180       -4.87490        0.28460
H         -1.54490       -3.68820        3.29920
H         -2.08310       -2.61790       -2.58910
H         -2.95020       -1.34380       -7.25350
H         -2.56190       -0.57910       -8.80700
H         -2.59110        0.84900       -6.09780
H         -2.21770        1.60530       -7.64820
H         -3.84390        0.98310       -7.33940
H         -1.92560       -1.84260       -4.84270
H         -0.59220        0.48330      -10.22570
H          3.28850        2.21430       -9.88600
H          3.07720        3.43630      -13.97970
H          1.81190        2.66260      -16.16820
H          0.52350        1.43560      -17.89070
H         -0.65210       -0.63630      -17.31630
H         -0.59530       -1.54660      -15.05150
H          1.00120       -1.47760      -11.33500
H          1.34550       -2.65530      -14.12320
H          2.63830       -2.05060      -13.09050
H          2.00580       -3.76090      -11.35000
H          2.53730       -4.47040      -12.87400
H          0.82320       -4.43110      -12.48130
H         -0.94840       -2.71150      -13.22890
H         -1.41990       -1.14700      -12.56780
H         -2.27140       -2.96780      -11.15720
H         -1.07070       -2.04090      -10.25450
H         -0.64600       -3.60730      -10.92750
H          4.54460        4.02970      -10.50720
H          4.63060        4.87000      -13.44750
H          5.52120        5.61250      -12.03870
