
  xtb     02282220033D
 energy: -207.582323584333 gnorm: 0.000222807114 xtb: 6.4.1 (unknown)
122139  0     0  0            999 V2000
   -4.3031   -0.7852  -16.7548 C   0  0  0  0  0  0  0  0  0  0  0  0
   -5.1088   -2.1470  -16.0404 S   0  0  0  0  0  0  0  0  0  0  0  0
   -5.1075   -1.3481  -14.5098 C   0  0  0  0  0  0  0  0  0  0  0  0
   -5.5024   -1.5171  -13.1789 C   0  0  0  0  0  0  0  0  0  0  0  0
   -5.1224   -0.3468  -12.4954 C   0  0  0  0  0  0  0  0  0  0  0  0
   -4.4973    0.5135  -13.3592 N   0  0  0  0  0  0  0  0  0  0  0  0
   -4.0323    1.8385  -13.0453 C   0  0  0  0  0  0  0  0  0  0  0  0
   -5.1469    2.8747  -13.1798 C   0  0  0  0  0  0  0  0  0  0  0  0
   -4.4990   -0.0831  -14.5927 C   0  0  0  0  0  0  0  0  0  0  0  0
   -4.0407    0.2287  -15.8881 C   0  0  0  0  0  0  0  0  0  0  0  0
   -5.4431   -0.3632  -11.1325 C   0  0  0  0  0  0  0  0  0  0  0  0
   -6.0578   -1.5383  -10.7684 C   0  0  0  0  0  0  0  0  0  0  0  0
   -6.2617   -2.6504  -12.1205 S   0  0  0  0  0  0  0  0  0  0  0  0
   -6.4715   -1.9156   -9.4627 C   0  0  0  0  0  0  0  0  0  0  0  0
   -6.2786   -0.7611   -8.1446 S   0  0  0  0  0  0  0  0  0  0  0  0
   -6.8588   -1.9352   -7.0244 C   0  0  0  0  0  0  0  0  0  0  0  0
   -7.0573   -2.1287   -5.6588 C   0  0  0  0  0  0  0  0  0  0  0  0
   -7.5067   -3.4548   -5.4955 C   0  0  0  0  0  0  0  0  0  0  0  0
   -7.5832   -4.0669   -6.7217 N   0  0  0  0  0  0  0  0  0  0  0  0
   -8.0799   -5.3904   -6.9872 C   0  0  0  0  0  0  0  0  0  0  0  0
   -9.5888   -5.3871   -7.2274 C   0  0  0  0  0  0  0  0  0  0  0  0
   -7.1948   -3.1457   -7.6616 C   0  0  0  0  0  0  0  0  0  0  0  0
   -6.9790   -3.1249   -9.0455 C   0  0  0  0  0  0  0  0  0  0  0  0
   -7.6673   -3.8267   -4.1544 C   0  0  0  0  0  0  0  0  0  0  0  0
   -7.3402   -2.7962   -3.2984 C   0  0  0  0  0  0  0  0  0  0  0  0
   -6.8648   -1.3285   -4.1474 S   0  0  0  0  0  0  0  0  0  0  0  0
   -7.2065   -2.8171   -1.8818 C   0  0  0  0  0  0  0  0  0  0  0  0
   -6.7221   -1.3294   -1.0762 S   0  0  0  0  0  0  0  0  0  0  0  0
   -6.5036   -2.1904    0.3971 C   0  0  0  0  0  0  0  0  0  0  0  0
   -5.9646   -2.0270    1.6705 C   0  0  0  0  0  0  0  0  0  0  0  0
   -5.9873   -3.2915    2.2918 C   0  0  0  0  0  0  0  0  0  0  0  0
   -6.5388   -4.2119    1.4333 N   0  0  0  0  0  0  0  0  0  0  0  0
   -6.8126   -5.5929    1.7258 C   0  0  0  0  0  0  0  0  0  0  0  0
   -8.2050   -5.7755    2.3286 C   0  0  0  0  0  0  0  0  0  0  0  0
   -6.8469   -3.5509    0.2687 C   0  0  0  0  0  0  0  0  0  0  0  0
   -7.2556   -3.8984   -1.0258 C   0  0  0  0  0  0  0  0  0  0  0  0
   -5.3133   -3.3166    3.5205 C   0  0  0  0  0  0  0  0  0  0  0  0
   -4.7687   -2.0862    3.8270 C   0  0  0  0  0  0  0  0  0  0  0  0
   -5.1548   -0.8526    2.6312 S   0  0  0  0  0  0  0  0  0  0  0  0
   -3.8078   -1.7561    4.8239 C   0  0  0  0  0  0  0  0  0  0  0  0
   -3.1053   -0.1422    4.7730 S   0  0  0  0  0  0  0  0  0  0  0  0
   -1.8960   -0.6252    5.8966 C   0  0  0  0  0  0  0  0  0  0  0  0
   -0.6887   -0.1864    6.4339 C   0  0  0  0  0  0  0  0  0  0  0  0
   -0.1645   -1.2537    7.1898 C   0  0  0  0  0  0  0  0  0  0  0  0
   -1.0271   -2.3217    7.1321 N   0  0  0  0  0  0  0  0  0  0  0  0
   -0.8881   -3.5666    7.8384 C   0  0  0  0  0  0  0  0  0  0  0  0
   -1.5172   -3.4981    9.2294 C   0  0  0  0  0  0  0  0  0  0  0  0
   -2.0825   -1.9518    6.3337 C   0  0  0  0  0  0  0  0  0  0  0  0
   -3.1753   -2.5859    5.7271 C   0  0  0  0  0  0  0  0  0  0  0  0
    1.1328   -1.0128    7.6613 C   0  0  0  0  0  0  0  0  0  0  0  0
    1.6012    0.2196    7.2537 C   0  0  0  0  0  0  0  0  0  0  0  0
    0.4094    1.1346    6.3376 S   0  0  0  0  0  0  0  0  0  0  0  0
    2.9203    0.7453    7.3462 C   0  0  0  0  0  0  0  0  0  0  0  0
    3.2903    2.2084    6.4386 S   0  0  0  0  0  0  0  0  0  0  0  0
    4.9595    2.0351    6.8204 C   0  0  0  0  0  0  0  0  0  0  0  0
    6.2046    2.5914    6.5330 C   0  0  0  0  0  0  0  0  0  0  0  0
    7.1665    1.8031    7.1944 C   0  0  0  0  0  0  0  0  0  0  0  0
    6.5385    0.8064    7.8986 N   0  0  0  0  0  0  0  0  0  0  0  0
    7.1869   -0.2761    8.5900 C   0  0  0  0  0  0  0  0  0  0  0  0
    7.5008   -1.4374    7.6477 C   0  0  0  0  0  0  0  0  0  0  0  0
    5.1933    0.9183    7.6481 C   0  0  0  0  0  0  0  0  0  0  0  0
    4.0329    0.1921    7.9447 C   0  0  0  0  0  0  0  0  0  0  0  0
    8.4848    2.1973    6.9334 C   0  0  0  0  0  0  0  0  0  0  0  0
    8.5335    3.2700    6.0724 C   0  0  0  0  0  0  0  0  0  0  0  0
    6.9349    3.8370    5.5921 S   0  0  0  0  0  0  0  0  0  0  0  0
    9.6790    3.8976    5.5136 C   0  0  0  0  0  0  0  0  0  0  0  0
   11.2953    3.3733    5.9823 S   0  0  0  0  0  0  0  0  0  0  0  0
   11.9919    4.5055    4.8806 C   0  0  0  0  0  0  0  0  0  0  0  0
   13.2251    4.9571    4.4002 C   0  0  0  0  0  0  0  0  0  0  0  0
   12.9467    5.9485    3.4425 C   0  0  0  0  0  0  0  0  0  0  0  0
   11.5913    6.1032    3.3145 N   0  0  0  0  0  0  0  0  0  0  0  0
   10.9098    7.0672    2.4919 C   0  0  0  0  0  0  0  0  0  0  0  0
   10.6575    8.3730    3.2437 C   0  0  0  0  0  0  0  0  0  0  0  0
   11.0023    5.2393    4.1999 C   0  0  0  0  0  0  0  0  0  0  0  0
    9.6955    4.8935    4.5652 C   0  0  0  0  0  0  0  0  0  0  0  0
   14.1057    6.4996    2.8608 C   0  0  0  0  0  0  0  0  0  0  0  0
   15.2273    5.9296    3.3756 C   0  0  0  0  0  0  0  0  0  0  0  0
   14.9252    4.7119    4.5756 S   0  0  0  0  0  0  0  0  0  0  0  0
   -4.0710   -0.8261  -17.8003 H   0  0  0  0  0  0  0  0  0  0  0  0
   -3.6493    1.8330  -12.0208 H   0  0  0  0  0  0  0  0  0  0  0  0
   -3.2090    2.0812  -13.7226 H   0  0  0  0  0  0  0  0  0  0  0  0
   -5.9651    2.6352  -12.5048 H   0  0  0  0  0  0  0  0  0  0  0  0
   -5.5300    2.8862  -14.1977 H   0  0  0  0  0  0  0  0  0  0  0  0
   -4.7691    3.8637  -12.9354 H   0  0  0  0  0  0  0  0  0  0  0  0
   -3.5493    1.1424  -16.1698 H   0  0  0  0  0  0  0  0  0  0  0  0
   -5.2394    0.4248  -10.4301 H   0  0  0  0  0  0  0  0  0  0  0  0
   -7.5615   -5.7805   -7.8675 H   0  0  0  0  0  0  0  0  0  0  0  0
   -7.8367   -6.0253   -6.1307 H   0  0  0  0  0  0  0  0  0  0  0  0
   -9.8309   -4.7583   -8.0809 H   0  0  0  0  0  0  0  0  0  0  0  0
   -9.9392   -6.3965   -7.4250 H   0  0  0  0  0  0  0  0  0  0  0  0
  -10.1077   -4.9991   -6.3538 H   0  0  0  0  0  0  0  0  0  0  0  0
   -7.1585   -3.9399   -9.7233 H   0  0  0  0  0  0  0  0  0  0  0  0
   -7.9859   -4.7948   -3.8138 H   0  0  0  0  0  0  0  0  0  0  0  0
   -6.7286   -6.1637    0.7967 H   0  0  0  0  0  0  0  0  0  0  0  0
   -6.0517   -5.9528    2.4240 H   0  0  0  0  0  0  0  0  0  0  0  0
   -8.3881   -6.8256    2.5399 H   0  0  0  0  0  0  0  0  0  0  0  0
   -8.2903   -5.2107    3.2539 H   0  0  0  0  0  0  0  0  0  0  0  0
   -8.9634   -5.4190    1.6355 H   0  0  0  0  0  0  0  0  0  0  0  0
   -7.5302   -4.8871   -1.3447 H   0  0  0  0  0  0  0  0  0  0  0  0
   -5.1842   -4.1860    4.1387 H   0  0  0  0  0  0  0  0  0  0  0  0
   -1.3689   -4.3513    7.2477 H   0  0  0  0  0  0  0  0  0  0  0  0
    0.1777   -3.7977    7.9202 H   0  0  0  0  0  0  0  0  0  0  0  0
   -1.0401   -2.7187    9.8189 H   0  0  0  0  0  0  0  0  0  0  0  0
   -2.5778   -3.2708    9.1508 H   0  0  0  0  0  0  0  0  0  0  0  0
   -1.3988   -4.4487    9.7425 H   0  0  0  0  0  0  0  0  0  0  0  0
   -3.4708   -3.6056    5.8938 H   0  0  0  0  0  0  0  0  0  0  0  0
    1.7239   -1.7063    8.2308 H   0  0  0  0  0  0  0  0  0  0  0  0
    6.5267   -0.6119    9.3946 H   0  0  0  0  0  0  0  0  0  0  0  0
    8.1100    0.1061    9.0343 H   0  0  0  0  0  0  0  0  0  0  0  0
    7.9864   -2.2422    8.1929 H   0  0  0  0  0  0  0  0  0  0  0  0
    6.5847   -1.8170    7.2010 H   0  0  0  0  0  0  0  0  0  0  0  0
    8.1614   -1.1050    6.8505 H   0  0  0  0  0  0  0  0  0  0  0  0
    3.9972   -0.7015    8.5402 H   0  0  0  0  0  0  0  0  0  0  0  0
    9.3709    1.7280    7.3212 H   0  0  0  0  0  0  0  0  0  0  0  0
    9.9593    6.6318    2.1704 H   0  0  0  0  0  0  0  0  0  0  0  0
   11.5229    7.2551    1.6063 H   0  0  0  0  0  0  0  0  0  0  0  0
   10.1410    9.0805    2.6008 H   0  0  0  0  0  0  0  0  0  0  0  0
   10.0459    8.1872    4.1233 H   0  0  0  0  0  0  0  0  0  0  0  0
   11.5998    8.8118    3.5637 H   0  0  0  0  0  0  0  0  0  0  0  0
    8.7964    5.3271    4.1663 H   0  0  0  0  0  0  0  0  0  0  0  0
   14.1180    7.2694    2.1106 H   0  0  0  0  0  0  0  0  0  0  0  0
   16.2455    6.1502    3.1239 H   0  0  0  0  0  0  0  0  0  0  0  0
  1  2  1  0  0  0  0
  2  3  1  0  0  0  0
  3  4  1  0  0  0  0
  4  5  2  0  0  0  0
  5  6  1  0  0  0  0
  6  7  1  0  0  0  0
  7  8  1  0  0  0  0
  6  9  1  0  0  0  0
  9 10  1  0  0  0  0
  5 11  1  0  0  0  0
 11 12  2  0  0  0  0
 12 13  1  0  0  0  0
 12 14  1  0  0  0  0
 14 15  1  0  0  0  0
 15 16  1  0  0  0  0
 16 17  1  0  0  0  0
 17 18  2  0  0  0  0
 18 19  1  0  0  0  0
 19 20  1  0  0  0  0
 20 21  1  0  0  0  0
 19 22  1  0  0  0  0
 22 23  1  0  0  0  0
 18 24  1  0  0  0  0
 24 25  2  0  0  0  0
 25 26  1  0  0  0  0
 25 27  1  0  0  0  0
 27 28  1  0  0  0  0
 28 29  1  0  0  0  0
 29 30  1  0  0  0  0
 30 31  2  0  0  0  0
 31 32  1  0  0  0  0
 32 33  1  0  0  0  0
 33 34  1  0  0  0  0
 32 35  1  0  0  0  0
 35 36  1  0  0  0  0
 31 37  1  0  0  0  0
 37 38  2  0  0  0  0
 38 39  1  0  0  0  0
 38 40  1  0  0  0  0
 40 41  1  0  0  0  0
 41 42  1  0  0  0  0
 42 43  1  0  0  0  0
 43 44  2  0  0  0  0
 44 45  1  0  0  0  0
 45 46  1  0  0  0  0
 46 47  1  0  0  0  0
 45 48  1  0  0  0  0
 48 49  1  0  0  0  0
 44 50  1  0  0  0  0
 50 51  2  0  0  0  0
 51 52  1  0  0  0  0
 51 53  1  0  0  0  0
 53 54  1  0  0  0  0
 54 55  1  0  0  0  0
 55 56  1  0  0  0  0
 56 57  2  0  0  0  0
 57 58  1  0  0  0  0
 58 59  1  0  0  0  0
 59 60  1  0  0  0  0
 58 61  1  0  0  0  0
 61 62  1  0  0  0  0
 57 63  1  0  0  0  0
 63 64  2  0  0  0  0
 64 65  1  0  0  0  0
 64 66  1  0  0  0  0
 66 67  1  0  0  0  0
 67 68  1  0  0  0  0
 68 69  1  0  0  0  0
 69 70  2  0  0  0  0
 70 71  1  0  0  0  0
 71 72  1  0  0  0  0
 72 73  1  0  0  0  0
 71 74  1  0  0  0  0
 74 75  1  0  0  0  0
 70 76  1  0  0  0  0
 76 77  2  0  0  0  0
 77 78  1  0  0  0  0
 10  1  2  0  0  0  0
 23 14  2  0  0  0  0
 36 27  2  0  0  0  0
 49 40  2  0  0  0  0
 62 53  2  0  0  0  0
 75 66  2  0  0  0  0
  9  3  2  0  0  0  0
 22 16  2  0  0  0  0
 35 29  2  0  0  0  0
 48 42  2  0  0  0  0
 61 55  2  0  0  0  0
 74 68  2  0  0  0  0
 13  4  1  0  0  0  0
 26 17  1  0  0  0  0
 39 30  1  0  0  0  0
 52 43  1  0  0  0  0
 65 56  1  0  0  0  0
 78 69  1  0  0  0  0
  1 79  1  0  0  0  0
  7 80  1  0  0  0  0
  7 81  1  0  0  0  0
  8 82  1  0  0  0  0
  8 83  1  0  0  0  0
  8 84  1  0  0  0  0
 10 85  1  0  0  0  0
 11 86  1  0  0  0  0
 20 87  1  0  0  0  0
 20 88  1  0  0  0  0
 21 89  1  0  0  0  0
 21 90  1  0  0  0  0
 21 91  1  0  0  0  0
 23 92  1  0  0  0  0
 24 93  1  0  0  0  0
 33 94  1  0  0  0  0
 33 95  1  0  0  0  0
 34 96  1  0  0  0  0
 34 97  1  0  0  0  0
 34 98  1  0  0  0  0
 36 99  1  0  0  0  0
 37100  1  0  0  0  0
 46101  1  0  0  0  0
 46102  1  0  0  0  0
 47103  1  0  0  0  0
 47104  1  0  0  0  0
 47105  1  0  0  0  0
 49106  1  0  0  0  0
 50107  1  0  0  0  0
 59108  1  0  0  0  0
 59109  1  0  0  0  0
 60110  1  0  0  0  0
 60111  1  0  0  0  0
 60112  1  0  0  0  0
 62113  1  0  0  0  0
 63114  1  0  0  0  0
 72115  1  0  0  0  0
 72116  1  0  0  0  0
 73117  1  0  0  0  0
 73118  1  0  0  0  0
 73119  1  0  0  0  0
 75120  1  0  0  0  0
 76121  1  0  0  0  0
 77122  1  0  0  0  0
M  END
