160

C          6.29710       11.30740        3.59730
S          7.20600        9.83880        3.42150
C          5.77220        8.91650        3.69340
C          5.30990        7.59960        3.77940
C          3.92930        7.67280        4.04160
N          3.53770        8.98490        4.09860
C          2.22620        9.46330        4.44710
C          2.05850        9.59250        5.96020
C          4.65920        9.74880        3.90550
C          4.97400       11.12110        3.84800
C          3.31230        6.41990        4.15830
C          4.21080        5.39380        3.98730
S          5.84980        5.96410        3.67550
C          3.95170        3.99690        4.02960
S          2.31050        3.42410        4.32420
C          2.84870        1.78940        4.19560
C          2.38180        0.47240        4.24170
C          3.49340       -0.35710        4.01420
N          4.61970        0.40680        3.85580
C          5.93460       -0.07310        3.52300
C          6.13090       -0.17920        2.01170
C          4.23200        1.71890        3.94370
C          4.85050        2.97220        3.85110
C          3.17690       -1.72790        4.01110
C          1.84980       -1.94400        4.25670
S          0.93700       -0.45030        4.45380
C          1.15680       -3.22530        4.16010
C          0.19420       -3.32090        3.16200
C         -0.39380       -4.52290        2.75690
C          0.01540       -5.69440        3.38230
C          0.91790       -5.61990        4.42820
C          1.46390       -4.38930        4.88190
N          2.25500       -4.62870        5.99420
C          2.26740       -5.99470        6.21840
C          1.45970       -6.64890        5.26500
C          1.31790       -8.02970        5.27790
C          1.98920       -8.75280        6.24200
C          2.78820       -8.10720        7.18180
C          2.93780       -6.73370        7.18570
C          2.63710       -3.71920        7.06550
C          1.50200       -2.73840        7.39190
C          1.62770       -2.15120        8.79230
C          3.97850       -3.00730        6.83220
C          5.05940       -3.94340        6.30500
C         -1.36780       -4.49240        1.67940
C         -1.71130       -5.52590        0.90530
C         -2.64520       -5.41360       -0.21710
C         -2.46340       -4.37180       -1.11460
C         -3.22550       -4.19250       -2.27990
C         -4.21630       -5.12800       -2.56960
C         -4.44260       -6.16350       -1.68090
C         -3.69040       -6.30960       -0.48870
N         -4.18310       -7.37590        0.23350
C         -5.22480       -7.93910       -0.47810
C         -5.40940       -7.22260       -1.68380
C         -6.39150       -7.59260       -2.59180
C         -7.18830       -8.67950       -2.29800
C         -7.00690       -9.38660       -1.11290
C         -6.03530       -9.03300       -0.19630
C         -3.84330       -7.67290        1.60920
C         -5.03320       -7.39850        2.54280
C         -5.45160       -5.93360        2.49280
C         -3.28840       -9.09580        1.78050
C         -2.12740       -9.38820        0.83730
C         -2.93700       -3.04710       -3.11060
C         -3.54570       -2.71300       -4.26500
C         -3.24710       -1.54900       -5.03370
S         -4.13660       -1.29560       -6.53480
C         -3.29590        0.18360       -6.80850
C         -3.20680        1.24940       -7.70660
C         -2.23310        2.13000       -7.19420
N         -1.71560        1.62250       -6.02970
C         -0.79290        2.28570       -5.14830
C         -1.51940        3.17270       -4.13780
C         -2.37320        0.44550       -5.77560
C         -2.34960       -0.53500       -4.77870
C         -2.03290        3.26660       -7.98400
C         -2.84600        3.26310       -9.09750
S         -3.87500        1.83870       -9.18370
C         -2.92040        4.25600      -10.11480
S         -4.05490        4.06350      -11.44550
C         -3.52910        5.55740      -12.12750
C         -3.75000        6.40920      -13.21530
C         -2.87560        7.49840      -13.06030
N         -2.14600        7.34870      -11.90880
C         -1.07380        8.19750      -11.46360
C          0.26680        7.77160      -12.06110
C         -2.52540        6.15760      -11.34450
C         -2.18380        5.41700      -10.20600
C         -2.98290        8.44890      -14.09470
C         -3.92140        8.07390      -15.00440
S         -4.70550        6.56780      -14.64420
H          6.81830       12.23890        3.50190
H          1.48880        8.76180        4.04710
H          2.07760       10.43490        3.96790
H          2.79040       10.28940        6.36200
H          1.06180        9.95480        6.19680
H          2.20300        8.62610        6.43750
H          4.27380       11.92520        3.98450
H          2.26970        6.24920        4.35760
H          6.06770       -1.05390        3.98850
H          6.66840        0.61700        3.94870
H          6.00560        0.79620        1.54730
H          7.12850       -0.54770        1.78920
H          5.40060       -0.86250        1.58440
H          5.89400        3.14520        3.65900
H          3.86890       -2.52450        3.80490
H         -0.07030       -2.41600        2.63280
H         -0.37910       -6.65450        3.08830
H          0.69830       -8.52300        4.54410
H          1.90030       -9.82840        6.27100
H          3.30800       -8.69420        7.92490
H          3.57360       -6.27040        7.92490
H          2.76100       -4.36240        7.94410
H          0.55240       -3.27420        7.31430
H          1.48640       -1.92640        6.66730
H          0.77670       -1.50730        9.00010
H          2.53190       -1.55560        8.88650
H          1.65150       -2.93930        9.54230
H          3.83990       -2.18030        6.13750
H          4.30310       -2.58700        7.78540
H          5.26180       -4.74300        7.01330
H          5.98410       -3.39430        6.14060
H          4.75340       -4.39600        5.36420
H         -1.83650       -3.53160        1.50520
H         -1.22680       -6.48450        1.03390
H         -1.66110       -3.67490       -0.91640
H         -4.81410       -5.05130       -3.46330
H         -6.52240       -7.03850       -3.50910
H         -7.95820       -8.98910       -2.98880
H         -7.64090      -10.23570       -0.90240
H         -5.92900       -9.61180        0.70700
H         -3.05800       -6.96460        1.88740
H         -4.73430       -7.65850        3.56030
H         -5.88190       -8.02570        2.27090
H         -6.27350       -5.75110        3.18060
H         -5.77850       -5.66070        1.49180
H         -4.61990       -5.28830        2.76950
H         -2.95740       -9.20560        2.81560
H         -4.07590       -9.82900        1.60910
H         -1.28320       -8.73320        1.04110
H         -2.42990       -9.24690       -0.19790
H         -1.79370      -10.41600        0.95910
H         -2.15290       -2.40240       -2.73540
H         -4.32550       -3.34030       -4.67270
H         -0.11150        2.88780       -5.75580
H         -0.20920        1.52260       -4.62580
H         -0.80320        3.65940       -3.48130
H         -2.09770        3.93480       -4.65500
H         -2.19870        2.57470       -3.53490
H         -1.71880       -0.50880       -3.90960
H         -1.33940        4.05660       -7.76280
H         -1.30550        9.22530      -11.75660
H         -1.02990        8.14980      -10.37190
H          0.49720        6.74830      -11.77380
H          0.22760        7.82420      -13.14660
H          1.06040        8.42370      -11.70630
H         -1.44020        5.70240       -9.48520
H         -2.40590        9.35280      -14.17060
H         -4.21430        8.59760      -15.89250
