
  xtb     02282219233D
 energy: -350.960725888255 gnorm: 0.000548245279 xtb: 6.4.1 (unknown)
242263  0     0  0            999 V2000
    2.6387   -2.7326    7.9154 C   0  0  0  0  0  0  0  0  0  0  0  0
    1.7270   -3.7431    7.6929 C   0  0  0  0  0  0  0  0  0  0  0  0
    0.6805   -3.6143    6.7676 C   0  0  0  0  0  0  0  0  0  0  0  0
    0.5458   -2.4245    6.0587 C   0  0  0  0  0  0  0  0  0  0  0  0
    1.4309   -1.3879    6.2935 C   0  0  0  0  0  0  0  0  0  0  0  0
    2.4930   -1.5405    7.2142 C   0  0  0  0  0  0  0  0  0  0  0  0
    3.2502   -0.3904    7.2423 N   0  0  0  0  0  0  0  0  0  0  0  0
    2.7110    0.5049    6.3397 C   0  0  0  0  0  0  0  0  0  0  0  0
    1.5612   -0.0716    5.7438 C   0  0  0  0  0  0  0  0  0  0  0  0
    0.8102    0.6288    4.8097 C   0  0  0  0  0  0  0  0  0  0  0  0
    1.2143    1.8987    4.4535 C   0  0  0  0  0  0  0  0  0  0  0  0
    2.3550    2.4588    5.0224 C   0  0  0  0  0  0  0  0  0  0  0  0
    3.1101    1.7824    5.9618 C   0  0  0  0  0  0  0  0  0  0  0  0
    4.4398   -0.2760    8.0612 C   0  0  0  0  0  0  0  0  0  0  0  0
    4.6390    1.1232    8.6597 C   0  0  0  0  0  0  0  0  0  0  0  0
    5.3048    1.0548   10.0301 C   0  0  0  0  0  0  0  0  0  0  0  0
    5.6764   -0.8044    7.3073 C   0  0  0  0  0  0  0  0  0  0  0  0
    5.9566   -0.1127    5.9789 C   0  0  0  0  0  0  0  0  0  0  0  0
   -0.2723   -4.6795    6.5075 C   0  0  0  0  0  0  0  0  0  0  0  0
   -0.6423   -5.6557    7.3423 C   0  0  0  0  0  0  0  0  0  0  0  0
   -1.7071   -6.5983    6.9881 C   0  0  0  0  0  0  0  0  0  0  0  0
   -2.8495   -6.0638    6.4087 C   0  0  0  0  0  0  0  0  0  0  0  0
   -3.9530   -6.8194    5.9954 C   0  0  0  0  0  0  0  0  0  0  0  0
   -3.9557   -8.1851    6.2476 C   0  0  0  0  0  0  0  0  0  0  0  0
   -2.8401   -8.7520    6.8418 C   0  0  0  0  0  0  0  0  0  0  0  0
   -1.6933   -7.9884    7.1770 C   0  0  0  0  0  0  0  0  0  0  0  0
   -0.7075   -8.8327    7.6459 N   0  0  0  0  0  0  0  0  0  0  0  0
   -1.2017  -10.1216    7.6474 C   0  0  0  0  0  0  0  0  0  0  0  0
   -2.5328  -10.1132    7.1679 C   0  0  0  0  0  0  0  0  0  0  0  0
   -3.2673  -11.2874    7.0763 C   0  0  0  0  0  0  0  0  0  0  0  0
   -2.6749  -12.4703    7.4658 C   0  0  0  0  0  0  0  0  0  0  0  0
   -1.3663  -12.4802    7.9405 C   0  0  0  0  0  0  0  0  0  0  0  0
   -0.6191  -11.3222    8.0381 C   0  0  0  0  0  0  0  0  0  0  0  0
    0.6791   -8.4598    7.8294 C   0  0  0  0  0  0  0  0  0  0  0  0
    1.1629   -8.7083    9.2663 C   0  0  0  0  0  0  0  0  0  0  0  0
    0.2806   -8.0215   10.3022 C   0  0  0  0  0  0  0  0  0  0  0  0
    1.5774   -9.1432    6.7858 C   0  0  0  0  0  0  0  0  0  0  0  0
    1.1768   -8.7534    5.3675 C   0  0  0  0  0  0  0  0  0  0  0  0
   -4.9890   -6.1193    5.2603 C   0  0  0  0  0  0  0  0  0  0  0  0
   -5.8882   -6.6529    4.4284 C   0  0  0  0  0  0  0  0  0  0  0  0
   -6.7111   -5.8123    3.5527 C   0  0  0  0  0  0  0  0  0  0  0  0
   -6.0513   -4.8437    2.8122 C   0  0  0  0  0  0  0  0  0  0  0  0
   -6.6771   -4.0209    1.8642 C   0  0  0  0  0  0  0  0  0  0  0  0
   -8.0410   -4.1976    1.6332 C   0  0  0  0  0  0  0  0  0  0  0  0
   -8.7366   -5.1393    2.3712 C   0  0  0  0  0  0  0  0  0  0  0  0
   -8.0922   -5.9355    3.3516 C   0  0  0  0  0  0  0  0  0  0  0  0
   -9.0194   -6.7437    3.9671 N   0  0  0  0  0  0  0  0  0  0  0  0
  -10.2511   -6.5081    3.3917 C   0  0  0  0  0  0  0  0  0  0  0  0
  -10.1194   -5.5224    2.3860 C   0  0  0  0  0  0  0  0  0  0  0  0
  -11.2218   -5.1157    1.6472 C   0  0  0  0  0  0  0  0  0  0  0  0
  -12.4454   -5.6959    1.9114 C   0  0  0  0  0  0  0  0  0  0  0  0
  -12.5706   -6.6722    2.8967 C   0  0  0  0  0  0  0  0  0  0  0  0
  -11.4867   -7.0910    3.6440 C   0  0  0  0  0  0  0  0  0  0  0  0
   -8.7965   -7.5000    5.1825 C   0  0  0  0  0  0  0  0  0  0  0  0
   -9.1477   -8.9900    4.9967 C   0  0  0  0  0  0  0  0  0  0  0  0
   -7.9865   -9.9131    5.3510 C   0  0  0  0  0  0  0  0  0  0  0  0
   -9.5364   -6.8376    6.3570 C   0  0  0  0  0  0  0  0  0  0  0  0
   -9.0686   -7.3768    7.7026 C   0  0  0  0  0  0  0  0  0  0  0  0
   -5.9443   -3.0330    1.1052 C   0  0  0  0  0  0  0  0  0  0  0  0
   -4.6528   -2.6956    1.2838 C   0  0  0  0  0  0  0  0  0  0  0  0
   -3.9316   -1.7466    0.4955 C   0  0  0  0  0  0  0  0  0  0  0  0
   -4.3500   -0.9579   -0.5366 C   0  0  0  0  0  0  0  0  0  0  0  0
   -3.3253   -0.1704   -1.1152 C   0  0  0  0  0  0  0  0  0  0  0  0
   -3.4213    0.7117   -2.2101 C   0  0  0  0  0  0  0  0  0  0  0  0
   -4.6476    0.9087   -2.9569 C   0  0  0  0  0  0  0  0  0  0  0  0
   -5.1291    2.0720   -3.4884 C   0  0  0  0  0  0  0  0  0  0  0  0
   -6.3260    1.9053   -4.2130 C   0  0  0  0  0  0  0  0  0  0  0  0
   -6.7635    0.6181   -4.2508 C   0  0  0  0  0  0  0  0  0  0  0  0
   -7.9611    0.0593   -4.9389 C   0  0  0  0  0  0  0  0  0  0  0  0
   -7.5639   -0.8159   -6.1289 C   0  0  0  0  0  0  0  0  0  0  0  0
   -5.6918   -0.4238   -3.3729 S   0  0  0  0  0  0  0  0  0  0  0  0
   -2.2559    1.3833   -2.5666 C   0  0  0  0  0  0  0  0  0  0  0  0
   -1.0157    1.1955   -1.9114 C   0  0  0  0  0  0  0  0  0  0  0  0
   -0.9083    0.2780   -0.8468 C   0  0  0  0  0  0  0  0  0  0  0  0
    0.3785   -0.0075   -0.2428 C   0  0  0  0  0  0  0  0  0  0  0  0
    1.5731   -0.1915   -0.8818 C   0  0  0  0  0  0  0  0  0  0  0  0
    2.6405   -0.4584   -0.0025 C   0  0  0  0  0  0  0  0  0  0  0  0
    2.2740   -0.4725    1.3081 C   0  0  0  0  0  0  0  0  0  0  0  0
    3.1250   -0.7403    2.5010 C   0  0  0  0  0  0  0  0  0  0  0  0
    2.8119   -2.1069    3.1118 C   0  0  0  0  0  0  0  0  0  0  0  0
    0.5768   -0.1698    1.4792 S   0  0  0  0  0  0  0  0  0  0  0  0
   -2.0814   -0.3577   -0.4603 C   0  0  0  0  0  0  0  0  0  0  0  0
   -2.2221   -1.5237    0.8237 S   0  0  0  0  0  0  0  0  0  0  0  0
    0.0047    2.0066   -2.4661 C   0  0  0  0  0  0  0  0  0  0  0  0
   -0.4045    2.7505   -3.5340 C   0  0  0  0  0  0  0  0  0  0  0  0
   -2.1005    2.5061   -3.8915 S   0  0  0  0  0  0  0  0  0  0  0  0
    0.3808    3.6373   -4.3313 C   0  0  0  0  0  0  0  0  0  0  0  0
    1.6856    3.9905   -4.1452 C   0  0  0  0  0  0  0  0  0  0  0  0
    2.1827    4.8737   -5.1357 C   0  0  0  0  0  0  0  0  0  0  0  0
    3.4840    5.3988   -5.2552 C   0  0  0  0  0  0  0  0  0  0  0  0
    4.4907    5.1463   -4.2442 C   0  0  0  0  0  0  0  0  0  0  0  0
    4.3501    5.1745   -2.8857 C   0  0  0  0  0  0  0  0  0  0  0  0
    5.5421    4.8762   -2.1953 C   0  0  0  0  0  0  0  0  0  0  0  0
    6.5920    4.6090   -3.0183 C   0  0  0  0  0  0  0  0  0  0  0  0
    8.0012    4.2901   -2.6551 C   0  0  0  0  0  0  0  0  0  0  0  0
    8.9234    5.4813   -2.9231 C   0  0  0  0  0  0  0  0  0  0  0  0
    6.1264    4.7388   -4.6822 S   0  0  0  0  0  0  0  0  0  0  0  0
    3.7401    6.1660   -6.3858 C   0  0  0  0  0  0  0  0  0  0  0  0
    2.7698    6.4417   -7.3761 C   0  0  0  0  0  0  0  0  0  0  0  0
    1.4658    5.9323   -7.2490 C   0  0  0  0  0  0  0  0  0  0  0  0
    0.4559    6.1718   -8.2621 C   0  0  0  0  0  0  0  0  0  0  0  0
    0.5797    6.0922   -9.6198 C   0  0  0  0  0  0  0  0  0  0  0  0
   -0.6186    6.3751  -10.3056 C   0  0  0  0  0  0  0  0  0  0  0  0
   -1.6553    6.6814   -9.4796 C   0  0  0  0  0  0  0  0  0  0  0  0
   -3.0664    6.9988   -9.8366 C   0  0  0  0  0  0  0  0  0  0  0  0
   -3.9951    5.8289   -9.5047 C   0  0  0  0  0  0  0  0  0  0  0  0
   -1.1693    6.6101   -7.8182 S   0  0  0  0  0  0  0  0  0  0  0  0
    1.2054    5.1699   -6.1154 C   0  0  0  0  0  0  0  0  0  0  0  0
   -0.3090    4.3886   -5.7527 S   0  0  0  0  0  0  0  0  0  0  0  0
    3.2934    7.2718   -8.4089 C   0  0  0  0  0  0  0  0  0  0  0  0
    4.5962    7.5966   -8.2417 C   0  0  0  0  0  0  0  0  0  0  0  0
    5.2581    6.9457   -6.7523 S   0  0  0  0  0  0  0  0  0  0  0  0
    5.4254    8.4211   -9.1290 C   0  0  0  0  0  0  0  0  0  0  0  0
    5.4749    9.7864   -8.8960 C   0  0  0  0  0  0  0  0  0  0  0  0
    6.1820   10.6834   -9.7080 C   0  0  0  0  0  0  0  0  0  0  0  0
    6.8617   10.1831  -10.8131 C   0  0  0  0  0  0  0  0  0  0  0  0
    6.8385    8.8232  -11.0658 C   0  0  0  0  0  0  0  0  0  0  0  0
    6.1410    7.9202  -10.2230 C   0  0  0  0  0  0  0  0  0  0  0  0
    6.3033    6.6391  -10.6964 N   0  0  0  0  0  0  0  0  0  0  0  0
    7.0606    6.6920  -11.8471 C   0  0  0  0  0  0  0  0  0  0  0  0
    7.4231    8.0332  -12.1102 C   0  0  0  0  0  0  0  0  0  0  0  0
    8.1966    8.3527  -13.2180 C   0  0  0  0  0  0  0  0  0  0  0  0
    8.5987    7.3357  -14.0587 C   0  0  0  0  0  0  0  0  0  0  0  0
    8.2344    6.0162  -13.8012 C   0  0  0  0  0  0  0  0  0  0  0  0
    7.4686    5.6760  -12.7032 C   0  0  0  0  0  0  0  0  0  0  0  0
    5.7850    5.4308  -10.0877 C   0  0  0  0  0  0  0  0  0  0  0  0
    6.9017    4.4028   -9.8188 C   0  0  0  0  0  0  0  0  0  0  0  0
    6.9408    3.9717   -8.3562 C   0  0  0  0  0  0  0  0  0  0  0  0
    4.6164    4.8776  -10.9179 C   0  0  0  0  0  0  0  0  0  0  0  0
    3.8259    3.8193  -10.1591 C   0  0  0  0  0  0  0  0  0  0  0  0
    6.1587   12.0979   -9.3617 C   0  0  0  0  0  0  0  0  0  0  0  0
    6.7843   13.0824   -9.9964 C   0  0  0  0  0  0  0  0  0  0  0  0
    3.4454   -2.8867    8.6171 H   0  0  0  0  0  0  0  0  0  0  0  0
    1.8424   -4.6750    8.2269 H   0  0  0  0  0  0  0  0  0  0  0  0
   -0.2526   -2.3060    5.3406 H   0  0  0  0  0  0  0  0  0  0  0  0
   -0.0658    0.1805    4.3669 H   0  0  0  0  0  0  0  0  0  0  0  0
    0.6510    2.4595    3.7234 H   0  0  0  0  0  0  0  0  0  0  0  0
    2.6618    3.4504    4.7225 H   0  0  0  0  0  0  0  0  0  0  0  0
    3.9881    2.2518    6.3704 H   0  0  0  0  0  0  0  0  0  0  0  0
    4.2704   -0.9516    8.9097 H   0  0  0  0  0  0  0  0  0  0  0  0
    3.6650    1.6054    8.7617 H   0  0  0  0  0  0  0  0  0  0  0  0
    5.2567    1.7361    8.0040 H   0  0  0  0  0  0  0  0  0  0  0  0
    6.2746    0.5662    9.9672 H   0  0  0  0  0  0  0  0  0  0  0  0
    5.4546    2.0570   10.4244 H   0  0  0  0  0  0  0  0  0  0  0  0
    4.6858    0.5010   10.7327 H   0  0  0  0  0  0  0  0  0  0  0  0
    5.5225   -1.8697    7.1172 H   0  0  0  0  0  0  0  0  0  0  0  0
    6.5444   -0.7061    7.9619 H   0  0  0  0  0  0  0  0  0  0  0  0
    5.1033   -0.1975    5.3104 H   0  0  0  0  0  0  0  0  0  0  0  0
    6.8139   -0.5781    5.4975 H   0  0  0  0  0  0  0  0  0  0  0  0
    6.1828    0.9412    6.1181 H   0  0  0  0  0  0  0  0  0  0  0  0
   -0.7381   -4.6376    5.5300 H   0  0  0  0  0  0  0  0  0  0  0  0
   -0.2309   -5.7107    8.3408 H   0  0  0  0  0  0  0  0  0  0  0  0
   -2.8850   -4.9937    6.2637 H   0  0  0  0  0  0  0  0  0  0  0  0
   -4.8011   -8.8029    5.9872 H   0  0  0  0  0  0  0  0  0  0  0  0
   -4.2826  -11.2684    6.7088 H   0  0  0  0  0  0  0  0  0  0  0  0
   -3.2251  -13.3975    7.4056 H   0  0  0  0  0  0  0  0  0  0  0  0
   -0.9213  -13.4175    8.2417 H   0  0  0  0  0  0  0  0  0  0  0  0
    0.3897  -11.3777    8.4147 H   0  0  0  0  0  0  0  0  0  0  0  0
    0.7324   -7.3859    7.6318 H   0  0  0  0  0  0  0  0  0  0  0  0
    1.1870   -9.7774    9.4745 H   0  0  0  0  0  0  0  0  0  0  0  0
    2.1856   -8.3338    9.3488 H   0  0  0  0  0  0  0  0  0  0  0  0
    0.6238   -8.2592   11.3062 H   0  0  0  0  0  0  0  0  0  0  0  0
   -0.7510   -8.3523   10.2053 H   0  0  0  0  0  0  0  0  0  0  0  0
    0.3081   -6.9407   10.1828 H   0  0  0  0  0  0  0  0  0  0  0  0
    2.6086   -8.8360    6.9715 H   0  0  0  0  0  0  0  0  0  0  0  0
    1.5259  -10.2267    6.8905 H   0  0  0  0  0  0  0  0  0  0  0  0
    1.2200   -7.6733    5.2398 H   0  0  0  0  0  0  0  0  0  0  0  0
    0.1633   -9.0832    5.1495 H   0  0  0  0  0  0  0  0  0  0  0  0
    1.8466   -9.2134    4.6452 H   0  0  0  0  0  0  0  0  0  0  0  0
   -4.9624   -5.0397    5.3517 H   0  0  0  0  0  0  0  0  0  0  0  0
   -5.9455   -7.7232    4.2814 H   0  0  0  0  0  0  0  0  0  0  0  0
   -4.9855   -4.7615    2.9531 H   0  0  0  0  0  0  0  0  0  0  0  0
   -8.5526   -3.6012    0.8924 H   0  0  0  0  0  0  0  0  0  0  0  0
  -11.1175   -4.3628    0.8804 H   0  0  0  0  0  0  0  0  0  0  0  0
  -13.3173   -5.3967    1.3488 H   0  0  0  0  0  0  0  0  0  0  0  0
  -13.5387   -7.1152    3.0800 H   0  0  0  0  0  0  0  0  0  0  0  0
  -11.6112   -7.8572    4.3923 H   0  0  0  0  0  0  0  0  0  0  0  0
   -7.7282   -7.4127    5.3984 H   0  0  0  0  0  0  0  0  0  0  0  0
   -9.4267   -9.1609    3.9550 H   0  0  0  0  0  0  0  0  0  0  0  0
  -10.0094   -9.2485    5.6147 H   0  0  0  0  0  0  0  0  0  0  0  0
   -7.1483   -9.7493    4.6773 H   0  0  0  0  0  0  0  0  0  0  0  0
   -8.2909  -10.9537    5.2607 H   0  0  0  0  0  0  0  0  0  0  0  0
   -7.6509   -9.7410    6.3712 H   0  0  0  0  0  0  0  0  0  0  0  0
   -9.3414   -5.7628    6.3145 H   0  0  0  0  0  0  0  0  0  0  0  0
  -10.6129   -6.9807    6.2562 H   0  0  0  0  0  0  0  0  0  0  0  0
   -9.2847   -8.4382    7.7950 H   0  0  0  0  0  0  0  0  0  0  0  0
   -7.9968   -7.2299    7.8203 H   0  0  0  0  0  0  0  0  0  0  0  0
   -9.5760   -6.8562    8.5112 H   0  0  0  0  0  0  0  0  0  0  0  0
   -6.5106   -2.5365    0.3282 H   0  0  0  0  0  0  0  0  0  0  0  0
   -4.0681   -3.1679    2.0603 H   0  0  0  0  0  0  0  0  0  0  0  0
   -5.3695   -0.9354   -0.8716 H   0  0  0  0  0  0  0  0  0  0  0  0
   -4.6615    3.0280   -3.3369 H   0  0  0  0  0  0  0  0  0  0  0  0
   -6.8453    2.7185   -4.6888 H   0  0  0  0  0  0  0  0  0  0  0  0
   -8.5446   -0.5398   -4.2345 H   0  0  0  0  0  0  0  0  0  0  0  0
   -8.5855    0.8876   -5.2813 H   0  0  0  0  0  0  0  0  0  0  0  0
   -8.4498   -1.2060   -6.6240 H   0  0  0  0  0  0  0  0  0  0  0  0
   -6.9885   -0.2370   -6.8480 H   0  0  0  0  0  0  0  0  0  0  0  0
   -6.9551   -1.6528   -5.7933 H   0  0  0  0  0  0  0  0  0  0  0  0
    1.6750   -0.1802   -1.9525 H   0  0  0  0  0  0  0  0  0  0  0  0
    3.6494   -0.6330   -0.3339 H   0  0  0  0  0  0  0  0  0  0  0  0
    4.1740   -0.7025    2.1972 H   0  0  0  0  0  0  0  0  0  0  0  0
    2.9558    0.0340    3.2528 H   0  0  0  0  0  0  0  0  0  0  0  0
    3.4279   -2.2812    3.9909 H   0  0  0  0  0  0  0  0  0  0  0  0
    1.7683   -2.1526    3.4111 H   0  0  0  0  0  0  0  0  0  0  0  0
    3.0012   -2.8981    2.3895 H   0  0  0  0  0  0  0  0  0  0  0  0
    1.0039    2.0439   -2.0744 H   0  0  0  0  0  0  0  0  0  0  0  0
    2.2856    3.6129   -3.3387 H   0  0  0  0  0  0  0  0  0  0  0  0
    3.4308    5.4424   -2.3957 H   0  0  0  0  0  0  0  0  0  0  0  0
    5.6151    4.8590   -1.1219 H   0  0  0  0  0  0  0  0  0  0  0  0
    8.3467    3.4324   -3.2377 H   0  0  0  0  0  0  0  0  0  0  0  0
    8.0401    4.0241   -1.5965 H   0  0  0  0  0  0  0  0  0  0  0  0
    8.8954    5.7480   -3.9772 H   0  0  0  0  0  0  0  0  0  0  0  0
    9.9471    5.2354   -2.6522 H   0  0  0  0  0  0  0  0  0  0  0  0
    8.6059    6.3435   -2.3410 H   0  0  0  0  0  0  0  0  0  0  0  0
    1.4890    5.7982  -10.1123 H   0  0  0  0  0  0  0  0  0  0  0  0
   -0.7058    6.3528  -11.3778 H   0  0  0  0  0  0  0  0  0  0  0  0
   -3.1183    7.2202  -10.9049 H   0  0  0  0  0  0  0  0  0  0  0  0
   -3.3955    7.8839   -9.2866 H   0  0  0  0  0  0  0  0  0  0  0  0
   -3.9510    5.6044   -8.4414 H   0  0  0  0  0  0  0  0  0  0  0  0
   -5.0210    6.0742   -9.7681 H   0  0  0  0  0  0  0  0  0  0  0  0
   -3.6960    4.9407  -10.0567 H   0  0  0  0  0  0  0  0  0  0  0  0
    2.7122    7.6154   -9.2449 H   0  0  0  0  0  0  0  0  0  0  0  0
    4.9282   10.1735   -8.0471 H   0  0  0  0  0  0  0  0  0  0  0  0
    7.4030   10.8383  -11.4763 H   0  0  0  0  0  0  0  0  0  0  0  0
    8.4724    9.3779  -13.4142 H   0  0  0  0  0  0  0  0  0  0  0  0
    9.1996    7.5593  -14.9277 H   0  0  0  0  0  0  0  0  0  0  0  0
    8.5582    5.2385  -14.4776 H   0  0  0  0  0  0  0  0  0  0  0  0
    7.2022    4.6460  -12.5300 H   0  0  0  0  0  0  0  0  0  0  0  0
    5.3776    5.7315   -9.1222 H   0  0  0  0  0  0  0  0  0  0  0  0
    6.7627    3.5234  -10.4504 H   0  0  0  0  0  0  0  0  0  0  0  0
    7.8650    4.8463  -10.0773 H   0  0  0  0  0  0  0  0  0  0  0  0
    7.7237    3.2327   -8.2018 H   0  0  0  0  0  0  0  0  0  0  0  0
    5.9930    3.5343   -8.0518 H   0  0  0  0  0  0  0  0  0  0  0  0
    7.1442    4.8231   -7.7110 H   0  0  0  0  0  0  0  0  0  0  0  0
    3.9571    5.7143  -11.1654 H   0  0  0  0  0  0  0  0  0  0  0  0
    4.9850    4.4629  -11.8574 H   0  0  0  0  0  0  0  0  0  0  0  0
    3.4502    4.2212   -9.2195 H   0  0  0  0  0  0  0  0  0  0  0  0
    4.4459    2.9543   -9.9383 H   0  0  0  0  0  0  0  0  0  0  0  0
    2.9775    3.4843  -10.7518 H   0  0  0  0  0  0  0  0  0  0  0  0
    5.5631   12.3362   -8.4884 H   0  0  0  0  0  0  0  0  0  0  0  0
    6.7077   14.1024   -9.6609 H   0  0  0  0  0  0  0  0  0  0  0  0
    7.3965   12.9194  -10.8666 H   0  0  0  0  0  0  0  0  0  0  0  0
  1  2  2  0  0  0  0
  2  3  1  0  0  0  0
  3  4  2  0  0  0  0
  4  5  1  0  0  0  0
  5  6  2  0  0  0  0
  6  7  1  0  0  0  0
  7  8  1  0  0  0  0
  8  9  2  0  0  0  0
  9 10  1  0  0  0  0
 10 11  2  0  0  0  0
 11 12  1  0  0  0  0
 12 13  2  0  0  0  0
  7 14  1  0  0  0  0
 14 15  1  0  0  0  0
 15 16  1  0  0  0  0
 14 17  1  0  0  0  0
 17 18  1  0  0  0  0
  3 19  1  0  0  0  0
 19 20  2  0  0  0  0
 20 21  1  0  0  0  0
 21 22  2  0  0  0  0
 22 23  1  0  0  0  0
 23 24  2  0  0  0  0
 24 25  1  0  0  0  0
 25 26  2  0  0  0  0
 26 27  1  0  0  0  0
 27 28  1  0  0  0  0
 28 29  2  0  0  0  0
 29 30  1  0  0  0  0
 30 31  2  0  0  0  0
 31 32  1  0  0  0  0
 32 33  2  0  0  0  0
 27 34  1  0  0  0  0
 34 35  1  0  0  0  0
 35 36  1  0  0  0  0
 34 37  1  0  0  0  0
 37 38  1  0  0  0  0
 23 39  1  0  0  0  0
 39 40  2  0  0  0  0
 40 41  1  0  0  0  0
 41 42  2  0  0  0  0
 42 43  1  0  0  0  0
 43 44  2  0  0  0  0
 44 45  1  0  0  0  0
 45 46  2  0  0  0  0
 46 47  1  0  0  0  0
 47 48  1  0  0  0  0
 48 49  2  0  0  0  0
 49 50  1  0  0  0  0
 50 51  2  0  0  0  0
 51 52  1  0  0  0  0
 52 53  2  0  0  0  0
 47 54  1  0  0  0  0
 54 55  1  0  0  0  0
 55 56  1  0  0  0  0
 54 57  1  0  0  0  0
 57 58  1  0  0  0  0
 43 59  1  0  0  0  0
 59 60  2  0  0  0  0
 60 61  1  0  0  0  0
 61 62  2  0  0  0  0
 62 63  1  0  0  0  0
 63 64  2  0  0  0  0
 64 65  1  0  0  0  0
 65 66  2  0  0  0  0
 66 67  1  0  0  0  0
 67 68  2  0  0  0  0
 68 69  1  0  0  0  0
 69 70  1  0  0  0  0
 68 71  1  0  0  0  0
 64 72  1  0  0  0  0
 72 73  2  0  0  0  0
 73 74  1  0  0  0  0
 74 75  1  0  0  0  0
 75 76  2  0  0  0  0
 76 77  1  0  0  0  0
 77 78  2  0  0  0  0
 78 79  1  0  0  0  0
 79 80  1  0  0  0  0
 78 81  1  0  0  0  0
 74 82  2  0  0  0  0
 82 83  1  0  0  0  0
 73 84  1  0  0  0  0
 84 85  2  0  0  0  0
 85 86  1  0  0  0  0
 85 87  1  0  0  0  0
 87 88  2  0  0  0  0
 88 89  1  0  0  0  0
 89 90  2  0  0  0  0
 90 91  1  0  0  0  0
 91 92  2  0  0  0  0
 92 93  1  0  0  0  0
 93 94  2  0  0  0  0
 94 95  1  0  0  0  0
 95 96  1  0  0  0  0
 94 97  1  0  0  0  0
 90 98  1  0  0  0  0
 98 99  2  0  0  0  0
 99100  1  0  0  0  0
100101  1  0  0  0  0
101102  2  0  0  0  0
102103  1  0  0  0  0
103104  2  0  0  0  0
104105  1  0  0  0  0
105106  1  0  0  0  0
104107  1  0  0  0  0
100108  2  0  0  0  0
108109  1  0  0  0  0
 99110  1  0  0  0  0
110111  2  0  0  0  0
111112  1  0  0  0  0
111113  1  0  0  0  0
113114  2  0  0  0  0
114115  1  0  0  0  0
115116  2  0  0  0  0
116117  1  0  0  0  0
117118  2  0  0  0  0
118119  1  0  0  0  0
119120  1  0  0  0  0
120121  2  0  0  0  0
121122  1  0  0  0  0
122123  2  0  0  0  0
123124  1  0  0  0  0
124125  2  0  0  0  0
119126  1  0  0  0  0
126127  1  0  0  0  0
127128  1  0  0  0  0
126129  1  0  0  0  0
129130  1  0  0  0  0
115131  1  0  0  0  0
131132  2  0  0  0  0
  6  1  1  0  0  0  0
 13  8  1  0  0  0  0
 26 21  1  0  0  0  0
 33 28  1  0  0  0  0
 46 41  1  0  0  0  0
 53 48  1  0  0  0  0
 83 61  1  0  0  0  0
109 87  1  0  0  0  0
118113  1  0  0  0  0
125120  1  0  0  0  0
  9  5  1  0  0  0  0
 29 25  1  0  0  0  0
 49 45  1  0  0  0  0
 82 63  1  0  0  0  0
108 89  1  0  0  0  0
121117  1  0  0  0  0
 71 65  1  0  0  0  0
 86 72  1  0  0  0  0
 97 91  1  0  0  0  0
112 98  1  0  0  0  0
 81 75  1  0  0  0  0
107101  1  0  0  0  0
  1133  1  0  0  0  0
  2134  1  0  0  0  0
  4135  1  0  0  0  0
 10136  1  0  0  0  0
 11137  1  0  0  0  0
 12138  1  0  0  0  0
 13139  1  0  0  0  0
 14140  1  0  0  0  0
 15141  1  0  0  0  0
 15142  1  0  0  0  0
 16143  1  0  0  0  0
 16144  1  0  0  0  0
 16145  1  0  0  0  0
 17146  1  0  0  0  0
 17147  1  0  0  0  0
 18148  1  0  0  0  0
 18149  1  0  0  0  0
 18150  1  0  0  0  0
 19151  1  0  0  0  0
 20152  1  0  0  0  0
 22153  1  0  0  0  0
 24154  1  0  0  0  0
 30155  1  0  0  0  0
 31156  1  0  0  0  0
 32157  1  0  0  0  0
 33158  1  0  0  0  0
 34159  1  0  0  0  0
 35160  1  0  0  0  0
 35161  1  0  0  0  0
 36162  1  0  0  0  0
 36163  1  0  0  0  0
 36164  1  0  0  0  0
 37165  1  0  0  0  0
 37166  1  0  0  0  0
 38167  1  0  0  0  0
 38168  1  0  0  0  0
 38169  1  0  0  0  0
 39170  1  0  0  0  0
 40171  1  0  0  0  0
 42172  1  0  0  0  0
 44173  1  0  0  0  0
 50174  1  0  0  0  0
 51175  1  0  0  0  0
 52176  1  0  0  0  0
 53177  1  0  0  0  0
 54178  1  0  0  0  0
 55179  1  0  0  0  0
 55180  1  0  0  0  0
 56181  1  0  0  0  0
 56182  1  0  0  0  0
 56183  1  0  0  0  0
 57184  1  0  0  0  0
 57185  1  0  0  0  0
 58186  1  0  0  0  0
 58187  1  0  0  0  0
 58188  1  0  0  0  0
 59189  1  0  0  0  0
 60190  1  0  0  0  0
 62191  1  0  0  0  0
 66192  1  0  0  0  0
 67193  1  0  0  0  0
 69194  1  0  0  0  0
 69195  1  0  0  0  0
 70196  1  0  0  0  0
 70197  1  0  0  0  0
 70198  1  0  0  0  0
 76199  1  0  0  0  0
 77200  1  0  0  0  0
 79201  1  0  0  0  0
 79202  1  0  0  0  0
 80203  1  0  0  0  0
 80204  1  0  0  0  0
 80205  1  0  0  0  0
 84206  1  0  0  0  0
 88207  1  0  0  0  0
 92208  1  0  0  0  0
 93209  1  0  0  0  0
 95210  1  0  0  0  0
 95211  1  0  0  0  0
 96212  1  0  0  0  0
 96213  1  0  0  0  0
 96214  1  0  0  0  0
102215  1  0  0  0  0
103216  1  0  0  0  0
105217  1  0  0  0  0
105218  1  0  0  0  0
106219  1  0  0  0  0
106220  1  0  0  0  0
106221  1  0  0  0  0
110222  1  0  0  0  0
114223  1  0  0  0  0
116224  1  0  0  0  0
122225  1  0  0  0  0
123226  1  0  0  0  0
124227  1  0  0  0  0
125228  1  0  0  0  0
126229  1  0  0  0  0
127230  1  0  0  0  0
127231  1  0  0  0  0
128232  1  0  0  0  0
128233  1  0  0  0  0
128234  1  0  0  0  0
129235  1  0  0  0  0
129236  1  0  0  0  0
130237  1  0  0  0  0
130238  1  0  0  0  0
130239  1  0  0  0  0
131240  1  0  0  0  0
132241  1  0  0  0  0
132242  1  0  0  0  0
M  END
