
  xtb     03012205113D
 energy: -474.759447480127 gnorm: 0.001047662320 xtb: 6.4.1 (unknown)
242267  0     0  0            999 V2000
   -7.2035    3.9023   18.6437 C   0  0  0  0  0  0  0  0  0  0  0  0
   -6.4985    4.8070   17.9345 C   0  0  0  0  0  0  0  0  0  0  0  0
   -6.5832    4.5932   16.5278 C   0  0  0  0  0  0  0  0  0  0  0  0
   -6.0108    5.3517   15.4951 C   0  0  0  0  0  0  0  0  0  0  0  0
   -5.1420    6.4881   15.7570 C   0  0  0  0  0  0  0  0  0  0  0  0
   -3.7359    6.3258   16.7688 S   0  0  0  0  0  0  0  0  0  0  0  0
   -3.2431    7.9599   16.4839 C   0  0  0  0  0  0  0  0  0  0  0  0
   -1.9774    8.4981   17.0539 C   0  0  0  0  0  0  0  0  0  0  0  0
   -0.8020    8.2376   16.1084 C   0  0  0  0  0  0  0  0  0  0  0  0
   -4.1245    8.5803   15.6504 C   0  0  0  0  0  0  0  0  0  0  0  0
   -3.9653   10.2085   15.1324 Cl  0  0  0  0  0  0  0  0  0  0  0  0
   -5.2040    7.7525   15.2399 C   0  0  0  0  0  0  0  0  0  0  0  0
   -6.4844    8.3354   14.2613 Cl  0  0  0  0  0  0  0  0  0  0  0  0
   -6.2658    4.9370   14.1937 C   0  0  0  0  0  0  0  0  0  0  0  0
   -7.0599    3.8059   13.8819 C   0  0  0  0  0  0  0  0  0  0  0  0
   -7.6604    3.0684   14.9157 C   0  0  0  0  0  0  0  0  0  0  0  0
   -8.5106    1.9274   14.6243 C   0  0  0  0  0  0  0  0  0  0  0  0
   -8.2401    0.3795   15.3676 S   0  0  0  0  0  0  0  0  0  0  0  0
   -9.5697   -0.3426   14.5291 C   0  0  0  0  0  0  0  0  0  0  0  0
   -9.8821   -1.7900   14.6824 C   0  0  0  0  0  0  0  0  0  0  0  0
   -9.0083   -2.6388   13.7554 C   0  0  0  0  0  0  0  0  0  0  0  0
  -10.1767    0.5739   13.7228 C   0  0  0  0  0  0  0  0  0  0  0  0
   -9.5817    1.8626   13.7758 C   0  0  0  0  0  0  0  0  0  0  0  0
  -10.2129    3.2072   12.9152 Cl  0  0  0  0  0  0  0  0  0  0  0  0
  -11.5378    0.2290   12.7363 Cl  0  0  0  0  0  0  0  0  0  0  0  0
   -7.3942    3.4763   16.2178 C   0  0  0  0  0  0  0  0  0  0  0  0
   -8.0195    2.7341   17.6637 S   0  0  0  0  0  0  0  0  0  0  0  0
   -7.0731    3.5381   12.4891 C   0  0  0  0  0  0  0  0  0  0  0  0
   -6.3437    4.4276   11.7597 C   0  0  0  0  0  0  0  0  0  0  0  0
   -5.5898    5.6514   12.7612 S   0  0  0  0  0  0  0  0  0  0  0  0
   -6.1049    4.4486   10.3549 C   0  0  0  0  0  0  0  0  0  0  0  0
   -5.3580    5.3668    9.6786 C   0  0  0  0  0  0  0  0  0  0  0  0
   -5.2252    5.0868    8.2989 C   0  0  0  0  0  0  0  0  0  0  0  0
   -4.5298    5.8327    7.3296 C   0  0  0  0  0  0  0  0  0  0  0  0
   -3.8273    7.0514    7.6946 C   0  0  0  0  0  0  0  0  0  0  0  0
   -2.7130    7.0812    9.0308 S   0  0  0  0  0  0  0  0  0  0  0  0
   -2.3950    8.7708    8.8365 C   0  0  0  0  0  0  0  0  0  0  0  0
   -1.5170    9.4947    9.7962 C   0  0  0  0  0  0  0  0  0  0  0  0
   -2.2252    9.6892   11.1396 C   0  0  0  0  0  0  0  0  0  0  0  0
   -3.1082    9.2661    7.7865 C   0  0  0  0  0  0  0  0  0  0  0  0
   -3.0628   10.9062    7.2839 Cl  0  0  0  0  0  0  0  0  0  0  0  0
   -3.9149    8.2950    7.1326 C   0  0  0  0  0  0  0  0  0  0  0  0
   -4.9600    8.6986    5.8366 Cl  0  0  0  0  0  0  0  0  0  0  0  0
   -4.5404    5.3386    6.0319 C   0  0  0  0  0  0  0  0  0  0  0  0
   -5.2350    4.1578    5.6675 C   0  0  0  0  0  0  0  0  0  0  0  0
   -5.9551    3.4294    6.6312 C   0  0  0  0  0  0  0  0  0  0  0  0
   -6.6948    2.2327    6.2654 C   0  0  0  0  0  0  0  0  0  0  0  0
   -7.8722    2.2743    4.9847 S   0  0  0  0  0  0  0  0  0  0  0  0
   -8.2783    0.6053    5.1950 C   0  0  0  0  0  0  0  0  0  0  0  0
   -9.3407   -0.0372    4.3736 C   0  0  0  0  0  0  0  0  0  0  0  0
  -10.7319    0.3022    4.9130 C   0  0  0  0  0  0  0  0  0  0  0  0
   -7.5409    0.0640    6.2049 C   0  0  0  0  0  0  0  0  0  0  0  0
   -6.6394    0.9805    6.8112 C   0  0  0  0  0  0  0  0  0  0  0  0
   -5.5399    0.5065    8.0369 Cl  0  0  0  0  0  0  0  0  0  0  0  0
   -7.6609   -1.5722    6.7075 Cl  0  0  0  0  0  0  0  0  0  0  0  0
   -5.9231    3.9081    7.9340 C   0  0  0  0  0  0  0  0  0  0  0  0
   -6.7278    3.1966    9.3047 S   0  0  0  0  0  0  0  0  0  0  0  0
   -5.0155    3.8149    4.3126 C   0  0  0  0  0  0  0  0  0  0  0  0
   -4.1858    4.6778    3.6587 C   0  0  0  0  0  0  0  0  0  0  0  0
   -3.6520    5.9913    4.6850 S   0  0  0  0  0  0  0  0  0  0  0  0
   -3.6899    4.5449    2.3294 C   0  0  0  0  0  0  0  0  0  0  0  0
   -2.8093    5.3513    1.6715 C   0  0  0  0  0  0  0  0  0  0  0  0
   -2.4131    4.8439    0.4091 C   0  0  0  0  0  0  0  0  0  0  0  0
   -1.4485    5.3585   -0.4759 C   0  0  0  0  0  0  0  0  0  0  0  0
   -0.6822    6.5538   -0.1640 C   0  0  0  0  0  0  0  0  0  0  0  0
   -0.5745    7.8682   -1.2961 S   0  0  0  0  0  0  0  0  0  0  0  0
    0.4742    8.7772   -0.2612 C   0  0  0  0  0  0  0  0  0  0  0  0
    1.0200   10.0929   -0.6936 C   0  0  0  0  0  0  0  0  0  0  0  0
    1.9987    9.9225   -1.8564 C   0  0  0  0  0  0  0  0  0  0  0  0
    0.7209    8.0856    0.8867 C   0  0  0  0  0  0  0  0  0  0  0  0
    1.7257    8.6551    2.1561 Cl  0  0  0  0  0  0  0  0  0  0  0  0
    0.0642    6.8261    0.9481 C   0  0  0  0  0  0  0  0  0  0  0  0
    0.2802    5.7378    2.2586 Cl  0  0  0  0  0  0  0  0  0  0  0  0
   -1.2160    4.6420   -1.6413 C   0  0  0  0  0  0  0  0  0  0  0  0
   -1.8955    3.4420   -1.9568 C   0  0  0  0  0  0  0  0  0  0  0  0
   -2.8368    2.9091   -1.0600 C   0  0  0  0  0  0  0  0  0  0  0  0
   -3.4713    1.6271   -1.3203 C   0  0  0  0  0  0  0  0  0  0  0  0
   -5.1999    1.4472   -1.3132 S   0  0  0  0  0  0  0  0  0  0  0  0
   -5.1037   -0.2363   -1.7045 C   0  0  0  0  0  0  0  0  0  0  0  0
   -6.3321   -1.0475   -1.9261 C   0  0  0  0  0  0  0  0  0  0  0  0
   -6.8691   -0.8463   -3.3452 C   0  0  0  0  0  0  0  0  0  0  0  0
   -3.8022   -0.6198   -1.8301 C   0  0  0  0  0  0  0  0  0  0  0  0
   -2.8726    0.4308   -1.6045 C   0  0  0  0  0  0  0  0  0  0  0  0
   -1.1744    0.1741   -1.6136 Cl  0  0  0  0  0  0  0  0  0  0  0  0
   -3.3055   -2.2150   -2.2194 Cl  0  0  0  0  0  0  0  0  0  0  0  0
   -3.0772    3.6308    0.0991 C   0  0  0  0  0  0  0  0  0  0  0  0
   -4.1353    3.1345    1.3868 S   0  0  0  0  0  0  0  0  0  0  0  0
   -1.4411    2.8823   -3.1708 C   0  0  0  0  0  0  0  0  0  0  0  0
   -0.4033    3.5598   -3.7472 C   0  0  0  0  0  0  0  0  0  0  0  0
   -0.0084    5.0117   -2.8413 S   0  0  0  0  0  0  0  0  0  0  0  0
    0.3842    3.0411   -4.8217 C   0  0  0  0  0  0  0  0  0  0  0  0
    0.2287    1.3285   -5.0910 S   0  0  0  0  0  0  0  0  0  0  0  0
    1.5307    1.3316   -6.2315 C   0  0  0  0  0  0  0  0  0  0  0  0
    2.0253    2.6190   -6.4137 C   0  0  0  0  0  0  0  0  0  0  0  0
    1.3699    3.5968   -5.6169 C   0  0  0  0  0  0  0  0  0  0  0  0
    1.7221    5.0528   -5.5629 C   0  0  0  0  0  0  0  0  0  0  0  0
    3.0618    5.2653   -4.8556 C   0  0  0  0  0  0  0  0  0  0  0  0
    3.1004    2.7782   -7.2395 O   0  0  0  0  0  0  0  0  0  0  0  0
    3.1009    3.8078   -8.2139 C   0  0  0  0  0  0  0  0  0  0  0  0
    1.8523    3.8016   -9.0753 C   0  0  0  0  0  0  0  0  0  0  0  0
    1.8608    5.2320  -10.2187 S   0  0  0  0  0  4  0  0  0  0  0  0
    2.1836    4.1236  -11.4925 O   0  0  0  0  0  0  0  0  0  0  0  0
    1.6782    6.3395   -8.7847 O   0  0  0  0  0  0  0  0  0  0  0  0
    3.3913    5.7209  -10.2721 O   0  0  0  0  0  0  0  0  0  0  0  0
    1.9498    0.0658   -6.7227 C   0  0  0  0  0  0  0  0  0  0  0  0
    3.0599   -0.2187   -7.4386 C   0  0  0  0  0  0  0  0  0  0  0  0
    3.4487   -1.5608   -7.7290 C   0  0  0  0  0  0  0  0  0  0  0  0
    2.8880   -2.7230   -7.2744 C   0  0  0  0  0  0  0  0  0  0  0  0
    3.5725   -3.8914   -7.6745 C   0  0  0  0  0  0  0  0  0  0  0  0
    3.2912   -5.2207   -7.3032 C   0  0  0  0  0  0  0  0  0  0  0  0
    2.1575   -5.5361   -6.4494 C   0  0  0  0  0  0  0  0  0  0  0  0
    0.5496   -4.9957   -6.8404 S   0  0  0  0  0  0  0  0  0  0  0  0
   -0.1291   -5.7198   -5.4214 C   0  0  0  0  0  0  0  0  0  0  0  0
   -1.5880   -5.6367   -5.1362 C   0  0  0  0  0  0  0  0  0  0  0  0
   -2.3812   -6.6070   -6.0133 C   0  0  0  0  0  0  0  0  0  0  0  0
    0.8430   -6.3516   -4.7061 C   0  0  0  0  0  0  0  0  0  0  0  0
    0.5602   -7.1850   -3.2329 Cl  0  0  0  0  0  0  0  0  0  0  0  0
    2.1390   -6.2465   -5.2813 C   0  0  0  0  0  0  0  0  0  0  0  0
    3.5340   -6.8750   -4.5097 Cl  0  0  0  0  0  0  0  0  0  0  0  0
    4.1541   -6.2010   -7.7744 C   0  0  0  0  0  0  0  0  0  0  0  0
    5.2742   -5.8972   -8.5866 C   0  0  0  0  0  0  0  0  0  0  0  0
    5.5818   -4.5659   -8.9204 C   0  0  0  0  0  0  0  0  0  0  0  0
    6.7867   -4.2774   -9.6808 C   0  0  0  0  0  0  0  0  0  0  0  0
    6.7517   -3.3675  -11.1606 S   0  0  0  0  0  0  0  0  0  0  0  0
    8.4488   -3.5800  -11.4227 C   0  0  0  0  0  0  0  0  0  0  0  0
    9.1168   -3.0764  -12.6544 C   0  0  0  0  0  0  0  0  0  0  0  0
    9.1720   -4.1702  -13.7246 C   0  0  0  0  0  0  0  0  0  0  0  0
    8.9979   -4.3097  -10.4104 C   0  0  0  0  0  0  0  0  0  0  0  0
    8.0614   -4.7024   -9.4193 C   0  0  0  0  0  0  0  0  0  0  0  0
    8.5263   -5.5651   -8.0076 Cl  0  0  0  0  0  0  0  0  0  0  0  0
   10.6579   -4.7298  -10.3269 Cl  0  0  0  0  0  0  0  0  0  0  0  0
    4.7077   -3.5894   -8.4701 C   0  0  0  0  0  0  0  0  0  0  0  0
    4.8741   -1.8730   -8.7037 S   0  0  0  0  0  0  0  0  0  0  0  0
    5.9717   -7.0602   -8.9795 C   0  0  0  0  0  0  0  0  0  0  0  0
    5.4510   -8.2117   -8.4640 C   0  0  0  0  0  0  0  0  0  0  0  0
    4.0170   -7.9174   -7.5088 S   0  0  0  0  0  0  0  0  0  0  0  0
    6.0350   -9.5053   -8.6204 C   0  0  0  0  0  0  0  0  0  0  0  0
    7.3122   -9.7281   -9.0450 C   0  0  0  0  0  0  0  0  0  0  0  0
    7.6524  -11.0973   -9.1250 C   0  0  0  0  0  0  0  0  0  0  0  0
    8.8887  -11.6486   -9.5001 C   0  0  0  0  0  0  0  0  0  0  0  0
    9.9533  -10.7787   -9.9702 C   0  0  0  0  0  0  0  0  0  0  0  0
   11.5366  -10.7904   -9.2529 S   0  0  0  0  0  0  0  0  0  0  0  0
   12.0838   -9.4862  -10.2499 C   0  0  0  0  0  0  0  0  0  0  0  0
   13.4424   -8.9001  -10.0852 C   0  0  0  0  0  0  0  0  0  0  0  0
   13.4206   -7.7619   -9.0613 C   0  0  0  0  0  0  0  0  0  0  0  0
   11.0885   -9.0794  -11.0880 C   0  0  0  0  0  0  0  0  0  0  0  0
   11.2545   -7.8033  -12.2212 Cl  0  0  0  0  0  0  0  0  0  0  0  0
    9.8820   -9.8114  -10.9363 C   0  0  0  0  0  0  0  0  0  0  0  0
    8.5094   -9.5367  -11.9321 Cl  0  0  0  0  0  0  0  0  0  0  0  0
    9.0197  -13.0255   -9.3835 C   0  0  0  0  0  0  0  0  0  0  0  0
    7.9629  -13.8626   -8.9512 C   0  0  0  0  0  0  0  0  0  0  0  0
    6.7132  -13.3129   -8.6214 C   0  0  0  0  0  0  0  0  0  0  0  0
    5.6013  -14.1406   -8.1809 C   0  0  0  0  0  0  0  0  0  0  0  0
    5.7537  -15.2177   -6.8240 S   0  0  0  0  0  0  0  0  0  0  0  0
    4.0979  -15.7096   -6.9266 C   0  0  0  0  0  0  0  0  0  0  0  0
    3.5355  -16.7375   -6.0079 C   0  0  0  0  0  0  0  0  0  0  0  0
    3.7277  -18.1444   -6.5793 C   0  0  0  0  0  0  0  0  0  0  0  0
    3.4813  -15.0790   -7.9654 C   0  0  0  0  0  0  0  0  0  0  0  0
    4.3268  -14.1830   -8.6735 C   0  0  0  0  0  0  0  0  0  0  0  0
    3.7985  -13.3175  -10.0549 Cl  0  0  0  0  0  0  0  0  0  0  0  0
    1.8369  -15.3229   -8.3894 Cl  0  0  0  0  0  0  0  0  0  0  0  0
    6.5867  -11.9317   -8.7107 C   0  0  0  0  0  0  0  0  0  0  0  0
    5.1876  -10.9927   -8.2672 S   0  0  0  0  0  0  0  0  0  0  0  0
    8.3498  -15.2351   -8.9569 C   0  0  0  0  0  0  0  0  0  0  0  0
    9.6223  -15.4196   -9.3629 C   0  0  0  0  0  0  0  0  0  0  0  0
   10.4410  -13.9518   -9.7738 S   0  0  0  0  0  0  0  0  0  0  0  0
   -7.3074    3.8377   19.7092 H   0  0  0  0  0  0  0  0  0  0  0  0
   -5.9367    5.6078   18.3787 H   0  0  0  0  0  0  0  0  0  0  0  0
   -2.0900    9.5731   17.2076 H   0  0  0  0  0  0  0  0  0  0  0  0
   -1.7826    8.0239   18.0171 H   0  0  0  0  0  0  0  0  0  0  0  0
   -0.9786    8.7168   15.1488 H   0  0  0  0  0  0  0  0  0  0  0  0
    0.1149    8.6356   16.5344 H   0  0  0  0  0  0  0  0  0  0  0  0
   -0.6776    7.1696   15.9459 H   0  0  0  0  0  0  0  0  0  0  0  0
   -9.7106   -2.0897   15.7176 H   0  0  0  0  0  0  0  0  0  0  0  0
  -10.9346   -1.9488   14.4405 H   0  0  0  0  0  0  0  0  0  0  0  0
   -9.2499   -3.6914   13.8752 H   0  0  0  0  0  0  0  0  0  0  0  0
   -7.9568   -2.4921   13.9902 H   0  0  0  0  0  0  0  0  0  0  0  0
   -9.1754   -2.3585   12.7185 H   0  0  0  0  0  0  0  0  0  0  0  0
   -7.5831    2.7046   12.0415 H   0  0  0  0  0  0  0  0  0  0  0  0
   -4.9156    6.2147   10.1682 H   0  0  0  0  0  0  0  0  0  0  0  0
   -0.5982    8.9255    9.9521 H   0  0  0  0  0  0  0  0  0  0  0  0
   -1.2587   10.4651    9.3697 H   0  0  0  0  0  0  0  0  0  0  0  0
   -1.5776   10.2230   11.8300 H   0  0  0  0  0  0  0  0  0  0  0  0
   -2.4823    8.7261   11.5749 H   0  0  0  0  0  0  0  0  0  0  0  0
   -3.1384   10.2637   11.0062 H   0  0  0  0  0  0  0  0  0  0  0  0
   -9.1918   -1.1181    4.3950 H   0  0  0  0  0  0  0  0  0  0  0  0
   -9.2586    0.3079    3.3413 H   0  0  0  0  0  0  0  0  0  0  0  0
  -11.4948   -0.1745    4.3035 H   0  0  0  0  0  0  0  0  0  0  0  0
  -10.8912    1.3775    4.8951 H   0  0  0  0  0  0  0  0  0  0  0  0
  -10.8351   -0.0472    5.9371 H   0  0  0  0  0  0  0  0  0  0  0  0
   -5.4291    2.9429    3.8393 H   0  0  0  0  0  0  0  0  0  0  0  0
   -2.4480    6.2735    2.0889 H   0  0  0  0  0  0  0  0  0  0  0  0
    0.2006   10.7442   -1.0053 H   0  0  0  0  0  0  0  0  0  0  0  0
    1.5260   10.5541    0.1553 H   0  0  0  0  0  0  0  0  0  0  0  0
    2.8247    9.2797   -1.5628 H   0  0  0  0  0  0  0  0  0  0  0  0
    2.3971   10.8883   -2.1553 H   0  0  0  0  0  0  0  0  0  0  0  0
    1.4950    9.4721   -2.7076 H   0  0  0  0  0  0  0  0  0  0  0  0
   -7.0959   -0.7540   -1.2040 H   0  0  0  0  0  0  0  0  0  0  0  0
   -6.0887   -2.1001   -1.7718 H   0  0  0  0  0  0  0  0  0  0  0  0
   -7.7636   -1.4446   -3.4951 H   0  0  0  0  0  0  0  0  0  0  0  0
   -6.1223   -1.1459   -4.0761 H   0  0  0  0  0  0  0  0  0  0  0  0
   -7.1161    0.1999   -3.5088 H   0  0  0  0  0  0  0  0  0  0  0  0
   -1.8511    1.9869   -3.6005 H   0  0  0  0  0  0  0  0  0  0  0  0
    0.9428    5.5914   -5.0220 H   0  0  0  0  0  0  0  0  0  0  0  0
    1.7611    5.4743   -6.5685 H   0  0  0  0  0  0  0  0  0  0  0  0
    3.3250    6.3200   -4.8622 H   0  0  0  0  0  0  0  0  0  0  0  0
    2.9959    4.9317   -3.8224 H   0  0  0  0  0  0  0  0  0  0  0  0
    3.8528    4.7030   -5.3468 H   0  0  0  0  0  0  0  0  0  0  0  0
    3.2291    4.7909   -7.7517 H   0  0  0  0  0  0  0  0  0  0  0  0
    3.9777    3.5933   -8.8299 H   0  0  0  0  0  0  0  0  0  0  0  0
    0.9595    3.9067   -8.4614 H   0  0  0  0  0  0  0  0  0  0  0  0
    1.7911    2.9059   -9.6840 H   0  0  0  0  0  0  0  0  0  0  0  0
    2.4472    4.5698  -12.2970 H   0  0  0  0  0  0  0  0  0  0  0  0
    0.7675    6.6138   -8.6945 H   0  0  0  0  0  0  0  0  0  0  0  0
    3.5002    6.4147   -9.6125 H   0  0  0  0  0  0  0  0  0  0  0  0
    1.3071   -0.7484   -6.4151 H   0  0  0  0  0  0  0  0  0  0  0  0
    3.7126    0.5734   -7.7706 H   0  0  0  0  0  0  0  0  0  0  0  0
    2.0232   -2.7485   -6.6393 H   0  0  0  0  0  0  0  0  0  0  0  0
   -1.9355   -4.6178   -5.3187 H   0  0  0  0  0  0  0  0  0  0  0  0
   -1.7489   -5.8749   -4.0836 H   0  0  0  0  0  0  0  0  0  0  0  0
   -2.0572   -7.6287   -5.8338 H   0  0  0  0  0  0  0  0  0  0  0  0
   -2.2306   -6.3739   -7.0649 H   0  0  0  0  0  0  0  0  0  0  0  0
   -3.4414   -6.5328   -5.7866 H   0  0  0  0  0  0  0  0  0  0  0  0
    8.5678   -2.2152  -13.0374 H   0  0  0  0  0  0  0  0  0  0  0  0
   10.1326   -2.7629  -12.4040 H   0  0  0  0  0  0  0  0  0  0  0  0
    9.7274   -5.0294  -13.3572 H   0  0  0  0  0  0  0  0  0  0  0  0
    9.6634   -3.7948  -14.6181 H   0  0  0  0  0  0  0  0  0  0  0  0
    8.1673   -4.4928  -13.9870 H   0  0  0  0  0  0  0  0  0  0  0  0
    6.8151   -7.0469   -9.6428 H   0  0  0  0  0  0  0  0  0  0  0  0
    8.0054   -8.9356   -9.2518 H   0  0  0  0  0  0  0  0  0  0  0  0
   13.7801   -8.5151  -11.0496 H   0  0  0  0  0  0  0  0  0  0  0  0
   14.1344   -9.6762   -9.7548 H   0  0  0  0  0  0  0  0  0  0  0  0
   13.0907   -8.1312   -8.0932 H   0  0  0  0  0  0  0  0  0  0  0  0
   14.4149   -7.3373   -8.9534 H   0  0  0  0  0  0  0  0  0  0  0  0
   12.7404   -6.9777   -9.3836 H   0  0  0  0  0  0  0  0  0  0  0  0
    4.0300  -16.6666   -5.0381 H   0  0  0  0  0  0  0  0  0  0  0  0
    2.4700  -16.5417   -5.8738 H   0  0  0  0  0  0  0  0  0  0  0  0
    3.3062  -18.8827   -5.9028 H   0  0  0  0  0  0  0  0  0  0  0  0
    3.2311  -18.2301   -7.5423 H   0  0  0  0  0  0  0  0  0  0  0  0
    4.7859  -18.3565   -6.7125 H   0  0  0  0  0  0  0  0  0  0  0  0
    7.6938  -16.0362   -8.6705 H   0  0  0  0  0  0  0  0  0  0  0  0
   10.1558  -16.3452   -9.4560 H   0  0  0  0  0  0  0  0  0  0  0  0
  1  2  2  0  0  0  0
  2  3  1  0  0  0  0
  3  4  2  0  0  0  0
  4  5  1  0  0  0  0
  5  6  1  0  0  0  0
  6  7  1  0  0  0  0
  7  8  1  0  0  0  0
  8  9  1  0  0  0  0
  7 10  2  0  0  0  0
 10 11  1  0  0  0  0
 10 12  1  0  0  0  0
 12 13  1  0  0  0  0
  4 14  1  0  0  0  0
 14 15  2  0  0  0  0
 15 16  1  0  0  0  0
 16 17  1  0  0  0  0
 17 18  1  0  0  0  0
 18 19  1  0  0  0  0
 19 20  1  0  0  0  0
 20 21  1  0  0  0  0
 19 22  2  0  0  0  0
 22 23  1  0  0  0  0
 23 24  1  0  0  0  0
 22 25  1  0  0  0  0
 16 26  2  0  0  0  0
 26 27  1  0  0  0  0
 15 28  1  0  0  0  0
 28 29  2  0  0  0  0
 29 30  1  0  0  0  0
 29 31  1  0  0  0  0
 31 32  2  0  0  0  0
 32 33  1  0  0  0  0
 33 34  2  0  0  0  0
 34 35  1  0  0  0  0
 35 36  1  0  0  0  0
 36 37  1  0  0  0  0
 37 38  1  0  0  0  0
 38 39  1  0  0  0  0
 37 40  2  0  0  0  0
 40 41  1  0  0  0  0
 40 42  1  0  0  0  0
 42 43  1  0  0  0  0
 34 44  1  0  0  0  0
 44 45  2  0  0  0  0
 45 46  1  0  0  0  0
 46 47  1  0  0  0  0
 47 48  1  0  0  0  0
 48 49  1  0  0  0  0
 49 50  1  0  0  0  0
 50 51  1  0  0  0  0
 49 52  2  0  0  0  0
 52 53  1  0  0  0  0
 53 54  1  0  0  0  0
 52 55  1  0  0  0  0
 46 56  2  0  0  0  0
 56 57  1  0  0  0  0
 45 58  1  0  0  0  0
 58 59  2  0  0  0  0
 59 60  1  0  0  0  0
 59 61  1  0  0  0  0
 61 62  2  0  0  0  0
 62 63  1  0  0  0  0
 63 64  2  0  0  0  0
 64 65  1  0  0  0  0
 65 66  1  0  0  0  0
 66 67  1  0  0  0  0
 67 68  1  0  0  0  0
 68 69  1  0  0  0  0
 67 70  2  0  0  0  0
 70 71  1  0  0  0  0
 70 72  1  0  0  0  0
 72 73  1  0  0  0  0
 64 74  1  0  0  0  0
 74 75  2  0  0  0  0
 75 76  1  0  0  0  0
 76 77  1  0  0  0  0
 77 78  1  0  0  0  0
 78 79  1  0  0  0  0
 79 80  1  0  0  0  0
 80 81  1  0  0  0  0
 79 82  2  0  0  0  0
 82 83  1  0  0  0  0
 83 84  1  0  0  0  0
 82 85  1  0  0  0  0
 76 86  2  0  0  0  0
 86 87  1  0  0  0  0
 75 88  1  0  0  0  0
 88 89  2  0  0  0  0
 89 90  1  0  0  0  0
 89 91  1  0  0  0  0
 91 92  1  0  0  0  0
 92 93  1  0  0  0  0
 93 94  2  0  0  0  0
 94 95  1  0  0  0  0
 95 96  1  0  0  0  0
 96 97  1  0  0  0  0
 94 98  1  0  0  0  0
 98 99  1  0  0  0  0
 99100  1  0  0  0  0
100101  1  0  0  0  0
101102  1  0  0  0  0
101103  1  0  0  0  0
101104  1  0  0  0  0
 93105  1  0  0  0  0
105106  2  0  0  0  0
106107  1  0  0  0  0
107108  2  0  0  0  0
108109  1  0  0  0  0
109110  2  0  0  0  0
110111  1  0  0  0  0
111112  1  0  0  0  0
112113  1  0  0  0  0
113114  1  0  0  0  0
114115  1  0  0  0  0
113116  2  0  0  0  0
116117  1  0  0  0  0
116118  1  0  0  0  0
118119  1  0  0  0  0
110120  1  0  0  0  0
120121  2  0  0  0  0
121122  1  0  0  0  0
122123  1  0  0  0  0
123124  1  0  0  0  0
124125  1  0  0  0  0
125126  1  0  0  0  0
126127  1  0  0  0  0
125128  2  0  0  0  0
128129  1  0  0  0  0
129130  1  0  0  0  0
128131  1  0  0  0  0
122132  2  0  0  0  0
132133  1  0  0  0  0
121134  1  0  0  0  0
134135  2  0  0  0  0
135136  1  0  0  0  0
135137  1  0  0  0  0
137138  2  0  0  0  0
138139  1  0  0  0  0
139140  2  0  0  0  0
140141  1  0  0  0  0
141142  1  0  0  0  0
142143  1  0  0  0  0
143144  1  0  0  0  0
144145  1  0  0  0  0
143146  2  0  0  0  0
146147  1  0  0  0  0
146148  1  0  0  0  0
148149  1  0  0  0  0
140150  1  0  0  0  0
150151  2  0  0  0  0
151152  1  0  0  0  0
152153  1  0  0  0  0
153154  1  0  0  0  0
154155  1  0  0  0  0
155156  1  0  0  0  0
156157  1  0  0  0  0
155158  2  0  0  0  0
158159  1  0  0  0  0
159160  1  0  0  0  0
158161  1  0  0  0  0
152162  2  0  0  0  0
162163  1  0  0  0  0
151164  1  0  0  0  0
164165  2  0  0  0  0
165166  1  0  0  0  0
 27  1  1  0  0  0  0
 57 31  1  0  0  0  0
 87 61  1  0  0  0  0
 95 91  2  0  0  0  0
133107  1  0  0  0  0
163137  1  0  0  0  0
 26  3  1  0  0  0  0
 56 33  1  0  0  0  0
 86 63  1  0  0  0  0
132109  1  0  0  0  0
162139  1  0  0  0  0
 12  5  2  0  0  0  0
 30 14  1  0  0  0  0
 42 35  2  0  0  0  0
 60 44  1  0  0  0  0
 72 65  2  0  0  0  0
 90 74  1  0  0  0  0
118111  2  0  0  0  0
136120  1  0  0  0  0
148141  2  0  0  0  0
166150  1  0  0  0  0
 23 17  2  0  0  0  0
 53 47  2  0  0  0  0
 83 77  2  0  0  0  0
129123  2  0  0  0  0
159153  2  0  0  0  0
  1167  1  0  0  0  0
  2168  1  0  0  0  0
  8169  1  0  0  0  0
  8170  1  0  0  0  0
  9171  1  0  0  0  0
  9172  1  0  0  0  0
  9173  1  0  0  0  0
 20174  1  0  0  0  0
 20175  1  0  0  0  0
 21176  1  0  0  0  0
 21177  1  0  0  0  0
 21178  1  0  0  0  0
 28179  1  0  0  0  0
 32180  1  0  0  0  0
 38181  1  0  0  0  0
 38182  1  0  0  0  0
 39183  1  0  0  0  0
 39184  1  0  0  0  0
 39185  1  0  0  0  0
 50186  1  0  0  0  0
 50187  1  0  0  0  0
 51188  1  0  0  0  0
 51189  1  0  0  0  0
 51190  1  0  0  0  0
 58191  1  0  0  0  0
 62192  1  0  0  0  0
 68193  1  0  0  0  0
 68194  1  0  0  0  0
 69195  1  0  0  0  0
 69196  1  0  0  0  0
 69197  1  0  0  0  0
 80198  1  0  0  0  0
 80199  1  0  0  0  0
 81200  1  0  0  0  0
 81201  1  0  0  0  0
 81202  1  0  0  0  0
 88203  1  0  0  0  0
 96204  1  0  0  0  0
 96205  1  0  0  0  0
 97206  1  0  0  0  0
 97207  1  0  0  0  0
 97208  1  0  0  0  0
 99209  1  0  0  0  0
 99210  1  0  0  0  0
100211  1  0  0  0  0
100212  1  0  0  0  0
102213  1  0  0  0  0
103214  1  0  0  0  0
104215  1  0  0  0  0
105216  1  0  0  0  0
106217  1  0  0  0  0
108218  1  0  0  0  0
114219  1  0  0  0  0
114220  1  0  0  0  0
115221  1  0  0  0  0
115222  1  0  0  0  0
115223  1  0  0  0  0
126224  1  0  0  0  0
126225  1  0  0  0  0
127226  1  0  0  0  0
127227  1  0  0  0  0
127228  1  0  0  0  0
134229  1  0  0  0  0
138230  1  0  0  0  0
144231  1  0  0  0  0
144232  1  0  0  0  0
145233  1  0  0  0  0
145234  1  0  0  0  0
145235  1  0  0  0  0
156236  1  0  0  0  0
156237  1  0  0  0  0
157238  1  0  0  0  0
157239  1  0  0  0  0
157240  1  0  0  0  0
164241  1  0  0  0  0
165242  1  0  0  0  0
M  END
