
  xtb     03042207453D
 energy: -453.003240732069 gnorm: 0.000411445275 xtb: 6.4.1 (unknown)
262283  0     0  0            999 V2000
    3.9633   -7.0095    3.6018 C   0  0  0  0  0  0  0  0  0  0  0  0
    3.8154   -5.6717    3.6381 C   0  0  0  0  0  0  0  0  0  0  0  0
    2.5211   -5.2372    3.2274 C   0  0  0  0  0  0  0  0  0  0  0  0
    2.0320   -3.9237    3.1514 C   0  0  0  0  0  0  0  0  0  0  0  0
    2.7831   -2.7802    3.6855 C   0  0  0  0  0  0  0  0  0  0  0  0
    2.9398   -1.5945    2.9691 C   0  0  0  0  0  0  0  0  0  0  0  0
    3.5776   -0.5135    3.5344 C   0  0  0  0  0  0  0  0  0  0  0  0
    4.0911   -0.5534    4.8324 C   0  0  0  0  0  0  0  0  0  0  0  0
    4.8634    0.9392    5.3814 S   0  0  0  0  0  0  0  0  0  0  0  0
    5.7439    0.5408    6.9433 C   0  0  0  0  0  0  0  0  0  0  0  0
    6.6550    1.7049    7.2816 C   0  0  0  0  0  0  0  0  0  0  0  0
    3.9218   -1.7403    5.5386 C   0  0  0  0  0  0  0  0  0  0  0  0
    4.3574   -1.8704    6.8144 F   0  0  0  0  0  0  0  0  0  0  0  0
    3.2909   -2.8350    4.9801 C   0  0  0  0  0  0  0  0  0  0  0  0
    0.7625   -3.7683    2.6130 C   0  0  0  0  0  0  0  0  0  0  0  0
   -0.0636   -4.8600    2.2524 C   0  0  0  0  0  0  0  0  0  0  0  0
    0.3934   -6.1793    2.4118 C   0  0  0  0  0  0  0  0  0  0  0  0
   -0.4925   -7.3189    2.1542 C   0  0  0  0  0  0  0  0  0  0  0  0
   -1.7848   -7.3315    2.6762 C   0  0  0  0  0  0  0  0  0  0  0  0
   -2.6409   -8.3906    2.4506 C   0  0  0  0  0  0  0  0  0  0  0  0
   -2.2430   -9.4772    1.6795 C   0  0  0  0  0  0  0  0  0  0  0  0
   -3.2350  -10.8876    1.3170 S   0  0  0  0  0  0  0  0  0  0  0  0
   -4.9389  -10.3286    1.6639 C   0  0  0  0  0  0  0  0  0  0  0  0
   -5.4148   -9.2808    0.6760 C   0  0  0  0  0  0  0  0  0  0  0  0
   -0.9400   -9.4624    1.1810 C   0  0  0  0  0  0  0  0  0  0  0  0
   -0.0724   -8.4185    1.4092 C   0  0  0  0  0  0  0  0  0  0  0  0
   -0.5088  -10.5023    0.4374 F   0  0  0  0  0  0  0  0  0  0  0  0
    1.7024   -6.3295    2.8514 C   0  0  0  0  0  0  0  0  0  0  0  0
    2.5438   -7.8444    3.0724 S   0  0  0  0  0  0  0  0  0  0  0  0
   -1.2960   -4.4287    1.7042 C   0  0  0  0  0  0  0  0  0  0  0  0
   -1.4459   -3.0726    1.6545 C   0  0  0  0  0  0  0  0  0  0  0  0
   -0.0433   -2.2495    2.3178 S   0  0  0  0  0  0  0  0  0  0  0  0
   -2.5516   -2.3832    1.0734 C   0  0  0  0  0  0  0  0  0  0  0  0
   -3.8434   -3.3487    0.4009 S   0  0  0  0  0  0  0  0  0  0  0  0
   -4.6710   -1.9529   -0.2208 C   0  0  0  0  0  0  0  0  0  0  0  0
   -3.9748   -0.8055    0.1260 C   0  0  0  0  0  0  0  0  0  0  0  0
   -2.7964   -1.0409    0.8767 C   0  0  0  0  0  0  0  0  0  0  0  0
   -1.9538    0.1027    1.3484 C   0  0  0  0  0  0  0  0  0  0  0  0
   -0.9328    0.5133    0.2895 C   0  0  0  0  0  0  0  0  0  0  0  0
   -4.2967    0.4715   -0.2634 O   0  0  0  0  0  0  0  0  0  0  0  0
   -5.4092    1.0929    0.3674 C   0  0  0  0  0  0  0  0  0  0  0  0
   -5.6242    2.4026   -0.3622 C   0  0  0  0  0  0  0  0  0  0  0  0
   -7.2008    3.1776    0.0906 S   0  0  0  0  0  4  0  0  0  0  0  0
   -6.3245    4.0882    1.2867 O   0  0  0  0  0  0  0  0  0  0  0  0
   -7.1848    4.4748   -0.8866 O   0  0  0  0  0  0  0  0  0  0  0  0
   -7.9419    2.1903   -1.2060 O   0  0  0  0  0  0  0  0  0  0  0  0
   -5.8563   -2.1581   -0.9924 C   0  0  0  0  0  0  0  0  0  0  0  0
   -6.4131   -1.2046   -1.7699 C   0  0  0  0  0  0  0  0  0  0  0  0
   -7.5479   -1.2796   -2.6308 C   0  0  0  0  0  0  0  0  0  0  0  0
   -7.8998    0.2125   -3.4549 S   0  0  0  0  0  0  0  0  0  0  0  0
   -9.1244   -0.5243   -4.4286 C   0  0  0  0  0  0  0  0  0  0  0  0
   -9.2831   -1.8491   -4.0672 C   0  0  0  0  0  0  0  0  0  0  0  0
   -8.3865   -2.2915   -3.0606 C   0  0  0  0  0  0  0  0  0  0  0  0
   -8.4044   -3.7047   -2.5731 C   0  0  0  0  0  0  0  0  0  0  0  0
   -9.0838   -3.8123   -1.2069 C   0  0  0  0  0  0  0  0  0  0  0  0
  -10.2058   -2.6970   -4.6246 O   0  0  0  0  0  0  0  0  0  0  0  0
  -10.0850   -2.9213   -6.0188 C   0  0  0  0  0  0  0  0  0  0  0  0
   -8.8383   -3.7175   -6.3667 C   0  0  0  0  0  0  0  0  0  0  0  0
   -8.5865   -3.6751   -8.1658 S   0  0  0  0  0  4  0  0  0  0  0  0
   -7.7023   -5.0036   -8.4261 O   0  0  0  0  0  0  0  0  0  0  0  0
  -10.0456   -4.6043   -8.3138 O   0  0  0  0  0  0  0  0  0  0  0  0
   -7.0984   -2.6944   -7.8385 O   0  0  0  0  0  0  0  0  0  0  0  0
   -9.8199    0.2299   -5.4500 C   0  0  0  0  0  0  0  0  0  0  0  0
   -9.2315    1.1478   -6.2312 C   0  0  0  0  0  0  0  0  0  0  0  0
   -7.7963    1.3658   -6.1542 C   0  0  0  0  0  0  0  0  0  0  0  0
   -6.8330    0.4224   -6.2996 C   0  0  0  0  0  0  0  0  0  0  0  0
   -5.5547    0.8449   -5.8438 C   0  0  0  0  0  0  0  0  0  0  0  0
   -4.4176    0.0475   -5.6774 C   0  0  0  0  0  0  0  0  0  0  0  0
   -4.4337   -1.3807   -6.0405 C   0  0  0  0  0  0  0  0  0  0  0  0
   -3.7367   -1.8525   -7.1426 C   0  0  0  0  0  0  0  0  0  0  0  0
   -3.7965   -3.1863   -7.5038 C   0  0  0  0  0  0  0  0  0  0  0  0
   -4.5421   -4.0847   -6.7547 C   0  0  0  0  0  0  0  0  0  0  0  0
   -4.7934   -5.7946   -7.1325 S   0  0  0  0  0  0  0  0  0  0  0  0
   -3.7014   -6.1164   -8.5599 C   0  0  0  0  0  0  0  0  0  0  0  0
   -2.2443   -6.2351   -8.1537 C   0  0  0  0  0  0  0  0  0  0  0  0
   -5.2023   -3.6000   -5.6266 C   0  0  0  0  0  0  0  0  0  0  0  0
   -5.9182   -4.4623   -4.8716 F   0  0  0  0  0  0  0  0  0  0  0  0
   -5.1677   -2.2738   -5.2673 C   0  0  0  0  0  0  0  0  0  0  0  0
   -3.3223    0.6343   -5.0737 C   0  0  0  0  0  0  0  0  0  0  0  0
   -3.3216    1.9779   -4.6256 C   0  0  0  0  0  0  0  0  0  0  0  0
   -4.4763    2.7719   -4.7544 C   0  0  0  0  0  0  0  0  0  0  0  0
   -4.5569    4.0952   -4.1276 C   0  0  0  0  0  0  0  0  0  0  0  0
   -4.1075    4.2747   -2.8205 C   0  0  0  0  0  0  0  0  0  0  0  0
   -4.1979    5.4967   -2.1864 C   0  0  0  0  0  0  0  0  0  0  0  0
   -4.7435    6.5956   -2.8399 C   0  0  0  0  0  0  0  0  0  0  0  0
   -4.8820    8.2150   -2.1696 S   0  0  0  0  0  0  0  0  0  0  0  0
   -4.4108    8.0175   -0.4164 C   0  0  0  0  0  0  0  0  0  0  0  0
   -5.5067    7.3667    0.4067 C   0  0  0  0  0  0  0  0  0  0  0  0
   -5.1960    6.4021   -4.1473 C   0  0  0  0  0  0  0  0  0  0  0  0
   -5.1166    5.1866   -4.7889 C   0  0  0  0  0  0  0  0  0  0  0  0
   -5.7292    7.4470   -4.8148 F   0  0  0  0  0  0  0  0  0  0  0  0
   -5.5648    2.1851   -5.3855 C   0  0  0  0  0  0  0  0  0  0  0  0
   -7.1515    2.8894   -5.5643 S   0  0  0  0  0  0  0  0  0  0  0  0
   -2.0936    2.3146   -4.0067 C   0  0  0  0  0  0  0  0  0  0  0  0
   -1.2198    1.2695   -3.9092 C   0  0  0  0  0  0  0  0  0  0  0  0
   -1.8422   -0.1877   -4.6560 S   0  0  0  0  0  0  0  0  0  0  0  0
    0.0039    1.2806   -3.1730 C   0  0  0  0  0  0  0  0  0  0  0  0
    0.5809    2.3741   -2.5963 C   0  0  0  0  0  0  0  0  0  0  0  0
    1.6721    2.0662   -1.7504 C   0  0  0  0  0  0  0  0  0  0  0  0
    2.4344    2.9654   -0.9849 C   0  0  0  0  0  0  0  0  0  0  0  0
    2.0857    4.3897   -0.9278 C   0  0  0  0  0  0  0  0  0  0  0  0
    3.0420    5.3877   -1.1054 C   0  0  0  0  0  0  0  0  0  0  0  0
    2.6858    6.7174   -1.0513 C   0  0  0  0  0  0  0  0  0  0  0  0
    1.3666    7.1163   -0.8302 C   0  0  0  0  0  0  0  0  0  0  0  0
    1.0612    8.8554   -0.8706 S   0  0  0  0  0  0  0  0  0  0  0  0
   -0.3545    9.1391    0.2545 C   0  0  0  0  0  0  0  0  0  0  0  0
   -0.0679    8.6771    1.6688 C   0  0  0  0  0  0  0  0  0  0  0  0
    0.4223    6.1084   -0.6636 C   0  0  0  0  0  0  0  0  0  0  0  0
   -0.8893    6.3955   -0.4710 F   0  0  0  0  0  0  0  0  0  0  0  0
    0.7685    4.7731   -0.6902 C   0  0  0  0  0  0  0  0  0  0  0  0
    3.4852    2.4233   -0.2618 C   0  0  0  0  0  0  0  0  0  0  0  0
    3.7560    1.0318   -0.2275 C   0  0  0  0  0  0  0  0  0  0  0  0
    2.9737    0.1264   -0.9713 C   0  0  0  0  0  0  0  0  0  0  0  0
    3.2289   -1.3159   -0.8789 C   0  0  0  0  0  0  0  0  0  0  0  0
    4.5287   -1.8240   -0.9310 C   0  0  0  0  0  0  0  0  0  0  0  0
    4.7751   -3.1593   -0.7030 C   0  0  0  0  0  0  0  0  0  0  0  0
    3.7413   -4.0584   -0.4384 C   0  0  0  0  0  0  0  0  0  0  0  0
    4.2092   -5.7072   -0.0263 S   0  0  0  0  0  0  0  0  0  0  0  0
    2.8298   -6.7528   -0.6375 C   0  0  0  0  0  0  0  0  0  0  0  0
    3.2937   -8.1957   -0.6710 C   0  0  0  0  0  0  0  0  0  0  0  0
    2.4449   -3.5550   -0.4670 C   0  0  0  0  0  0  0  0  0  0  0  0
    2.1866   -2.2152   -0.6756 C   0  0  0  0  0  0  0  0  0  0  0  0
    1.3791   -4.3627   -0.2744 F   0  0  0  0  0  0  0  0  0  0  0  0
    1.9467    0.6753   -1.7249 C   0  0  0  0  0  0  0  0  0  0  0  0
    0.8353   -0.1999   -2.7485 S   0  0  0  0  0  0  0  0  0  0  0  0
    4.8097    0.7312    0.6684 C   0  0  0  0  0  0  0  0  0  0  0  0
    5.3553    1.8266    1.2734 C   0  0  0  0  0  0  0  0  0  0  0  0
    4.5712    3.3096    0.7791 S   0  0  0  0  0  0  0  0  0  0  0  0
    6.4324    1.8073    2.2108 C   0  0  0  0  0  0  0  0  0  0  0  0
    7.0630    0.6906    2.6759 C   0  0  0  0  0  0  0  0  0  0  0  0
    8.0991    0.9659    3.6001 C   0  0  0  0  0  0  0  0  0  0  0  0
    8.9130    0.0403    4.2733 C   0  0  0  0  0  0  0  0  0  0  0  0
    8.6461   -1.3979    4.1530 C   0  0  0  0  0  0  0  0  0  0  0  0
    7.3483   -1.8604    4.3643 C   0  0  0  0  0  0  0  0  0  0  0  0
    7.0442   -3.1967    4.2493 C   0  0  0  0  0  0  0  0  0  0  0  0
    8.0179   -4.1276    3.9002 C   0  0  0  0  0  0  0  0  0  0  0  0
    7.5336   -5.8218    3.7671 S   0  0  0  0  0  0  0  0  0  0  0  0
    8.4010   -6.3667    2.2403 C   0  0  0  0  0  0  0  0  0  0  0  0
    7.5426   -7.3911    1.5251 C   0  0  0  0  0  0  0  0  0  0  0  0
    9.3160   -3.6592    3.7161 C   0  0  0  0  0  0  0  0  0  0  0  0
   10.3095   -4.5183    3.4013 F   0  0  0  0  0  0  0  0  0  0  0  0
    9.6371   -2.3206    3.8383 C   0  0  0  0  0  0  0  0  0  0  0  0
    9.9076    0.5639    5.0845 C   0  0  0  0  0  0  0  0  0  0  0  0
   10.0814    1.9550    5.2890 C   0  0  0  0  0  0  0  0  0  0  0  0
    9.2348    2.8772    4.6545 C   0  0  0  0  0  0  0  0  0  0  0  0
    9.3469    4.3196    4.9035 C   0  0  0  0  0  0  0  0  0  0  0  0
    9.3585    4.8224    6.2042 C   0  0  0  0  0  0  0  0  0  0  0  0
    9.4423    6.1783    6.4307 C   0  0  0  0  0  0  0  0  0  0  0  0
    9.5328    7.0888    5.3769 C   0  0  0  0  0  0  0  0  0  0  0  0
    9.6849    8.7921    5.8096 S   0  0  0  0  0  0  0  0  0  0  0  0
    8.9278    9.6938    4.3988 C   0  0  0  0  0  0  0  0  0  0  0  0
    8.5136   11.0736    4.8710 C   0  0  0  0  0  0  0  0  0  0  0  0
    9.5412    6.5699    4.0856 C   0  0  0  0  0  0  0  0  0  0  0  0
    9.4327    5.2153    3.8441 C   0  0  0  0  0  0  0  0  0  0  0  0
    9.6732    7.3793    3.0103 F   0  0  0  0  0  0  0  0  0  0  0  0
    8.2728    2.3568    3.7999 C   0  0  0  0  0  0  0  0  0  0  0  0
    7.1009    3.2741    2.8894 S   0  0  0  0  0  0  0  0  0  0  0  0
   11.1758    2.2204    6.1659 C   0  0  0  0  0  0  0  0  0  0  0  0
   11.7725    1.0987    6.6164 C   0  0  0  0  0  0  0  0  0  0  0  0
   11.0601   -0.3591    6.0136 S   0  0  0  0  0  0  0  0  0  0  0  0
    4.8381   -7.5776    3.8492 H   0  0  0  0  0  0  0  0  0  0  0  0
    4.6068   -5.0040    3.9191 H   0  0  0  0  0  0  0  0  0  0  0  0
    2.5731   -1.5222    1.9572 H   0  0  0  0  0  0  0  0  0  0  0  0
    3.6884    0.4024    2.9765 H   0  0  0  0  0  0  0  0  0  0  0  0
    6.3208   -0.3695    6.7892 H   0  0  0  0  0  0  0  0  0  0  0  0
    4.9999    0.3805    7.7221 H   0  0  0  0  0  0  0  0  0  0  0  0
    7.3839    1.8611    6.4893 H   0  0  0  0  0  0  0  0  0  0  0  0
    7.1848    1.4952    8.2082 H   0  0  0  0  0  0  0  0  0  0  0  0
    6.0801    2.6201    7.4056 H   0  0  0  0  0  0  0  0  0  0  0  0
    3.1704   -3.7201    5.5861 H   0  0  0  0  0  0  0  0  0  0  0  0
   -2.1171   -6.5098    3.2926 H   0  0  0  0  0  0  0  0  0  0  0  0
   -3.6247   -8.3656    2.8905 H   0  0  0  0  0  0  0  0  0  0  0  0
   -4.9921   -9.9838    2.6959 H   0  0  0  0  0  0  0  0  0  0  0  0
   -5.5269  -11.2421    1.5745 H   0  0  0  0  0  0  0  0  0  0  0  0
   -4.8009   -8.3842    0.7289 H   0  0  0  0  0  0  0  0  0  0  0  0
   -6.4461   -9.0091    0.8931 H   0  0  0  0  0  0  0  0  0  0  0  0
   -5.3639   -9.6709   -0.3378 H   0  0  0  0  0  0  0  0  0  0  0  0
    0.9160   -8.4675    0.9838 H   0  0  0  0  0  0  0  0  0  0  0  0
   -2.0355   -5.1026    1.3104 H   0  0  0  0  0  0  0  0  0  0  0  0
   -2.6114    0.9513    1.5475 H   0  0  0  0  0  0  0  0  0  0  0  0
   -1.4412   -0.1614    2.2744 H   0  0  0  0  0  0  0  0  0  0  0  0
   -1.4440    0.7997   -0.6269 H   0  0  0  0  0  0  0  0  0  0  0  0
   -0.3363    1.3521    0.6415 H   0  0  0  0  0  0  0  0  0  0  0  0
   -0.2630   -0.3141    0.0736 H   0  0  0  0  0  0  0  0  0  0  0  0
   -5.1959    1.2690    1.4307 H   0  0  0  0  0  0  0  0  0  0  0  0
   -6.3052    0.4636    0.2912 H   0  0  0  0  0  0  0  0  0  0  0  0
   -5.6817    2.2225   -1.4316 H   0  0  0  0  0  0  0  0  0  0  0  0
   -4.8480    3.1191   -0.1213 H   0  0  0  0  0  0  0  0  0  0  0  0
   -6.8937    4.7079    1.7422 H   0  0  0  0  0  0  0  0  0  0  0  0
   -7.4872    4.2023   -1.7595 H   0  0  0  0  0  0  0  0  0  0  0  0
   -8.8754    2.0505   -1.0536 H   0  0  0  0  0  0  0  0  0  0  0  0
   -6.2610   -3.1573   -0.9522 H   0  0  0  0  0  0  0  0  0  0  0  0
   -5.9253   -0.2405   -1.8118 H   0  0  0  0  0  0  0  0  0  0  0  0
   -7.3868   -4.0958   -2.5238 H   0  0  0  0  0  0  0  0  0  0  0  0
   -8.9640   -4.3018   -3.2947 H   0  0  0  0  0  0  0  0  0  0  0  0
   -8.5798   -3.1887   -0.4717 H   0  0  0  0  0  0  0  0  0  0  0  0
   -9.0693   -4.8430   -0.8605 H   0  0  0  0  0  0  0  0  0  0  0  0
  -10.1184   -3.4861   -1.2815 H   0  0  0  0  0  0  0  0  0  0  0  0
  -10.9798   -3.4753   -6.3050 H   0  0  0  0  0  0  0  0  0  0  0  0
  -10.0623   -1.9688   -6.5649 H   0  0  0  0  0  0  0  0  0  0  0  0
   -8.9355   -4.7634   -6.0954 H   0  0  0  0  0  0  0  0  0  0  0  0
   -7.9609   -3.2719   -5.9097 H   0  0  0  0  0  0  0  0  0  0  0  0
   -6.8339   -4.9391   -8.0019 H   0  0  0  0  0  0  0  0  0  0  0  0
  -10.1071   -5.0194   -9.1732 H   0  0  0  0  0  0  0  0  0  0  0  0
   -6.7736   -2.3104   -8.6527 H   0  0  0  0  0  0  0  0  0  0  0  0
  -10.8802    0.0333   -5.5498 H   0  0  0  0  0  0  0  0  0  0  0  0
   -9.8132    1.7549   -6.9098 H   0  0  0  0  0  0  0  0  0  0  0  0
   -7.0261   -0.5721   -6.6644 H   0  0  0  0  0  0  0  0  0  0  0  0
   -3.1581   -1.1655   -7.7420 H   0  0  0  0  0  0  0  0  0  0  0  0
   -3.2674   -3.5101   -8.3851 H   0  0  0  0  0  0  0  0  0  0  0  0
   -4.0711   -7.0621   -8.9561 H   0  0  0  0  0  0  0  0  0  0  0  0
   -3.8673   -5.3399   -9.3053 H   0  0  0  0  0  0  0  0  0  0  0  0
   -1.8890   -5.3169   -7.6909 H   0  0  0  0  0  0  0  0  0  0  0  0
   -2.1196   -7.0462   -7.4403 H   0  0  0  0  0  0  0  0  0  0  0  0
   -1.6319   -6.4444   -9.0287 H   0  0  0  0  0  0  0  0  0  0  0  0
   -5.7082   -1.9419   -4.3949 H   0  0  0  0  0  0  0  0  0  0  0  0
   -3.7006    3.4343   -2.2805 H   0  0  0  0  0  0  0  0  0  0  0  0
   -3.8346    5.5836   -1.1765 H   0  0  0  0  0  0  0  0  0  0  0  0
   -3.4719    7.4681   -0.3699 H   0  0  0  0  0  0  0  0  0  0  0  0
   -4.2318    9.0412   -0.0846 H   0  0  0  0  0  0  0  0  0  0  0  0
   -5.7503    6.3752    0.0325 H   0  0  0  0  0  0  0  0  0  0  0  0
   -5.1824    7.2761    1.4419 H   0  0  0  0  0  0  0  0  0  0  0  0
   -6.4078    7.9751    0.3747 H   0  0  0  0  0  0  0  0  0  0  0  0
   -5.4712    5.1056   -5.8041 H   0  0  0  0  0  0  0  0  0  0  0  0
   -1.8723    3.2977   -3.6362 H   0  0  0  0  0  0  0  0  0  0  0  0
    0.2440    3.3770   -2.7789 H   0  0  0  0  0  0  0  0  0  0  0  0
    4.0682    5.1186   -1.3004 H   0  0  0  0  0  0  0  0  0  0  0  0
    3.4303    7.4857   -1.1897 H   0  0  0  0  0  0  0  0  0  0  0  0
   -0.4840   10.2208    0.2141 H   0  0  0  0  0  0  0  0  0  0  0  0
   -1.2392    8.6643   -0.1627 H   0  0  0  0  0  0  0  0  0  0  0  0
   -0.8993    8.9467    2.3170 H   0  0  0  0  0  0  0  0  0  0  0  0
    0.8373    9.1473    2.0469 H   0  0  0  0  0  0  0  0  0  0  0  0
    0.0619    7.5978    1.7096 H   0  0  0  0  0  0  0  0  0  0  0  0
   -0.0018    4.0371   -0.5174 H   0  0  0  0  0  0  0  0  0  0  0  0
    5.3495   -1.1667   -1.1734 H   0  0  0  0  0  0  0  0  0  0  0  0
    5.7853   -3.5379   -0.7224 H   0  0  0  0  0  0  0  0  0  0  0  0
    2.5728   -6.3937   -1.6333 H   0  0  0  0  0  0  0  0  0  0  0  0
    1.9806   -6.6230    0.0308 H   0  0  0  0  0  0  0  0  0  0  0  0
    3.5669   -8.5326    0.3272 H   0  0  0  0  0  0  0  0  0  0  0  0
    4.1602   -8.3047   -1.3195 H   0  0  0  0  0  0  0  0  0  0  0  0
    2.4945   -8.8302   -1.0486 H   0  0  0  0  0  0  0  0  0  0  0  0
    1.1594   -1.8881   -0.6420 H   0  0  0  0  0  0  0  0  0  0  0  0
    5.1344   -0.2694    0.8804 H   0  0  0  0  0  0  0  0  0  0  0  0
    6.8055   -0.3047    2.3657 H   0  0  0  0  0  0  0  0  0  0  0  0
    6.5722   -1.1586    4.6181 H   0  0  0  0  0  0  0  0  0  0  0  0
    6.0357   -3.5359    4.4229 H   0  0  0  0  0  0  0  0  0  0  0  0
    9.3678   -6.7802    2.5254 H   0  0  0  0  0  0  0  0  0  0  0  0
    8.5466   -5.4803    1.6254 H   0  0  0  0  0  0  0  0  0  0  0  0
    8.0387   -7.7108    0.6112 H   0  0  0  0  0  0  0  0  0  0  0  0
    6.5749   -6.9647    1.2684 H   0  0  0  0  0  0  0  0  0  0  0  0
    7.3833   -8.2628    2.1560 H   0  0  0  0  0  0  0  0  0  0  0  0
   10.6577   -2.0126    3.6735 H   0  0  0  0  0  0  0  0  0  0  0  0
    9.2699    4.1444    7.0395 H   0  0  0  0  0  0  0  0  0  0  0  0
    9.4385    6.5652    7.4379 H   0  0  0  0  0  0  0  0  0  0  0  0
    9.6608    9.7568    3.5960 H   0  0  0  0  0  0  0  0  0  0  0  0
    8.0668    9.1142    4.0698 H   0  0  0  0  0  0  0  0  0  0  0  0
    9.3770   11.6292    5.2298 H   0  0  0  0  0  0  0  0  0  0  0  0
    7.7905   11.0002    5.6802 H   0  0  0  0  0  0  0  0  0  0  0  0
    8.0634   11.6226    4.0468 H   0  0  0  0  0  0  0  0  0  0  0  0
    9.4503    4.8711    2.8219 H   0  0  0  0  0  0  0  0  0  0  0  0
   11.4980    3.2130    6.4232 H   0  0  0  0  0  0  0  0  0  0  0  0
   12.6130    1.0197    7.2779 H   0  0  0  0  0  0  0  0  0  0  0  0
  1  2  2  0  0  0  0
  2  3  1  0  0  0  0
  3  4  2  0  0  0  0
  4  5  1  0  0  0  0
  5  6  2  0  0  0  0
  6  7  1  0  0  0  0
  7  8  2  0  0  0  0
  8  9  1  0  0  0  0
  9 10  1  0  0  0  0
 10 11  1  0  0  0  0
  8 12  1  0  0  0  0
 12 13  1  0  0  0  0
 12 14  2  0  0  0  0
  4 15  1  0  0  0  0
 15 16  2  0  0  0  0
 16 17  1  0  0  0  0
 17 18  1  0  0  0  0
 18 19  2  0  0  0  0
 19 20  1  0  0  0  0
 20 21  2  0  0  0  0
 21 22  1  0  0  0  0
 22 23  1  0  0  0  0
 23 24  1  0  0  0  0
 21 25  1  0  0  0  0
 25 26  2  0  0  0  0
 25 27  1  0  0  0  0
 17 28  2  0  0  0  0
 28 29  1  0  0  0  0
 16 30  1  0  0  0  0
 30 31  2  0  0  0  0
 31 32  1  0  0  0  0
 31 33  1  0  0  0  0
 33 34  1  0  0  0  0
 34 35  1  0  0  0  0
 35 36  2  0  0  0  0
 36 37  1  0  0  0  0
 37 38  1  0  0  0  0
 38 39  1  0  0  0  0
 36 40  1  0  0  0  0
 40 41  1  0  0  0  0
 41 42  1  0  0  0  0
 42 43  1  0  0  0  0
 43 44  1  0  0  0  0
 43 45  1  0  0  0  0
 43 46  1  0  0  0  0
 35 47  1  0  0  0  0
 47 48  2  0  0  0  0
 48 49  1  0  0  0  0
 49 50  1  0  0  0  0
 50 51  1  0  0  0  0
 51 52  2  0  0  0  0
 52 53  1  0  0  0  0
 53 54  1  0  0  0  0
 54 55  1  0  0  0  0
 52 56  1  0  0  0  0
 56 57  1  0  0  0  0
 57 58  1  0  0  0  0
 58 59  1  0  0  0  0
 59 60  1  0  0  0  0
 59 61  1  0  0  0  0
 59 62  1  0  0  0  0
 51 63  1  0  0  0  0
 63 64  2  0  0  0  0
 64 65  1  0  0  0  0
 65 66  2  0  0  0  0
 66 67  1  0  0  0  0
 67 68  2  0  0  0  0
 68 69  1  0  0  0  0
 69 70  2  0  0  0  0
 70 71  1  0  0  0  0
 71 72  2  0  0  0  0
 72 73  1  0  0  0  0
 73 74  1  0  0  0  0
 74 75  1  0  0  0  0
 72 76  1  0  0  0  0
 76 77  1  0  0  0  0
 76 78  2  0  0  0  0
 68 79  1  0  0  0  0
 79 80  2  0  0  0  0
 80 81  1  0  0  0  0
 81 82  1  0  0  0  0
 82 83  2  0  0  0  0
 83 84  1  0  0  0  0
 84 85  2  0  0  0  0
 85 86  1  0  0  0  0
 86 87  1  0  0  0  0
 87 88  1  0  0  0  0
 85 89  1  0  0  0  0
 89 90  2  0  0  0  0
 89 91  1  0  0  0  0
 81 92  2  0  0  0  0
 92 93  1  0  0  0  0
 80 94  1  0  0  0  0
 94 95  2  0  0  0  0
 95 96  1  0  0  0  0
 95 97  1  0  0  0  0
 97 98  2  0  0  0  0
 98 99  1  0  0  0  0
 99100  2  0  0  0  0
100101  1  0  0  0  0
101102  2  0  0  0  0
102103  1  0  0  0  0
103104  2  0  0  0  0
104105  1  0  0  0  0
105106  1  0  0  0  0
106107  1  0  0  0  0
104108  1  0  0  0  0
108109  1  0  0  0  0
108110  2  0  0  0  0
100111  1  0  0  0  0
111112  2  0  0  0  0
112113  1  0  0  0  0
113114  1  0  0  0  0
114115  2  0  0  0  0
115116  1  0  0  0  0
116117  2  0  0  0  0
117118  1  0  0  0  0
118119  1  0  0  0  0
119120  1  0  0  0  0
117121  1  0  0  0  0
121122  2  0  0  0  0
121123  1  0  0  0  0
113124  2  0  0  0  0
124125  1  0  0  0  0
112126  1  0  0  0  0
126127  2  0  0  0  0
127128  1  0  0  0  0
127129  1  0  0  0  0
129130  2  0  0  0  0
130131  1  0  0  0  0
131132  2  0  0  0  0
132133  1  0  0  0  0
133134  2  0  0  0  0
134135  1  0  0  0  0
135136  2  0  0  0  0
136137  1  0  0  0  0
137138  1  0  0  0  0
138139  1  0  0  0  0
136140  1  0  0  0  0
140141  1  0  0  0  0
140142  2  0  0  0  0
132143  1  0  0  0  0
143144  2  0  0  0  0
144145  1  0  0  0  0
145146  1  0  0  0  0
146147  2  0  0  0  0
147148  1  0  0  0  0
148149  2  0  0  0  0
149150  1  0  0  0  0
150151  1  0  0  0  0
151152  1  0  0  0  0
149153  1  0  0  0  0
153154  2  0  0  0  0
153155  1  0  0  0  0
145156  2  0  0  0  0
156157  1  0  0  0  0
144158  1  0  0  0  0
158159  2  0  0  0  0
159160  1  0  0  0  0
 29  1  1  0  0  0  0
 37 33  2  0  0  0  0
 53 49  2  0  0  0  0
 93 65  1  0  0  0  0
125 97  1  0  0  0  0
157129  1  0  0  0  0
 28  3  1  0  0  0  0
 92 67  1  0  0  0  0
124 99  1  0  0  0  0
156131  1  0  0  0  0
 14  5  1  0  0  0  0
 32 15  1  0  0  0  0
 78 69  1  0  0  0  0
 96 79  1  0  0  0  0
110101  1  0  0  0  0
128111  1  0  0  0  0
142133  1  0  0  0  0
160143  1  0  0  0  0
 26 18  1  0  0  0  0
 90 82  1  0  0  0  0
122114  1  0  0  0  0
154146  1  0  0  0  0
  1161  1  0  0  0  0
  2162  1  0  0  0  0
  6163  1  0  0  0  0
  7164  1  0  0  0  0
 10165  1  0  0  0  0
 10166  1  0  0  0  0
 11167  1  0  0  0  0
 11168  1  0  0  0  0
 11169  1  0  0  0  0
 14170  1  0  0  0  0
 19171  1  0  0  0  0
 20172  1  0  0  0  0
 23173  1  0  0  0  0
 23174  1  0  0  0  0
 24175  1  0  0  0  0
 24176  1  0  0  0  0
 24177  1  0  0  0  0
 26178  1  0  0  0  0
 30179  1  0  0  0  0
 38180  1  0  0  0  0
 38181  1  0  0  0  0
 39182  1  0  0  0  0
 39183  1  0  0  0  0
 39184  1  0  0  0  0
 41185  1  0  0  0  0
 41186  1  0  0  0  0
 42187  1  0  0  0  0
 42188  1  0  0  0  0
 44189  1  0  0  0  0
 45190  1  0  0  0  0
 46191  1  0  0  0  0
 47192  1  0  0  0  0
 48193  1  0  0  0  0
 54194  1  0  0  0  0
 54195  1  0  0  0  0
 55196  1  0  0  0  0
 55197  1  0  0  0  0
 55198  1  0  0  0  0
 57199  1  0  0  0  0
 57200  1  0  0  0  0
 58201  1  0  0  0  0
 58202  1  0  0  0  0
 60203  1  0  0  0  0
 61204  1  0  0  0  0
 62205  1  0  0  0  0
 63206  1  0  0  0  0
 64207  1  0  0  0  0
 66208  1  0  0  0  0
 70209  1  0  0  0  0
 71210  1  0  0  0  0
 74211  1  0  0  0  0
 74212  1  0  0  0  0
 75213  1  0  0  0  0
 75214  1  0  0  0  0
 75215  1  0  0  0  0
 78216  1  0  0  0  0
 83217  1  0  0  0  0
 84218  1  0  0  0  0
 87219  1  0  0  0  0
 87220  1  0  0  0  0
 88221  1  0  0  0  0
 88222  1  0  0  0  0
 88223  1  0  0  0  0
 90224  1  0  0  0  0
 94225  1  0  0  0  0
 98226  1  0  0  0  0
102227  1  0  0  0  0
103228  1  0  0  0  0
106229  1  0  0  0  0
106230  1  0  0  0  0
107231  1  0  0  0  0
107232  1  0  0  0  0
107233  1  0  0  0  0
110234  1  0  0  0  0
115235  1  0  0  0  0
116236  1  0  0  0  0
119237  1  0  0  0  0
119238  1  0  0  0  0
120239  1  0  0  0  0
120240  1  0  0  0  0
120241  1  0  0  0  0
122242  1  0  0  0  0
126243  1  0  0  0  0
130244  1  0  0  0  0
134245  1  0  0  0  0
135246  1  0  0  0  0
138247  1  0  0  0  0
138248  1  0  0  0  0
139249  1  0  0  0  0
139250  1  0  0  0  0
139251  1  0  0  0  0
142252  1  0  0  0  0
147253  1  0  0  0  0
148254  1  0  0  0  0
151255  1  0  0  0  0
151256  1  0  0  0  0
152257  1  0  0  0  0
152258  1  0  0  0  0
152259  1  0  0  0  0
154260  1  0  0  0  0
158261  1  0  0  0  0
159262  1  0  0  0  0
M  END
