
  xtb     02282218373D
 energy: -408.359247961940 gnorm: 0.000607886643 xtb: 6.4.1 (unknown)
218235  0     0  0            999 V2000
    3.6152   -2.8931   10.3434 C   0  0  0  0  0  0  0  0  0  0  0  0
    4.4088   -2.7738    9.2598 C   0  0  0  0  0  0  0  0  0  0  0  0
    3.6787   -2.8145    8.0362 C   0  0  0  0  0  0  0  0  0  0  0  0
    4.1666   -2.6593    6.7325 C   0  0  0  0  0  0  0  0  0  0  0  0
    5.5883   -2.4353    6.4876 C   0  0  0  0  0  0  0  0  0  0  0  0
    6.7782   -3.6586    6.8053 S   0  0  0  0  0  0  0  0  0  0  0  0
    8.0822   -2.6181    6.3420 C   0  0  0  0  0  0  0  0  0  0  0  0
    9.4989   -3.0684    6.4279 C   0  0  0  0  0  0  0  0  0  0  0  0
   10.0549   -2.8670    7.8396 C   0  0  0  0  0  0  0  0  0  0  0  0
    7.6063   -1.3952    5.9789 C   0  0  0  0  0  0  0  0  0  0  0  0
    8.6066   -0.0811    5.5188 Cl  0  0  0  0  0  0  0  0  0  0  0  0
    6.1909   -1.2948    6.0444 C   0  0  0  0  0  0  0  0  0  0  0  0
    5.3404    0.1381    5.6581 Cl  0  0  0  0  0  0  0  0  0  0  0  0
    3.2408   -2.6922    5.7008 C   0  0  0  0  0  0  0  0  0  0  0  0
    1.8499   -2.8596    5.9169 C   0  0  0  0  0  0  0  0  0  0  0  0
    1.3595   -3.0133    7.2236 C   0  0  0  0  0  0  0  0  0  0  0  0
   -0.0573   -3.1767    7.5062 C   0  0  0  0  0  0  0  0  0  0  0  0
   -1.2389   -2.0164    6.9686 S   0  0  0  0  0  0  0  0  0  0  0  0
   -2.5294   -2.8344    7.7819 C   0  0  0  0  0  0  0  0  0  0  0  0
   -3.9073   -2.2752    7.8159 C   0  0  0  0  0  0  0  0  0  0  0  0
   -4.0407   -1.2485    8.9445 C   0  0  0  0  0  0  0  0  0  0  0  0
   -2.0592   -3.9467    8.4130 C   0  0  0  0  0  0  0  0  0  0  0  0
   -0.6617   -4.1471    8.2560 C   0  0  0  0  0  0  0  0  0  0  0  0
    0.1433   -5.5217    8.8874 Cl  0  0  0  0  0  0  0  0  0  0  0  0
   -3.0440   -5.0189    9.3212 Cl  0  0  0  0  0  0  0  0  0  0  0  0
    2.2914   -2.9837    8.2563 C   0  0  0  0  0  0  0  0  0  0  0  0
    1.9385   -3.0675    9.9593 S   0  0  0  0  0  0  0  0  0  0  0  0
    1.1302   -2.8791    4.6959 C   0  0  0  0  0  0  0  0  0  0  0  0
    1.9219   -2.7365    3.5927 C   0  0  0  0  0  0  0  0  0  0  0  0
    3.6104   -2.5702    4.0092 S   0  0  0  0  0  0  0  0  0  0  0  0
    1.5083   -2.6978    2.2246 C   0  0  0  0  0  0  0  0  0  0  0  0
    0.2468   -2.4794    1.7521 C   0  0  0  0  0  0  0  0  0  0  0  0
    0.1646   -2.4603    0.3383 C   0  0  0  0  0  0  0  0  0  0  0  0
   -0.9670   -2.2336   -0.4698 C   0  0  0  0  0  0  0  0  0  0  0  0
   -2.2959   -2.1151    0.1071 C   0  0  0  0  0  0  0  0  0  0  0  0
   -2.6529   -1.0648    1.4498 S   0  0  0  0  0  0  0  0  0  0  0  0
   -4.3152   -1.5397    1.4854 C   0  0  0  0  0  0  0  0  0  0  0  0
   -5.2610   -1.0317    2.5175 C   0  0  0  0  0  0  0  0  0  0  0  0
   -5.1916   -1.8879    3.7848 C   0  0  0  0  0  0  0  0  0  0  0  0
   -4.5629   -2.4659    0.5169 C   0  0  0  0  0  0  0  0  0  0  0  0
   -6.0997   -3.1837    0.2522 Cl  0  0  0  0  0  0  0  0  0  0  0  0
   -3.4257   -2.7948   -0.2651 C   0  0  0  0  0  0  0  0  0  0  0  0
   -3.4808   -4.0179   -1.4647 Cl  0  0  0  0  0  0  0  0  0  0  0  0
   -0.7558   -2.1743   -1.8445 C   0  0  0  0  0  0  0  0  0  0  0  0
    0.5087   -2.4132   -2.4389 C   0  0  0  0  0  0  0  0  0  0  0  0
    1.6155   -2.7427   -1.6374 C   0  0  0  0  0  0  0  0  0  0  0  0
    2.9058   -3.0915   -2.2108 C   0  0  0  0  0  0  0  0  0  0  0  0
    3.7121   -2.0775   -3.3716 S   0  0  0  0  0  0  0  0  0  0  0  0
    5.0736   -3.1375   -3.4865 C   0  0  0  0  0  0  0  0  0  0  0  0
    6.2055   -2.8303   -4.4038 C   0  0  0  0  0  0  0  0  0  0  0  0
    5.7617   -2.8753   -5.8666 C   0  0  0  0  0  0  0  0  0  0  0  0
    4.8961   -4.2162   -2.6743 C   0  0  0  0  0  0  0  0  0  0  0  0
    3.6730   -4.1939   -1.9503 C   0  0  0  0  0  0  0  0  0  0  0  0
    3.1953   -5.4876   -0.9320 Cl  0  0  0  0  0  0  0  0  0  0  0  0
    6.0284   -5.4973   -2.5159 Cl  0  0  0  0  0  0  0  0  0  0  0  0
    1.4219   -2.7214   -0.2605 C   0  0  0  0  0  0  0  0  0  0  0  0
    2.6582   -2.9409    0.9378 S   0  0  0  0  0  0  0  0  0  0  0  0
    0.4670   -2.2876   -3.8491 C   0  0  0  0  0  0  0  0  0  0  0  0
   -0.7574   -1.9396   -4.3396 C   0  0  0  0  0  0  0  0  0  0  0  0
   -1.9412   -1.7716   -3.0551 S   0  0  0  0  0  0  0  0  0  0  0  0
   -1.1392   -1.7175   -5.7036 C   0  0  0  0  0  0  0  0  0  0  0  0
   -2.4424   -0.6129   -6.0647 S   0  0  0  0  0  0  0  0  0  0  0  0
   -2.2954   -0.8918   -7.7724 C   0  0  0  0  0  0  0  0  0  0  0  0
   -1.2912   -1.8119   -8.0124 C   0  0  0  0  0  0  0  0  0  0  0  0
   -0.6165   -2.2695   -6.8527 C   0  0  0  0  0  0  0  0  0  0  0  0
    0.5407   -3.2152   -6.9359 C   0  0  0  0  0  0  0  0  0  0  0  0
    1.8327   -2.4515   -7.2378 C   0  0  0  0  0  0  0  0  0  0  0  0
   -0.9443   -2.2046   -9.2812 O   0  0  0  0  0  0  0  0  0  0  0  0
   -1.5667   -3.4124   -9.7119 C   0  0  0  0  0  0  0  0  0  0  0  0
   -0.8237   -3.9180  -10.9272 C   0  0  0  0  0  0  0  0  0  0  0  0
   -1.4349   -5.5792  -11.4060 S   0  0  0  0  0  4  0  0  0  0  0  0
   -0.8049   -6.2538   -9.8492 O   0  0  0  0  0  0  0  0  0  0  0  0
   -2.8926   -5.7049  -10.7415 O   0  0  0  0  0  0  0  0  0  0  0  0
   -2.1507   -4.8337  -12.7893 O   0  0  0  0  0  0  0  0  0  0  0  0
   -3.1480   -0.3359   -8.7890 C   0  0  0  0  0  0  0  0  0  0  0  0
   -3.9019    0.7757   -8.7417 C   0  0  0  0  0  0  0  0  0  0  0  0
   -3.8501    1.7310   -7.6633 C   0  0  0  0  0  0  0  0  0  0  0  0
   -2.7259    2.2068   -7.0701 C   0  0  0  0  0  0  0  0  0  0  0  0
   -2.9821    2.9951   -5.9212 C   0  0  0  0  0  0  0  0  0  0  0  0
   -2.0347    3.4442   -4.9919 C   0  0  0  0  0  0  0  0  0  0  0  0
   -0.6213    3.1825   -5.2491 C   0  0  0  0  0  0  0  0  0  0  0  0
    0.2776    4.0198   -6.4737 S   0  0  0  0  0  0  0  0  0  0  0  0
    1.6663    3.0084   -6.2500 C   0  0  0  0  0  0  0  0  0  0  0  0
    2.9227    3.2389   -7.0151 C   0  0  0  0  0  0  0  0  0  0  0  0
    3.8047    4.2757   -6.3152 C   0  0  0  0  0  0  0  0  0  0  0  0
    1.4296    2.0857   -5.2759 C   0  0  0  0  0  0  0  0  0  0  0  0
    2.5534    0.8784   -4.8019 Cl  0  0  0  0  0  0  0  0  0  0  0  0
    0.1323    2.1840   -4.7064 C   0  0  0  0  0  0  0  0  0  0  0  0
   -0.4503    1.1229   -3.5001 Cl  0  0  0  0  0  0  0  0  0  0  0  0
   -2.5170    3.9351   -3.7913 C   0  0  0  0  0  0  0  0  0  0  0  0
   -3.9027    4.0715   -3.5291 C   0  0  0  0  0  0  0  0  0  0  0  0
   -4.8504    3.7377   -4.5132 C   0  0  0  0  0  0  0  0  0  0  0  0
   -6.2664    3.9367   -4.2678 C   0  0  0  0  0  0  0  0  0  0  0  0
   -7.4433    2.6905   -4.5543 S   0  0  0  0  0  0  0  0  0  0  0  0
   -8.7504    3.6970   -4.0323 C   0  0  0  0  0  0  0  0  0  0  0  0
  -10.1450    3.1791   -3.9734 C   0  0  0  0  0  0  0  0  0  0  0  0
  -10.3928    2.4230   -2.6656 C   0  0  0  0  0  0  0  0  0  0  0  0
   -8.2863    4.9230   -3.6580 C   0  0  0  0  0  0  0  0  0  0  0  0
   -6.8799    5.0640   -3.7909 C   0  0  0  0  0  0  0  0  0  0  0  0
   -6.0634    6.5359   -3.4536 Cl  0  0  0  0  0  0  0  0  0  0  0  0
   -9.2900    6.1943   -3.0896 Cl  0  0  0  0  0  0  0  0  0  0  0  0
   -4.3652    3.1433   -5.6730 C   0  0  0  0  0  0  0  0  0  0  0  0
   -5.3063    2.3628   -6.9151 S   0  0  0  0  0  0  0  0  0  0  0  0
   -4.1472    4.3298   -2.1527 C   0  0  0  0  0  0  0  0  0  0  0  0
   -3.0203    4.3672   -1.3976 C   0  0  0  0  0  0  0  0  0  0  0  0
   -1.5602    4.2497   -2.3715 S   0  0  0  0  0  0  0  0  0  0  0  0
   -2.9052    4.1443    0.0237 C   0  0  0  0  0  0  0  0  0  0  0  0
   -1.9079    5.0902    1.0777 S   0  0  0  0  0  0  0  0  0  0  0  0
   -2.0562    3.9085    2.3598 C   0  0  0  0  0  0  0  0  0  0  0  0
   -2.8874    2.8861    1.9777 C   0  0  0  0  0  0  0  0  0  0  0  0
   -3.3718    3.0143    0.6405 C   0  0  0  0  0  0  0  0  0  0  0  0
   -4.1694    1.9305   -0.0209 C   0  0  0  0  0  0  0  0  0  0  0  0
   -3.3255    1.1469   -1.0290 C   0  0  0  0  0  0  0  0  0  0  0  0
   -3.2902    1.7806    2.6649 O   0  0  0  0  0  0  0  0  0  0  0  0
   -2.9810    1.6158    4.0320 C   0  0  0  0  0  0  0  0  0  0  0  0
   -3.7357    2.5918    4.9185 C   0  0  0  0  0  0  0  0  0  0  0  0
   -4.0467    1.9182    6.6059 S   0  0  0  0  0  4  0  0  0  0  0  0
   -2.4605    1.3071    6.7959 O   0  0  0  0  0  0  0  0  0  0  0  0
   -5.7704    2.4540    6.5062 O   0  0  0  0  0  0  0  0  0  0  0  0
   -4.5791    0.4519    6.2203 O   0  0  0  0  0  0  0  0  0  0  0  0
   -1.2191    4.0698    3.5420 C   0  0  0  0  0  0  0  0  0  0  0  0
   -0.1495    3.2954    3.7907 C   0  0  0  0  0  0  0  0  0  0  0  0
    0.4174    2.3144    2.9086 C   0  0  0  0  0  0  0  0  0  0  0  0
    0.0057    2.2671    1.2183 S   0  0  0  0  0  0  0  0  0  0  0  0
    1.2843    1.1627    0.8609 C   0  0  0  0  0  0  0  0  0  0  0  0
    1.9511    0.8043    2.0166 C   0  0  0  0  0  0  0  0  0  0  0  0
    1.4540    1.4439    3.1808 C   0  0  0  0  0  0  0  0  0  0  0  0
    1.9905    1.1490    4.5473 C   0  0  0  0  0  0  0  0  0  0  0  0
    0.9278    0.5462    5.4682 C   0  0  0  0  0  0  0  0  0  0  0  0
    2.9926   -0.0906    2.0434 O   0  0  0  0  0  0  0  0  0  0  0  0
    4.2861    0.4974    1.8917 C   0  0  0  0  0  0  0  0  0  0  0  0
    5.2573   -0.6029    1.5217 C   0  0  0  0  0  0  0  0  0  0  0  0
    7.0023   -0.0811    1.7210 S   0  0  0  0  0  4  0  0  0  0  0  0
    6.6569    1.1855    0.5832 O   0  0  0  0  0  0  0  0  0  0  0  0
    7.2701   -1.3524    2.9851 O   0  0  0  0  0  0  0  0  0  0  0  0
    6.9827    0.9799    2.9127 O   0  0  0  0  0  0  0  0  0  0  0  0
    1.4795    0.8378   -0.5250 C   0  0  0  0  0  0  0  0  0  0  0  0
    2.4730    0.1286   -1.0507 C   0  0  0  0  0  0  0  0  0  0  0  0
    3.9051   -2.8927   11.3759 H   0  0  0  0  0  0  0  0  0  0  0  0
    5.4759   -2.6553    9.3064 H   0  0  0  0  0  0  0  0  0  0  0  0
    9.5597   -4.1250    6.1614 H   0  0  0  0  0  0  0  0  0  0  0  0
   10.0923   -2.4935    5.7145 H   0  0  0  0  0  0  0  0  0  0  0  0
   11.0890   -3.1976    7.8844 H   0  0  0  0  0  0  0  0  0  0  0  0
    9.4740   -3.4397    8.5587 H   0  0  0  0  0  0  0  0  0  0  0  0
   10.0128   -1.8162    8.1153 H   0  0  0  0  0  0  0  0  0  0  0  0
   -4.6126   -3.0931    7.9743 H   0  0  0  0  0  0  0  0  0  0  0  0
   -4.1340   -1.7868    6.8683 H   0  0  0  0  0  0  0  0  0  0  0  0
   -3.3713   -0.4102    8.7670 H   0  0  0  0  0  0  0  0  0  0  0  0
   -5.0595   -0.8737    8.9852 H   0  0  0  0  0  0  0  0  0  0  0  0
   -3.7957   -1.7032    9.9011 H   0  0  0  0  0  0  0  0  0  0  0  0
    0.0664   -3.0210    4.6420 H   0  0  0  0  0  0  0  0  0  0  0  0
   -0.5922   -2.3057    2.3991 H   0  0  0  0  0  0  0  0  0  0  0  0
   -5.0174    0.0031    2.7574 H   0  0  0  0  0  0  0  0  0  0  0  0
   -6.2730   -1.0698    2.1097 H   0  0  0  0  0  0  0  0  0  0  0  0
   -4.1916   -1.8556    4.2114 H   0  0  0  0  0  0  0  0  0  0  0  0
   -5.8981   -1.5219    4.5248 H   0  0  0  0  0  0  0  0  0  0  0  0
   -5.4350   -2.9220    3.5534 H   0  0  0  0  0  0  0  0  0  0  0  0
    6.9982   -3.5596   -4.2313 H   0  0  0  0  0  0  0  0  0  0  0  0
    6.5951   -1.8349   -4.1781 H   0  0  0  0  0  0  0  0  0  0  0  0
    4.9794   -2.1406   -6.0445 H   0  0  0  0  0  0  0  0  0  0  0  0
    6.6020   -2.6557   -6.5197 H   0  0  0  0  0  0  0  0  0  0  0  0
    5.3776   -3.8620   -6.1140 H   0  0  0  0  0  0  0  0  0  0  0  0
    1.3390   -2.3986   -4.4621 H   0  0  0  0  0  0  0  0  0  0  0  0
    0.3649   -3.9292   -7.7419 H   0  0  0  0  0  0  0  0  0  0  0  0
    0.6333   -3.7730   -6.0031 H   0  0  0  0  0  0  0  0  0  0  0  0
    2.0246   -1.6955   -6.4794 H   0  0  0  0  0  0  0  0  0  0  0  0
    1.7474   -1.9523   -8.2002 H   0  0  0  0  0  0  0  0  0  0  0  0
    2.6767   -3.1368   -7.2718 H   0  0  0  0  0  0  0  0  0  0  0  0
   -1.5269   -4.1658   -8.9156 H   0  0  0  0  0  0  0  0  0  0  0  0
   -2.6194   -3.2294   -9.9635 H   0  0  0  0  0  0  0  0  0  0  0  0
    0.2347   -4.0237  -10.7016 H   0  0  0  0  0  0  0  0  0  0  0  0
   -0.9654   -3.2660  -11.7810 H   0  0  0  0  0  0  0  0  0  0  0  0
    0.0962   -6.5550   -9.9497 H   0  0  0  0  0  0  0  0  0  0  0  0
   -2.7868   -6.1409   -9.8890 H   0  0  0  0  0  0  0  0  0  0  0  0
   -2.7430   -5.4309  -13.2458 H   0  0  0  0  0  0  0  0  0  0  0  0
   -3.1733   -0.9263   -9.6961 H   0  0  0  0  0  0  0  0  0  0  0  0
   -4.5903    0.9823   -9.5494 H   0  0  0  0  0  0  0  0  0  0  0  0
   -1.7368    1.9650   -7.4149 H   0  0  0  0  0  0  0  0  0  0  0  0
    3.4624    2.2931   -7.0939 H   0  0  0  0  0  0  0  0  0  0  0  0
    2.6776    3.5879   -8.0195 H   0  0  0  0  0  0  0  0  0  0  0  0
    4.7200    4.4303   -6.8800 H   0  0  0  0  0  0  0  0  0  0  0  0
    3.2793    5.2243   -6.2344 H   0  0  0  0  0  0  0  0  0  0  0  0
    4.0638    3.9362   -5.3156 H   0  0  0  0  0  0  0  0  0  0  0  0
  -10.8356    4.0212   -4.0458 H   0  0  0  0  0  0  0  0  0  0  0  0
  -10.3177    2.5095   -4.8176 H   0  0  0  0  0  0  0  0  0  0  0  0
  -11.4131    2.0504   -2.6371 H   0  0  0  0  0  0  0  0  0  0  0  0
   -9.7099    1.5809   -2.5827 H   0  0  0  0  0  0  0  0  0  0  0  0
  -10.2384    3.0817   -1.8146 H   0  0  0  0  0  0  0  0  0  0  0  0
   -5.1329    4.4033   -1.7318 H   0  0  0  0  0  0  0  0  0  0  0  0
   -4.5173    1.2539    0.7580 H   0  0  0  0  0  0  0  0  0  0  0  0
   -5.0408    2.3484   -0.5262 H   0  0  0  0  0  0  0  0  0  0  0  0
   -2.3704    0.8723   -0.5880 H   0  0  0  0  0  0  0  0  0  0  0  0
   -3.8452    0.2408   -1.3325 H   0  0  0  0  0  0  0  0  0  0  0  0
   -3.1309    1.7354   -1.9205 H   0  0  0  0  0  0  0  0  0  0  0  0
   -1.9027    1.6768    4.2000 H   0  0  0  0  0  0  0  0  0  0  0  0
   -3.3177    0.5978    4.2507 H   0  0  0  0  0  0  0  0  0  0  0  0
   -4.7130    2.8044    4.4945 H   0  0  0  0  0  0  0  0  0  0  0  0
   -3.1871    3.5169    5.0700 H   0  0  0  0  0  0  0  0  0  0  0  0
   -2.1874    0.5313    6.3052 H   0  0  0  0  0  0  0  0  0  0  0  0
   -5.9075    3.2642    6.9919 H   0  0  0  0  0  0  0  0  0  0  0  0
   -5.5364    0.5320    6.1434 H   0  0  0  0  0  0  0  0  0  0  0  0
   -1.4455    4.8951    4.2052 H   0  0  0  0  0  0  0  0  0  0  0  0
    0.4021    3.4539    4.7080 H   0  0  0  0  0  0  0  0  0  0  0  0
    2.8063    0.4334    4.4379 H   0  0  0  0  0  0  0  0  0  0  0  0
    2.3935    2.0595    5.0004 H   0  0  0  0  0  0  0  0  0  0  0  0
    0.1532    1.2688    5.7116 H   0  0  0  0  0  0  0  0  0  0  0  0
    1.3860    0.2133    6.3968 H   0  0  0  0  0  0  0  0  0  0  0  0
    0.4619   -0.3131    4.9905 H   0  0  0  0  0  0  0  0  0  0  0  0
    4.5930    0.9636    2.8364 H   0  0  0  0  0  0  0  0  0  0  0  0
    4.2694    1.2692    1.1160 H   0  0  0  0  0  0  0  0  0  0  0  0
    5.0956   -1.4692    2.1532 H   0  0  0  0  0  0  0  0  0  0  0  0
    5.1684   -0.8786    0.4743 H   0  0  0  0  0  0  0  0  0  0  0  0
    7.3557    1.8386    0.5794 H   0  0  0  0  0  0  0  0  0  0  0  0
    7.4738   -2.1917    2.5769 H   0  0  0  0  0  0  0  0  0  0  0  0
    7.1565    0.5028    3.7390 H   0  0  0  0  0  0  0  0  0  0  0  0
    0.7328    1.2724   -1.1762 H   0  0  0  0  0  0  0  0  0  0  0  0
    2.5373   -0.0130   -2.1145 H   0  0  0  0  0  0  0  0  0  0  0  0
    3.2430   -0.3214   -0.4531 H   0  0  0  0  0  0  0  0  0  0  0  0
  1  2  2  0  0  0  0
  2  3  1  0  0  0  0
  3  4  2  0  0  0  0
  4  5  1  0  0  0  0
  5  6  1  0  0  0  0
  6  7  1  0  0  0  0
  7  8  1  0  0  0  0
  8  9  1  0  0  0  0
  7 10  2  0  0  0  0
 10 11  1  0  0  0  0
 10 12  1  0  0  0  0
 12 13  1  0  0  0  0
  4 14  1  0  0  0  0
 14 15  2  0  0  0  0
 15 16  1  0  0  0  0
 16 17  1  0  0  0  0
 17 18  1  0  0  0  0
 18 19  1  0  0  0  0
 19 20  1  0  0  0  0
 20 21  1  0  0  0  0
 19 22  2  0  0  0  0
 22 23  1  0  0  0  0
 23 24  1  0  0  0  0
 22 25  1  0  0  0  0
 16 26  2  0  0  0  0
 26 27  1  0  0  0  0
 15 28  1  0  0  0  0
 28 29  2  0  0  0  0
 29 30  1  0  0  0  0
 29 31  1  0  0  0  0
 31 32  2  0  0  0  0
 32 33  1  0  0  0  0
 33 34  2  0  0  0  0
 34 35  1  0  0  0  0
 35 36  1  0  0  0  0
 36 37  1  0  0  0  0
 37 38  1  0  0  0  0
 38 39  1  0  0  0  0
 37 40  2  0  0  0  0
 40 41  1  0  0  0  0
 40 42  1  0  0  0  0
 42 43  1  0  0  0  0
 34 44  1  0  0  0  0
 44 45  2  0  0  0  0
 45 46  1  0  0  0  0
 46 47  1  0  0  0  0
 47 48  1  0  0  0  0
 48 49  1  0  0  0  0
 49 50  1  0  0  0  0
 50 51  1  0  0  0  0
 49 52  2  0  0  0  0
 52 53  1  0  0  0  0
 53 54  1  0  0  0  0
 52 55  1  0  0  0  0
 46 56  2  0  0  0  0
 56 57  1  0  0  0  0
 45 58  1  0  0  0  0
 58 59  2  0  0  0  0
 59 60  1  0  0  0  0
 59 61  1  0  0  0  0
 61 62  1  0  0  0  0
 62 63  1  0  0  0  0
 63 64  2  0  0  0  0
 64 65  1  0  0  0  0
 65 66  1  0  0  0  0
 66 67  1  0  0  0  0
 64 68  1  0  0  0  0
 68 69  1  0  0  0  0
 69 70  1  0  0  0  0
 70 71  1  0  0  0  0
 71 72  1  0  0  0  0
 71 73  1  0  0  0  0
 71 74  1  0  0  0  0
 63 75  1  0  0  0  0
 75 76  2  0  0  0  0
 76 77  1  0  0  0  0
 77 78  2  0  0  0  0
 78 79  1  0  0  0  0
 79 80  2  0  0  0  0
 80 81  1  0  0  0  0
 81 82  1  0  0  0  0
 82 83  1  0  0  0  0
 83 84  1  0  0  0  0
 84 85  1  0  0  0  0
 83 86  2  0  0  0  0
 86 87  1  0  0  0  0
 86 88  1  0  0  0  0
 88 89  1  0  0  0  0
 80 90  1  0  0  0  0
 90 91  2  0  0  0  0
 91 92  1  0  0  0  0
 92 93  1  0  0  0  0
 93 94  1  0  0  0  0
 94 95  1  0  0  0  0
 95 96  1  0  0  0  0
 96 97  1  0  0  0  0
 95 98  2  0  0  0  0
 98 99  1  0  0  0  0
 99100  1  0  0  0  0
 98101  1  0  0  0  0
 92102  2  0  0  0  0
102103  1  0  0  0  0
 91104  1  0  0  0  0
104105  2  0  0  0  0
105106  1  0  0  0  0
105107  1  0  0  0  0
107108  1  0  0  0  0
108109  1  0  0  0  0
109110  2  0  0  0  0
110111  1  0  0  0  0
111112  1  0  0  0  0
112113  1  0  0  0  0
110114  1  0  0  0  0
114115  1  0  0  0  0
115116  1  0  0  0  0
116117  1  0  0  0  0
117118  1  0  0  0  0
117119  1  0  0  0  0
117120  1  0  0  0  0
109121  1  0  0  0  0
121122  2  0  0  0  0
122123  1  0  0  0  0
123124  1  0  0  0  0
124125  1  0  0  0  0
125126  2  0  0  0  0
126127  1  0  0  0  0
127128  1  0  0  0  0
128129  1  0  0  0  0
126130  1  0  0  0  0
130131  1  0  0  0  0
131132  1  0  0  0  0
132133  1  0  0  0  0
133134  1  0  0  0  0
133135  1  0  0  0  0
133136  1  0  0  0  0
125137  1  0  0  0  0
137138  2  0  0  0  0
 27  1  1  0  0  0  0
 57 31  1  0  0  0  0
 65 61  2  0  0  0  0
103 77  1  0  0  0  0
111107  2  0  0  0  0
127123  2  0  0  0  0
 26  3  1  0  0  0  0
 56 33  1  0  0  0  0
102 79  1  0  0  0  0
 12  5  2  0  0  0  0
 30 14  1  0  0  0  0
 42 35  2  0  0  0  0
 60 44  1  0  0  0  0
 88 81  2  0  0  0  0
106 90  1  0  0  0  0
 23 17  2  0  0  0  0
 53 47  2  0  0  0  0
 99 93  2  0  0  0  0
  1139  1  0  0  0  0
  2140  1  0  0  0  0
  8141  1  0  0  0  0
  8142  1  0  0  0  0
  9143  1  0  0  0  0
  9144  1  0  0  0  0
  9145  1  0  0  0  0
 20146  1  0  0  0  0
 20147  1  0  0  0  0
 21148  1  0  0  0  0
 21149  1  0  0  0  0
 21150  1  0  0  0  0
 28151  1  0  0  0  0
 32152  1  0  0  0  0
 38153  1  0  0  0  0
 38154  1  0  0  0  0
 39155  1  0  0  0  0
 39156  1  0  0  0  0
 39157  1  0  0  0  0
 50158  1  0  0  0  0
 50159  1  0  0  0  0
 51160  1  0  0  0  0
 51161  1  0  0  0  0
 51162  1  0  0  0  0
 58163  1  0  0  0  0
 66164  1  0  0  0  0
 66165  1  0  0  0  0
 67166  1  0  0  0  0
 67167  1  0  0  0  0
 67168  1  0  0  0  0
 69169  1  0  0  0  0
 69170  1  0  0  0  0
 70171  1  0  0  0  0
 70172  1  0  0  0  0
 72173  1  0  0  0  0
 73174  1  0  0  0  0
 74175  1  0  0  0  0
 75176  1  0  0  0  0
 76177  1  0  0  0  0
 78178  1  0  0  0  0
 84179  1  0  0  0  0
 84180  1  0  0  0  0
 85181  1  0  0  0  0
 85182  1  0  0  0  0
 85183  1  0  0  0  0
 96184  1  0  0  0  0
 96185  1  0  0  0  0
 97186  1  0  0  0  0
 97187  1  0  0  0  0
 97188  1  0  0  0  0
104189  1  0  0  0  0
112190  1  0  0  0  0
112191  1  0  0  0  0
113192  1  0  0  0  0
113193  1  0  0  0  0
113194  1  0  0  0  0
115195  1  0  0  0  0
115196  1  0  0  0  0
116197  1  0  0  0  0
116198  1  0  0  0  0
118199  1  0  0  0  0
119200  1  0  0  0  0
120201  1  0  0  0  0
121202  1  0  0  0  0
122203  1  0  0  0  0
128204  1  0  0  0  0
128205  1  0  0  0  0
129206  1  0  0  0  0
129207  1  0  0  0  0
129208  1  0  0  0  0
131209  1  0  0  0  0
131210  1  0  0  0  0
132211  1  0  0  0  0
132212  1  0  0  0  0
134213  1  0  0  0  0
135214  1  0  0  0  0
136215  1  0  0  0  0
137216  1  0  0  0  0
138217  1  0  0  0  0
138218  1  0  0  0  0
M  END
