242

C         -7.20350        3.90230       18.64370
C         -6.49850        4.80700       17.93450
C         -6.58320        4.59320       16.52780
C         -6.01080        5.35170       15.49510
C         -5.14200        6.48810       15.75700
S         -3.73590        6.32580       16.76880
C         -3.24310        7.95990       16.48390
C         -1.97740        8.49810       17.05390
C         -0.80200        8.23760       16.10840
C         -4.12450        8.58030       15.65040
Cl        -3.96530       10.20850       15.13240
C         -5.20400        7.75250       15.23990
Cl        -6.48440        8.33540       14.26130
C         -6.26580        4.93700       14.19370
C         -7.05990        3.80590       13.88190
C         -7.66040        3.06840       14.91570
C         -8.51060        1.92740       14.62430
S         -8.24010        0.37950       15.36760
C         -9.56970       -0.34260       14.52910
C         -9.88210       -1.79000       14.68240
C         -9.00830       -2.63880       13.75540
C        -10.17670        0.57390       13.72280
C         -9.58170        1.86260       13.77580
Cl       -10.21290        3.20720       12.91520
Cl       -11.53780        0.22900       12.73630
C         -7.39420        3.47630       16.21780
S         -8.01950        2.73410       17.66370
C         -7.07310        3.53810       12.48910
C         -6.34370        4.42760       11.75970
S         -5.58980        5.65140       12.76120
C         -6.10490        4.44860       10.35490
C         -5.35800        5.36680        9.67860
C         -5.22520        5.08680        8.29890
C         -4.52980        5.83270        7.32960
C         -3.82730        7.05140        7.69460
S         -2.71300        7.08120        9.03080
C         -2.39500        8.77080        8.83650
C         -1.51700        9.49470        9.79620
C         -2.22520        9.68920       11.13960
C         -3.10820        9.26610        7.78650
Cl        -3.06280       10.90620        7.28390
C         -3.91490        8.29500        7.13260
Cl        -4.96000        8.69860        5.83660
C         -4.54040        5.33860        6.03190
C         -5.23500        4.15780        5.66750
C         -5.95510        3.42940        6.63120
C         -6.69480        2.23270        6.26540
S         -7.87220        2.27430        4.98470
C         -8.27830        0.60530        5.19500
C         -9.34070       -0.03720        4.37360
C        -10.73190        0.30220        4.91300
C         -7.54090        0.06400        6.20490
C         -6.63940        0.98050        6.81120
Cl        -5.53990        0.50650        8.03690
Cl        -7.66090       -1.57220        6.70750
C         -5.92310        3.90810        7.93400
S         -6.72780        3.19660        9.30470
C         -5.01550        3.81490        4.31260
C         -4.18580        4.67780        3.65870
S         -3.65200        5.99130        4.68500
C         -3.68990        4.54490        2.32940
C         -2.80930        5.35130        1.67150
C         -2.41310        4.84390        0.40910
C         -1.44850        5.35850       -0.47590
C         -0.68220        6.55380       -0.16400
S         -0.57450        7.86820       -1.29610
C          0.47420        8.77720       -0.26120
C          1.02000       10.09290       -0.69360
C          1.99870        9.92250       -1.85640
C          0.72090        8.08560        0.88670
Cl         1.72570        8.65510        2.15610
C          0.06420        6.82610        0.94810
Cl         0.28020        5.73780        2.25860
C         -1.21600        4.64200       -1.64130
C         -1.89550        3.44200       -1.95680
C         -2.83680        2.90910       -1.06000
C         -3.47130        1.62710       -1.32030
S         -5.19990        1.44720       -1.31320
C         -5.10370       -0.23630       -1.70450
C         -6.33210       -1.04750       -1.92610
C         -6.86910       -0.84630       -3.34520
C         -3.80220       -0.61980       -1.83010
C         -2.87260        0.43080       -1.60450
Cl        -1.17440        0.17410       -1.61360
Cl        -3.30550       -2.21500       -2.21940
C         -3.07720        3.63080        0.09910
S         -4.13530        3.13450        1.38680
C         -1.44110        2.88230       -3.17080
C         -0.40330        3.55980       -3.74720
S         -0.00840        5.01170       -2.84130
C          0.38420        3.04110       -4.82170
S          0.22870        1.32850       -5.09100
C          1.53070        1.33160       -6.23150
C          2.02530        2.61900       -6.41370
C          1.36990        3.59680       -5.61690
C          1.72210        5.05280       -5.56290
C          3.06180        5.26530       -4.85560
O          3.10040        2.77820       -7.23950
C          3.10090        3.80780       -8.21390
C          1.85230        3.80160       -9.07530
S          1.86080        5.23200      -10.21870
O          2.18360        4.12360      -11.49250
O          1.67820        6.33950       -8.78470
O          3.39130        5.72090      -10.27210
C          1.94980        0.06580       -6.72270
C          3.05990       -0.21870       -7.43860
C          3.44870       -1.56080       -7.72900
C          2.88800       -2.72300       -7.27440
C          3.57250       -3.89140       -7.67450
C          3.29120       -5.22070       -7.30320
C          2.15750       -5.53610       -6.44940
S          0.54960       -4.99570       -6.84040
C         -0.12910       -5.71980       -5.42140
C         -1.58800       -5.63670       -5.13620
C         -2.38120       -6.60700       -6.01330
C          0.84300       -6.35160       -4.70610
Cl         0.56020       -7.18500       -3.23290
C          2.13900       -6.24650       -5.28130
Cl         3.53400       -6.87500       -4.50970
C          4.15410       -6.20100       -7.77440
C          5.27420       -5.89720       -8.58660
C          5.58180       -4.56590       -8.92040
C          6.78670       -4.27740       -9.68080
S          6.75170       -3.36750      -11.16060
C          8.44880       -3.58000      -11.42270
C          9.11680       -3.07640      -12.65440
C          9.17200       -4.17020      -13.72460
C          8.99790       -4.30970      -10.41040
C          8.06140       -4.70240       -9.41930
Cl         8.52630       -5.56510       -8.00760
Cl        10.65790       -4.72980      -10.32690
C          4.70770       -3.58940       -8.47010
S          4.87410       -1.87300       -8.70370
C          5.97170       -7.06020       -8.97950
C          5.45100       -8.21170       -8.46400
S          4.01700       -7.91740       -7.50880
C          6.03500       -9.50530       -8.62040
C          7.31220       -9.72810       -9.04500
C          7.65240      -11.09730       -9.12500
C          8.88870      -11.64860       -9.50010
C          9.95330      -10.77870       -9.97020
S         11.53660      -10.79040       -9.25290
C         12.08380       -9.48620      -10.24990
C         13.44240       -8.90010      -10.08520
C         13.42060       -7.76190       -9.06130
C         11.08850       -9.07940      -11.08800
Cl        11.25450       -7.80330      -12.22120
C          9.88200       -9.81140      -10.93630
Cl         8.50940       -9.53670      -11.93210
C          9.01970      -13.02550       -9.38350
C          7.96290      -13.86260       -8.95120
C          6.71320      -13.31290       -8.62140
C          5.60130      -14.14060       -8.18090
S          5.75370      -15.21770       -6.82400
C          4.09790      -15.70960       -6.92660
C          3.53550      -16.73750       -6.00790
C          3.72770      -18.14440       -6.57930
C          3.48130      -15.07900       -7.96540
C          4.32680      -14.18300       -8.67350
Cl         3.79850      -13.31750      -10.05490
Cl         1.83690      -15.32290       -8.38940
C          6.58670      -11.93170       -8.71070
S          5.18760      -10.99270       -8.26720
C          8.34980      -15.23510       -8.95690
C          9.62230      -15.41960       -9.36290
S         10.44100      -13.95180       -9.77380
H         -7.30740        3.83770       19.70920
H         -5.93670        5.60780       18.37870
H         -2.09000        9.57310       17.20760
H         -1.78260        8.02390       18.01710
H         -0.97860        8.71680       15.14880
H          0.11490        8.63560       16.53440
H         -0.67760        7.16960       15.94590
H         -9.71060       -2.08970       15.71760
H        -10.93460       -1.94880       14.44050
H         -9.24990       -3.69140       13.87520
H         -7.95680       -2.49210       13.99020
H         -9.17540       -2.35850       12.71850
H         -7.58310        2.70460       12.04150
H         -4.91560        6.21470       10.16820
H         -0.59820        8.92550        9.95210
H         -1.25870       10.46510        9.36970
H         -1.57760       10.22300       11.83000
H         -2.48230        8.72610       11.57490
H         -3.13840       10.26370       11.00620
H         -9.19180       -1.11810        4.39500
H         -9.25860        0.30790        3.34130
H        -11.49480       -0.17450        4.30350
H        -10.89120        1.37750        4.89510
H        -10.83510       -0.04720        5.93710
H         -5.42910        2.94290        3.83930
H         -2.44800        6.27350        2.08890
H          0.20060       10.74420       -1.00530
H          1.52600       10.55410        0.15530
H          2.82470        9.27970       -1.56280
H          2.39710       10.88830       -2.15530
H          1.49500        9.47210       -2.70760
H         -7.09590       -0.75400       -1.20400
H         -6.08870       -2.10010       -1.77180
H         -7.76360       -1.44460       -3.49510
H         -6.12230       -1.14590       -4.07610
H         -7.11610        0.19990       -3.50880
H         -1.85110        1.98690       -3.60050
H          0.94280        5.59140       -5.02200
H          1.76110        5.47430       -6.56850
H          3.32500        6.32000       -4.86220
H          2.99590        4.93170       -3.82240
H          3.85280        4.70300       -5.34680
H          3.22910        4.79090       -7.75170
H          3.97770        3.59330       -8.82990
H          0.95950        3.90670       -8.46140
H          1.79110        2.90590       -9.68400
H          2.44720        4.56980      -12.29700
H          0.76750        6.61380       -8.69450
H          3.50020        6.41470       -9.61250
H          1.30710       -0.74840       -6.41510
H          3.71260        0.57340       -7.77060
H          2.02320       -2.74850       -6.63930
H         -1.93550       -4.61780       -5.31870
H         -1.74890       -5.87490       -4.08360
H         -2.05720       -7.62870       -5.83380
H         -2.23060       -6.37390       -7.06490
H         -3.44140       -6.53280       -5.78660
H          8.56780       -2.21520      -13.03740
H         10.13260       -2.76290      -12.40400
H          9.72740       -5.02940      -13.35720
H          9.66340       -3.79480      -14.61810
H          8.16730       -4.49280      -13.98700
H          6.81510       -7.04690       -9.64280
H          8.00540       -8.93560       -9.25180
H         13.78010       -8.51510      -11.04960
H         14.13440       -9.67620       -9.75480
H         13.09070       -8.13120       -8.09320
H         14.41490       -7.33730       -8.95340
H         12.74040       -6.97770       -9.38360
H          4.03000      -16.66660       -5.03810
H          2.47000      -16.54170       -5.87380
H          3.30620      -18.88270       -5.90280
H          3.23110      -18.23010       -7.54230
H          4.78590      -18.35650       -6.71250
H          7.69380      -16.03620       -8.67050
H         10.15580      -16.34520       -9.45600
