234

C         -6.07700      -12.43030       12.30840
C         -6.42150      -11.12690       12.29910
C         -6.01450      -10.45510       11.10840
C         -6.17090       -9.10200       10.77970
C         -6.88220       -8.14900       11.64190
C         -6.28520       -6.94670       12.00750
C         -6.96120       -6.01020       12.76550
C         -8.26790       -6.24290       13.17860
S         -9.25990       -5.12130       14.10280
C         -8.10950       -3.74770       14.48560
C         -8.85230       -2.70840       15.30390
C         -8.85000       -7.45980       12.81580
F        -10.11620       -7.71790       13.20340
C         -8.18380       -8.40430       12.06840
C         -5.63090       -8.69090        9.57100
C         -4.95270       -9.55740        8.67990
C         -4.79070      -10.91170        9.01260
C         -4.06830      -11.83360        8.12860
C         -2.79880      -11.51520        7.64620
C         -2.12660      -12.38210        6.81360
C         -2.68530      -13.60100        6.42750
S         -1.70710      -14.63290        5.38420
C         -2.93720      -15.56060        4.38200
C         -2.27020      -16.02300        3.10150
C         -3.94050      -13.91720        6.93890
C         -4.62910      -13.05310        7.76590
F         -4.53550      -15.09510        6.64360
C         -5.33730      -11.32600       10.22060
S         -5.23930      -12.93810       10.88230
C         -4.56170       -8.88860        7.48870
C         -4.91460       -7.57390        7.46190
S         -5.75520       -7.07860        8.92140
C         -4.69770       -6.60290        6.44070
C         -5.14760       -5.31690        6.44700
C         -4.78850       -4.57720        5.29410
C         -5.06870       -3.22500        5.02710
C         -5.89500       -2.44960        5.95900
C         -7.11430       -2.95610        6.40450
C         -7.87060       -2.28140        7.34120
C         -7.42990       -1.07580        7.87550
S         -8.28640       -0.14610        9.10390
C         -9.36330       -1.38150        9.91390
C         -8.57190       -2.42650       10.67710
C         -6.23200       -0.55500        7.38370
F         -5.78640        0.62420        7.85980
C         -5.47080       -1.21510        6.44420
C         -4.51930       -2.69650        3.86970
C         -3.74010       -3.47170        2.97530
C         -3.45390       -4.82290        3.24370
C         -2.58410       -5.58280        2.33930
C         -1.37720       -5.03660        1.90590
C         -0.57830       -5.69130        0.99020
C         -0.95320       -6.92760        0.47540
S         -0.06270       -7.83350       -0.74230
C          1.13160       -6.62590       -1.41990
C          2.44290       -6.59140       -0.65800
C         -2.13500       -7.49060        0.96340
C         -2.94420       -6.84460        1.87140
F         -2.51690       -8.70140        0.51070
C         -4.00560       -5.34990        4.39990
S         -3.78190       -6.97750        4.99430
C         -3.33530       -2.72130        1.84770
C         -3.72990       -1.41490        1.87900
S         -4.69060       -1.05440        3.29770
C         -3.32820       -0.42200        0.93330
C         -2.35990       -0.60130       -0.01260
C         -2.07100        0.56120       -0.76120
C         -1.08860        0.71130       -1.75160
C         -0.17450       -0.38060       -2.11050
C          0.57480       -1.03730       -1.13530
C          1.48500       -2.01090       -1.48760
C          1.66880       -2.38080       -2.81780
S          2.87680       -3.62660       -3.16570
C          3.69560       -3.02470       -4.69000
C          4.19120       -1.59920       -4.55690
C          0.87600       -1.75500       -3.77470
F          0.95600       -2.11040       -5.07450
C         -0.01470       -0.75540       -3.43970
C         -0.98600        1.95990       -2.33810
C         -1.79890        3.06030       -1.96660
C         -2.77360        2.91030       -0.96300
C         -3.59810        4.05460       -0.55660
C         -4.98820        3.96970       -0.51690
C         -5.74980        5.08240       -0.22920
C         -5.16050        6.31400        0.05020
S         -6.23770        7.67780        0.37780
C         -5.40230        9.10190       -0.41720
C         -5.11030        8.85400       -1.88400
C         -3.77030        6.36420        0.08040
C         -2.99610        5.26670       -0.23280
F         -3.12170        7.50580        0.40850
C         -2.89300        1.65370       -0.38820
S         -3.96850        1.20850        0.91560
C         -1.46270        4.23000       -2.69440
C         -0.41110        4.05920       -3.54690
S          0.19260        2.41330       -3.53870
C          0.25710        5.02860       -4.34730
S          1.70050        4.59650       -5.20570
C          1.92640        6.22870       -5.75100
C          0.92950        7.06040       -5.28180
C         -0.04290        6.37250       -4.50890
O         -1.17090        6.87480       -3.94150
C         -1.74510        8.02680       -4.53470
C         -1.21820        9.31970       -3.91290
C          0.30330        9.32380       -3.88810
S          1.03190        8.81000       -5.48850
C          3.08000        6.51660       -6.53700
S          4.48630        5.52010       -6.34040
C          5.35080        6.40910       -7.55380
C          4.56550        7.41030       -8.09620
C          3.27460        7.48280       -7.50820
O          2.25320        8.31410       -7.84150
C          2.59730        9.61840       -8.28330
C          2.69460        9.70720       -9.80650
C          3.55290        8.58210      -10.36460
S          5.12480        8.39040       -9.45320
C          6.68030        6.01850       -7.88140
C          7.63660        6.69890       -8.57580
C          8.83950        5.96670       -8.74980
C         10.00970        6.38180       -9.40430
C         10.08150        7.68110      -10.08300
C         11.13340        8.56200       -9.84010
C         11.19160        9.77990      -10.48370
C         10.20790       10.16720      -11.38980
S         10.34980       11.77220      -12.12610
C          9.98860       11.45270      -13.89290
C         10.95580       10.45160      -14.49220
C          9.15400        9.28590      -11.60980
F          8.14920        9.60740      -12.45480
C          9.08920        8.05850      -10.98320
C         11.07920        5.49730       -9.38540
C         11.02990        4.23340       -8.74950
C          9.86510        3.82430       -8.08170
C          9.80060        2.55590       -7.34550
C         10.80000        2.21320       -6.43430
C         10.72090        1.04460       -5.71030
C          9.65140        0.16170       -5.86620
S          9.70450       -1.32080       -4.91080
C          7.94250       -1.77380       -4.65330
C          7.85200       -2.68880       -3.44750
C          8.67160        0.50740       -6.79160
C          8.73010        1.68400       -7.51120
F          7.62040       -0.31180       -7.02900
C          8.78860        4.69920       -8.11890
S          7.23880        4.43630       -7.36490
C         12.23960        3.50140       -8.94400
C         13.15140        4.17620       -9.67230
S         12.61640        5.74390      -10.17460
H         -6.26200      -13.15550       13.07670
H         -6.93430      -10.63690       13.10670
H         -5.26960       -6.74260       11.70480
H         -6.46050       -5.09280       13.02690
H         -7.27030       -4.16050       15.04570
H         -7.76240       -3.32370       13.54370
H         -9.21780       -3.14300       16.23120
H         -9.70270       -2.32210       14.74680
H         -8.18680       -1.88190       15.54360
H         -8.69050       -9.31780       11.79880
H         -2.33280      -10.58740        7.94110
H         -1.14570      -12.13150        6.44060
H         -3.29410      -16.40570        4.96880
H         -3.76130      -14.88050        4.17260
H         -2.98600      -16.57100        2.49260
H         -1.42910      -16.67590        3.32360
H         -1.90490      -15.17140        2.53210
H         -5.60780      -13.34370        8.11460
H         -4.05780       -9.37070        6.67000
H         -5.70350       -4.90670        7.27090
H         -7.48410       -3.88570        5.99870
H         -8.81170       -2.70390        7.65420
H         -9.96600       -0.77940       10.59380
H        -10.02230       -1.82300        9.16780
H         -9.25240       -3.09850       11.19720
H         -7.94950       -3.01600       10.00650
H         -7.92680       -1.94080       11.40640
H         -4.53850       -0.77780        6.12390
H         -1.04900       -4.08920        2.30640
H          0.34100       -5.22550        0.67550
H          0.64590       -5.65200       -1.45660
H          1.29780       -6.96710       -2.44140
H          3.10550       -5.86080       -1.11800
H          2.29180       -6.32180        0.38490
H          2.92070       -7.56740       -0.68930
H         -3.86350       -7.31520        2.18170
H         -2.78580       -3.14750        1.03000
H         -1.85040       -1.53350       -0.16900
H          0.47160       -0.74930       -0.10010
H          2.08660       -2.49610       -0.73430
H          4.52470       -3.72190       -4.81410
H          3.00860       -3.13990       -5.52580
H          3.36070       -0.89960       -4.48530
H          4.78160       -1.33770       -5.43250
H          4.81050       -1.48760       -3.66890
H         -0.59460       -0.29260       -4.22270
H         -5.47420        3.03540       -0.75130
H         -6.82690        5.02130       -0.22890
H         -6.12270        9.91050       -0.29300
H         -4.50100        9.34230        0.14250
H         -4.70370        9.75810       -2.33380
H         -6.02030        8.57850       -2.41310
H         -4.38410        8.05230       -2.00600
H         -1.92200        5.36130       -0.19540
H         -1.96910        5.16990       -2.59140
H         -2.82200        7.93660       -4.36490
H         -1.56100        8.02470       -5.61460
H         -1.58420        9.41470       -2.88850
H         -1.59300       10.15980       -4.49870
H          0.69130       10.32350       -3.69980
H          0.68870        8.64490       -3.12830
H          3.54060        9.93160       -7.82350
H          1.80080       10.26980       -7.91510
H          3.12230       10.67630      -10.06600
H          1.69890        9.63420      -10.24800
H          3.83950        8.77740      -11.39700
H          3.03810        7.62340      -10.31050
H          7.50790        7.70710       -8.92020
H         11.90320        8.29440       -9.13310
H         12.00620       10.46070      -10.29230
H          8.95450       11.12990      -13.98980
H         10.09960       12.43370      -14.35470
H         11.98230       10.78730      -14.36050
H         10.75740       10.34120      -15.55640
H         10.84820        9.47730      -14.01840
H          8.26190        7.40340      -11.20750
H         11.62690        2.88740       -6.27110
H         11.49060        0.79000       -4.99820
H          7.57920       -2.27030       -5.55180
H          7.39200       -0.84830       -4.49180
H          8.44380       -3.58750       -3.60630
H          8.22330       -2.18570       -2.55740
H          6.81760       -2.98040       -3.27930
H          7.94480        1.89200       -8.22070
H         12.39430        2.50630       -8.56850
H         14.13270        3.85480       -9.96210
