
  xtb     03022211053D
 energy: -445.108056778557 gnorm: 0.000519213215 xtb: 6.4.1 (unknown)
225250  0     0  0            999 V2000
    5.5913    1.9838    5.9042 C   0  0  0  0  0  0  0  0  0  0  0  0
    4.2470    2.0352    5.9939 C   0  0  0  0  0  0  0  0  0  0  0  0
    3.6003    1.2404    5.0040 C   0  0  0  0  0  0  0  0  0  0  0  0
    2.2276    1.0863    4.7701 C   0  0  0  0  0  0  0  0  0  0  0  0
    1.2178    1.6865    5.6273 C   0  0  0  0  0  0  0  0  0  0  0  0
   -0.0477    2.6799    4.9714 S   0  0  0  0  0  0  0  0  0  0  0  0
   -0.8063    2.8631    6.5180 C   0  0  0  0  0  0  0  0  0  0  0  0
   -2.0332    3.6911    6.6807 C   0  0  0  0  0  0  0  0  0  0  0  0
   -1.6974    5.1833    6.7176 C   0  0  0  0  0  0  0  0  0  0  0  0
   -0.0982    2.2017    7.4770 C   0  0  0  0  0  0  0  0  0  0  0  0
   -0.5456    2.1434    9.1335 Cl  0  0  0  0  0  0  0  0  0  0  0  0
    1.0530    1.5354    6.9754 C   0  0  0  0  0  0  0  0  0  0  0  0
    2.0813    0.5854    7.9692 Cl  0  0  0  0  0  0  0  0  0  0  0  0
    1.8587    0.3166    3.6757 C   0  0  0  0  0  0  0  0  0  0  0  0
    2.7824   -0.3280    2.8185 C   0  0  0  0  0  0  0  0  0  0  0  0
    4.1576   -0.2184    3.0888 C   0  0  0  0  0  0  0  0  0  0  0  0
    5.1440   -0.9511    2.3150 C   0  0  0  0  0  0  0  0  0  0  0  0
    5.2003   -0.8734    0.5806 S   0  0  0  0  0  0  0  0  0  0  0  0
    6.5397   -1.9634    0.4927 C   0  0  0  0  0  0  0  0  0  0  0  0
    7.0996   -2.4085   -0.8113 C   0  0  0  0  0  0  0  0  0  0  0  0
    6.3457   -3.6349   -1.3303 C   0  0  0  0  0  0  0  0  0  0  0  0
    6.9050   -2.3638    1.7427 C   0  0  0  0  0  0  0  0  0  0  0  0
    6.1199   -1.7913    2.7784 C   0  0  0  0  0  0  0  0  0  0  0  0
    6.3345   -2.2153    4.4246 Cl  0  0  0  0  0  0  0  0  0  0  0  0
    8.1916   -3.4529    2.0579 Cl  0  0  0  0  0  0  0  0  0  0  0  0
    4.5314    0.5859    4.1619 C   0  0  0  0  0  0  0  0  0  0  0  0
    6.1631    0.9868    4.6173 S   0  0  0  0  0  0  0  0  0  0  0  0
    2.1262   -1.0625    1.7924 C   0  0  0  0  0  0  0  0  0  0  0  0
    0.7682   -0.9890    1.8592 C   0  0  0  0  0  0  0  0  0  0  0  0
    0.2206   -0.0315    3.2253 S   0  0  0  0  0  0  0  0  0  0  0  0
   -0.2512   -1.5594    1.0392 C   0  0  0  0  0  0  0  0  0  0  0  0
   -1.5759   -1.2744    1.1791 C   0  0  0  0  0  0  0  0  0  0  0  0
   -2.4154   -2.0141    0.3210 C   0  0  0  0  0  0  0  0  0  0  0  0
   -3.8177   -1.9791    0.2748 C   0  0  0  0  0  0  0  0  0  0  0  0
   -4.5627   -1.0796    1.1429 C   0  0  0  0  0  0  0  0  0  0  0  0
   -4.3362   -1.1250    2.8650 S   0  0  0  0  0  0  0  0  0  0  0  0
   -5.4693    0.1532    3.1302 C   0  0  0  0  0  0  0  0  0  0  0  0
   -5.7772    0.6416    4.5044 C   0  0  0  0  0  0  0  0  0  0  0  0
   -4.5804    0.5121    5.4416 C   0  0  0  0  0  0  0  0  0  0  0  0
   -5.9894    0.5757    1.9431 C   0  0  0  0  0  0  0  0  0  0  0  0
   -7.1461    1.8349    1.8028 Cl  0  0  0  0  0  0  0  0  0  0  0  0
   -5.4798   -0.1220    0.8150 C   0  0  0  0  0  0  0  0  0  0  0  0
   -5.9320    0.2766   -0.7898 Cl  0  0  0  0  0  0  0  0  0  0  0  0
   -4.4354   -2.8713   -0.5840 C   0  0  0  0  0  0  0  0  0  0  0  0
   -3.7245   -3.7693   -1.4222 C   0  0  0  0  0  0  0  0  0  0  0  0
   -2.3139   -3.7810   -1.3882 C   0  0  0  0  0  0  0  0  0  0  0  0
   -1.5408   -4.7083   -2.1952 C   0  0  0  0  0  0  0  0  0  0  0  0
   -0.1837   -4.1459   -3.1252 S   0  0  0  0  0  0  0  0  0  0  0  0
    0.1273   -5.7151   -3.7782 C   0  0  0  0  0  0  0  0  0  0  0  0
    1.2152   -5.9105   -4.7750 C   0  0  0  0  0  0  0  0  0  0  0  0
    0.9789   -5.0482   -6.0151 C   0  0  0  0  0  0  0  0  0  0  0  0
   -0.7595   -6.6183   -3.2744 C   0  0  0  0  0  0  0  0  0  0  0  0
   -1.6983   -6.0566   -2.3679 C   0  0  0  0  0  0  0  0  0  0  0  0
   -2.8190   -7.0334   -1.5067 Cl  0  0  0  0  0  0  0  0  0  0  0  0
   -0.7649   -8.2900   -3.6590 Cl  0  0  0  0  0  0  0  0  0  0  0  0
   -1.6900   -2.8881   -0.5198 C   0  0  0  0  0  0  0  0  0  0  0  0
    0.0295   -2.7417   -0.2241 S   0  0  0  0  0  0  0  0  0  0  0  0
   -4.6123   -4.6003   -2.1570 C   0  0  0  0  0  0  0  0  0  0  0  0
   -5.9264   -4.4296   -1.8288 C   0  0  0  0  0  0  0  0  0  0  0  0
   -6.1500   -3.1193   -0.6823 S   0  0  0  0  0  0  0  0  0  0  0  0
   -7.0880   -5.1411   -2.2428 C   0  0  0  0  0  0  0  0  0  0  0  0
   -7.0776   -6.3497   -3.5030 S   0  0  0  0  0  0  0  0  0  0  0  0
   -8.8194   -6.4730   -3.4348 C   0  0  0  0  0  0  0  0  0  0  0  0
   -9.3280   -5.7266   -2.4032 C   0  0  0  0  0  0  0  0  0  0  0  0
   -8.3561   -4.9721   -1.7416 C   0  0  0  0  0  0  0  0  0  0  0  0
   -9.5603   -7.3089   -4.2398 N   0  0  0  0  0  0  0  0  0  0  0  0
   -9.5294   -7.4703   -5.6084 C   0  0  0  0  0  0  0  0  0  0  0  0
   -8.8566   -6.7776   -6.5379 C   0  0  0  0  0  0  0  0  0  0  0  0
   -7.9857   -5.6447   -6.3044 C   0  0  0  0  0  0  0  0  0  0  0  0
   -6.6638   -5.5934   -6.6045 C   0  0  0  0  0  0  0  0  0  0  0  0
   -5.9980   -4.4688   -6.0539 C   0  0  0  0  0  0  0  0  0  0  0  0
   -4.6221   -4.1989   -6.0657 C   0  0  0  0  0  0  0  0  0  0  0  0
   -3.6721   -5.0298   -6.7899 C   0  0  0  0  0  0  0  0  0  0  0  0
   -3.5478   -6.7439   -6.5219 S   0  0  0  0  0  0  0  0  0  0  0  0
   -2.3081   -6.9225   -7.7164 C   0  0  0  0  0  0  0  0  0  0  0  0
   -1.7200   -8.2511   -8.0462 C   0  0  0  0  0  0  0  0  0  0  0  0
   -0.3376   -8.4333   -7.4171 C   0  0  0  0  0  0  0  0  0  0  0  0
   -1.9972   -5.7103   -8.2571 C   0  0  0  0  0  0  0  0  0  0  0  0
   -0.8203   -5.4887   -9.4873 Cl  0  0  0  0  0  0  0  0  0  0  0  0
   -2.7623   -4.6350   -7.7310 C   0  0  0  0  0  0  0  0  0  0  0  0
   -2.6003   -3.0246   -8.2959 Cl  0  0  0  0  0  0  0  0  0  0  0  0
   -4.1942   -3.1181   -5.3092 C   0  0  0  0  0  0  0  0  0  0  0  0
   -5.0765   -2.2927   -4.5728 C   0  0  0  0  0  0  0  0  0  0  0  0
   -6.4686   -2.4870   -4.6645 C   0  0  0  0  0  0  0  0  0  0  0  0
   -7.3722   -1.5686   -3.9999 C   0  0  0  0  0  0  0  0  0  0  0  0
   -8.7008   -2.1215   -3.0257 S   0  0  0  0  0  0  0  0  0  0  0  0
   -9.1443   -0.5143   -2.5701 C   0  0  0  0  0  0  0  0  0  0  0  0
  -10.2338   -0.2700   -1.5861 C   0  0  0  0  0  0  0  0  0  0  0  0
   -9.6720   -0.2440   -0.1623 C   0  0  0  0  0  0  0  0  0  0  0  0
   -8.3169    0.3924   -3.1627 C   0  0  0  0  0  0  0  0  0  0  0  0
   -7.3192   -0.1986   -3.9818 C   0  0  0  0  0  0  0  0  0  0  0  0
   -6.2317    0.7486   -4.9141 Cl  0  0  0  0  0  0  0  0  0  0  0  0
   -8.4448    2.0890   -2.9441 Cl  0  0  0  0  0  0  0  0  0  0  0  0
   -6.8909   -3.6055   -5.3716 C   0  0  0  0  0  0  0  0  0  0  0  0
   -8.5295   -4.1897   -5.4814 S   0  0  0  0  0  0  0  0  0  0  0  0
   -4.3730   -1.3931   -3.7371 C   0  0  0  0  0  0  0  0  0  0  0  0
   -3.0187   -1.4902   -3.8569 C   0  0  0  0  0  0  0  0  0  0  0  0
   -2.5363   -2.6954   -5.0268 S   0  0  0  0  0  0  0  0  0  0  0  0
   -2.0221   -0.7613   -3.1462 C   0  0  0  0  0  0  0  0  0  0  0  0
   -2.1832    0.0279   -2.0446 C   0  0  0  0  0  0  0  0  0  0  0  0
   -0.9681    0.5726   -1.5653 C   0  0  0  0  0  0  0  0  0  0  0  0
   -0.7634    1.4185   -0.4576 C   0  0  0  0  0  0  0  0  0  0  0  0
   -1.8941    2.0602    0.1852 C   0  0  0  0  0  0  0  0  0  0  0  0
   -2.0413    2.2039    1.9118 S   0  0  0  0  0  0  0  0  0  0  0  0
   -3.5099    3.1110    1.7933 C   0  0  0  0  0  0  0  0  0  0  0  0
   -4.1551    3.6905    3.0017 C   0  0  0  0  0  0  0  0  0  0  0  0
   -3.5152    5.0369    3.3492 C   0  0  0  0  0  0  0  0  0  0  0  0
   -3.8574    3.2840    0.4873 C   0  0  0  0  0  0  0  0  0  0  0  0
   -5.2481    4.1427   -0.0296 Cl  0  0  0  0  0  0  0  0  0  0  0  0
   -2.9475    2.6905   -0.4270 C   0  0  0  0  0  0  0  0  0  0  0  0
   -3.1285    2.8836   -2.1228 Cl  0  0  0  0  0  0  0  0  0  0  0  0
    0.5583    1.6535   -0.0897 C   0  0  0  0  0  0  0  0  0  0  0  0
    1.6620    1.1780   -0.8435 C   0  0  0  0  0  0  0  0  0  0  0  0
    1.4485    0.4636   -2.0329 C   0  0  0  0  0  0  0  0  0  0  0  0
    2.5175    0.1314   -2.9618 C   0  0  0  0  0  0  0  0  0  0  0  0
    3.8990   -0.8278   -2.5359 S   0  0  0  0  0  0  0  0  0  0  0  0
    4.5735   -0.7073   -4.1266 C   0  0  0  0  0  0  0  0  0  0  0  0
    5.9061   -1.2823   -4.4586 C   0  0  0  0  0  0  0  0  0  0  0  0
    7.0117   -0.2482   -4.2271 C   0  0  0  0  0  0  0  0  0  0  0  0
    3.7607    0.0352   -4.9296 C   0  0  0  0  0  0  0  0  0  0  0  0
    2.5910    0.5049   -4.2762 C   0  0  0  0  0  0  0  0  0  0  0  0
    1.4430    1.5110   -5.0557 Cl  0  0  0  0  0  0  0  0  0  0  0  0
    4.1010    0.3809   -6.5747 Cl  0  0  0  0  0  0  0  0  0  0  0  0
    0.1358    0.1435   -2.3397 C   0  0  0  0  0  0  0  0  0  0  0  0
   -0.3589   -0.8565   -3.6666 S   0  0  0  0  0  0  0  0  0  0  0  0
    2.9002    1.5839   -0.2954 C   0  0  0  0  0  0  0  0  0  0  0  0
    2.7765    2.3358    0.8360 C   0  0  0  0  0  0  0  0  0  0  0  0
    1.1008    2.6079    1.2640 S   0  0  0  0  0  0  0  0  0  0  0  0
    3.8436    2.9184    1.5865 C   0  0  0  0  0  0  0  0  0  0  0  0
    5.1595    2.9583    1.2286 C   0  0  0  0  0  0  0  0  0  0  0  0
    5.9625    3.7187    2.1125 C   0  0  0  0  0  0  0  0  0  0  0  0
    7.3217    4.0420    1.9641 C   0  0  0  0  0  0  0  0  0  0  0  0
    8.1104    3.4599    0.8896 C   0  0  0  0  0  0  0  0  0  0  0  0
    8.8897    4.4289   -0.3240 S   0  0  0  0  0  0  0  0  0  0  0  0
    9.4998    3.0368   -1.1522 C   0  0  0  0  0  0  0  0  0  0  0  0
   10.2805    3.1645   -2.4137 C   0  0  0  0  0  0  0  0  0  0  0  0
    9.3632    3.0868   -3.6366 C   0  0  0  0  0  0  0  0  0  0  0  0
    9.1088    1.8968   -0.5151 C   0  0  0  0  0  0  0  0  0  0  0  0
    9.5124    0.3163   -1.0437 Cl  0  0  0  0  0  0  0  0  0  0  0  0
    8.3288    2.1329    0.6473 C   0  0  0  0  0  0  0  0  0  0  0  0
    7.8006    0.8771    1.6922 Cl  0  0  0  0  0  0  0  0  0  0  0  0
    7.8454    4.9646    2.8572 C   0  0  0  0  0  0  0  0  0  0  0  0
    7.1067    5.4813    3.9474 C   0  0  0  0  0  0  0  0  0  0  0  0
    5.7921    5.0372    4.1858 C   0  0  0  0  0  0  0  0  0  0  0  0
    5.1043    5.3724    5.4158 C   0  0  0  0  0  0  0  0  0  0  0  0
    3.4075    5.7547    5.4624 S   0  0  0  0  0  0  0  0  0  0  0  0
    3.4135    5.9531    7.1803 C   0  0  0  0  0  0  0  0  0  0  0  0
    2.1765    6.2785    7.9426 C   0  0  0  0  0  0  0  0  0  0  0  0
    1.6639    5.0439    8.6868 C   0  0  0  0  0  0  0  0  0  0  0  0
    4.6590    5.7120    7.6803 C   0  0  0  0  0  0  0  0  0  0  0  0
    5.6165    5.3781    6.6895 C   0  0  0  0  0  0  0  0  0  0  0  0
    7.2151    4.9198    7.1224 Cl  0  0  0  0  0  0  0  0  0  0  0  0
    5.0562    5.8081    9.3476 Cl  0  0  0  0  0  0  0  0  0  0  0  0
    5.2184    4.2359    3.2003 C   0  0  0  0  0  0  0  0  0  0  0  0
    3.5442    3.7705    3.0861 S   0  0  0  0  0  0  0  0  0  0  0  0
    7.8498    6.4772    4.6473 C   0  0  0  0  0  0  0  0  0  0  0  0
    9.0892    6.6578    4.1474 C   0  0  0  0  0  0  0  0  0  0  0  0
    9.4485    5.6400    2.7963 S   0  0  0  0  0  0  0  0  0  0  0  0
    6.3149    2.4750    6.5234 H   0  0  0  0  0  0  0  0  0  0  0  0
    3.7175    2.6196    6.7238 H   0  0  0  0  0  0  0  0  0  0  0  0
   -2.5279    3.4026    7.6093 H   0  0  0  0  0  0  0  0  0  0  0  0
   -2.7089    3.4959    5.8474 H   0  0  0  0  0  0  0  0  0  0  0  0
   -1.0728    5.4074    7.5772 H   0  0  0  0  0  0  0  0  0  0  0  0
   -1.1648    5.4714    5.8147 H   0  0  0  0  0  0  0  0  0  0  0  0
   -2.6094    5.7698    6.7894 H   0  0  0  0  0  0  0  0  0  0  0  0
    7.0223   -1.5963   -1.5338 H   0  0  0  0  0  0  0  0  0  0  0  0
    8.1534   -2.6570   -0.6729 H   0  0  0  0  0  0  0  0  0  0  0  0
    6.3966   -4.4415   -0.6033 H   0  0  0  0  0  0  0  0  0  0  0  0
    5.3007   -3.3875   -1.5049 H   0  0  0  0  0  0  0  0  0  0  0  0
    6.7891   -3.9824   -2.2601 H   0  0  0  0  0  0  0  0  0  0  0  0
    2.6389   -1.6142    1.0251 H   0  0  0  0  0  0  0  0  0  0  0  0
   -1.9356   -0.5611    1.8969 H   0  0  0  0  0  0  0  0  0  0  0  0
   -6.6150    0.0652    4.9098 H   0  0  0  0  0  0  0  0  0  0  0  0
   -6.1030    1.6819    4.4349 H   0  0  0  0  0  0  0  0  0  0  0  0
   -4.8119    0.9469    6.4103 H   0  0  0  0  0  0  0  0  0  0  0  0
   -3.7081    1.0153    5.0297 H   0  0  0  0  0  0  0  0  0  0  0  0
   -4.3256   -0.5352    5.5842 H   0  0  0  0  0  0  0  0  0  0  0  0
    2.1726   -5.6367   -4.3242 H   0  0  0  0  0  0  0  0  0  0  0  0
    1.2540   -6.9657   -5.0493 H   0  0  0  0  0  0  0  0  0  0  0  0
    1.7674   -5.2132   -6.7443 H   0  0  0  0  0  0  0  0  0  0  0  0
    0.0237   -5.2959   -6.4703 H   0  0  0  0  0  0  0  0  0  0  0  0
    0.9661   -3.9949   -5.7447 H   0  0  0  0  0  0  0  0  0  0  0  0
   -4.2992   -5.3178   -2.8932 H   0  0  0  0  0  0  0  0  0  0  0  0
  -10.3772   -5.6857   -2.1727 H   0  0  0  0  0  0  0  0  0  0  0  0
   -8.5732   -4.2943   -0.9362 H   0  0  0  0  0  0  0  0  0  0  0  0
  -10.3739   -7.7005   -3.7861 H   0  0  0  0  0  0  0  0  0  0  0  0
  -10.1409   -8.3027   -5.9306 H   0  0  0  0  0  0  0  0  0  0  0  0
   -8.8959   -7.1420   -7.5547 H   0  0  0  0  0  0  0  0  0  0  0  0
   -6.1584   -6.3856   -7.1251 H   0  0  0  0  0  0  0  0  0  0  0  0
   -2.3898   -9.0352   -7.6906 H   0  0  0  0  0  0  0  0  0  0  0  0
   -1.6331   -8.3318   -9.1327 H   0  0  0  0  0  0  0  0  0  0  0  0
    0.3428   -7.6637   -7.7709 H   0  0  0  0  0  0  0  0  0  0  0  0
   -0.4076   -8.3724   -6.3349 H   0  0  0  0  0  0  0  0  0  0  0  0
    0.0656   -9.4059   -7.6862 H   0  0  0  0  0  0  0  0  0  0  0  0
  -10.7071    0.6883   -1.8088 H   0  0  0  0  0  0  0  0  0  0  0  0
  -10.9809   -1.0606   -1.6722 H   0  0  0  0  0  0  0  0  0  0  0  0
  -10.4739   -0.0969    0.5562 H   0  0  0  0  0  0  0  0  0  0  0  0
   -9.1641   -1.1797    0.0621 H   0  0  0  0  0  0  0  0  0  0  0  0
   -8.9593    0.5688   -0.0578 H   0  0  0  0  0  0  0  0  0  0  0  0
   -4.8478   -0.7205   -3.0495 H   0  0  0  0  0  0  0  0  0  0  0  0
   -3.1324    0.1753   -1.5655 H   0  0  0  0  0  0  0  0  0  0  0  0
   -5.2191    3.8285    2.8037 H   0  0  0  0  0  0  0  0  0  0  0  0
   -4.0363    3.0032    3.8396 H   0  0  0  0  0  0  0  0  0  0  0  0
   -2.4500    4.9093    3.5277 H   0  0  0  0  0  0  0  0  0  0  0  0
   -3.6483    5.7375    2.5291 H   0  0  0  0  0  0  0  0  0  0  0  0
   -3.9771    5.4538    4.2401 H   0  0  0  0  0  0  0  0  0  0  0  0
    5.9084   -1.5837   -5.5077 H   0  0  0  0  0  0  0  0  0  0  0  0
    6.0872   -2.1613   -3.8404 H   0  0  0  0  0  0  0  0  0  0  0  0
    6.8632    0.6095   -4.8783 H   0  0  0  0  0  0  0  0  0  0  0  0
    7.9840   -0.6848   -4.4396 H   0  0  0  0  0  0  0  0  0  0  0  0
    7.0011    0.0959   -3.1949 H   0  0  0  0  0  0  0  0  0  0  0  0
    3.8456    1.3106   -0.7232 H   0  0  0  0  0  0  0  0  0  0  0  0
    5.5445    2.5004    0.3369 H   0  0  0  0  0  0  0  0  0  0  0  0
   10.8104    4.1179   -2.4138 H   0  0  0  0  0  0  0  0  0  0  0  0
   11.0129    2.3559   -2.4585 H   0  0  0  0  0  0  0  0  0  0  0  0
    8.6241    3.8835   -3.6052 H   0  0  0  0  0  0  0  0  0  0  0  0
    8.8460    2.1313   -3.6586 H   0  0  0  0  0  0  0  0  0  0  0  0
    9.9473    3.1884   -4.5470 H   0  0  0  0  0  0  0  0  0  0  0  0
    1.4136    6.6407    7.2524 H   0  0  0  0  0  0  0  0  0  0  0  0
    2.4003    7.0679    8.6640 H   0  0  0  0  0  0  0  0  0  0  0  0
    1.4332    4.2505    7.9814 H   0  0  0  0  0  0  0  0  0  0  0  0
    0.7655    5.2867    9.2481 H   0  0  0  0  0  0  0  0  0  0  0  0
    2.4149    4.6826    9.3837 H   0  0  0  0  0  0  0  0  0  0  0  0
    7.4499    7.0575    5.4580 H   0  0  0  0  0  0  0  0  0  0  0  0
    9.8398    7.3459    4.4840 H   0  0  0  0  0  0  0  0  0  0  0  0
  1  2  2  0  0  0  0
  2  3  1  0  0  0  0
  3  4  2  0  0  0  0
  4  5  1  0  0  0  0
  5  6  1  0  0  0  0
  6  7  1  0  0  0  0
  7  8  1  0  0  0  0
  8  9  1  0  0  0  0
  7 10  2  0  0  0  0
 10 11  1  0  0  0  0
 10 12  1  0  0  0  0
 12 13  1  0  0  0  0
  4 14  1  0  0  0  0
 14 15  2  0  0  0  0
 15 16  1  0  0  0  0
 16 17  1  0  0  0  0
 17 18  1  0  0  0  0
 18 19  1  0  0  0  0
 19 20  1  0  0  0  0
 20 21  1  0  0  0  0
 19 22  2  0  0  0  0
 22 23  1  0  0  0  0
 23 24  1  0  0  0  0
 22 25  1  0  0  0  0
 16 26  2  0  0  0  0
 26 27  1  0  0  0  0
 15 28  1  0  0  0  0
 28 29  2  0  0  0  0
 29 30  1  0  0  0  0
 29 31  1  0  0  0  0
 31 32  2  0  0  0  0
 32 33  1  0  0  0  0
 33 34  2  0  0  0  0
 34 35  1  0  0  0  0
 35 36  1  0  0  0  0
 36 37  1  0  0  0  0
 37 38  1  0  0  0  0
 38 39  1  0  0  0  0
 37 40  2  0  0  0  0
 40 41  1  0  0  0  0
 40 42  1  0  0  0  0
 42 43  1  0  0  0  0
 34 44  1  0  0  0  0
 44 45  2  0  0  0  0
 45 46  1  0  0  0  0
 46 47  1  0  0  0  0
 47 48  1  0  0  0  0
 48 49  1  0  0  0  0
 49 50  1  0  0  0  0
 50 51  1  0  0  0  0
 49 52  2  0  0  0  0
 52 53  1  0  0  0  0
 53 54  1  0  0  0  0
 52 55  1  0  0  0  0
 46 56  2  0  0  0  0
 56 57  1  0  0  0  0
 45 58  1  0  0  0  0
 58 59  2  0  0  0  0
 59 60  1  0  0  0  0
 59 61  1  0  0  0  0
 61 62  1  0  0  0  0
 62 63  1  0  0  0  0
 63 64  2  0  0  0  0
 64 65  1  0  0  0  0
 63 66  1  0  0  0  0
 66 67  1  0  0  0  0
 67 68  2  0  0  0  0
 68 69  1  0  0  0  0
 69 70  2  0  0  0  0
 70 71  1  0  0  0  0
 71 72  2  0  0  0  0
 72 73  1  0  0  0  0
 73 74  1  0  0  0  0
 74 75  1  0  0  0  0
 75 76  1  0  0  0  0
 76 77  1  0  0  0  0
 75 78  2  0  0  0  0
 78 79  1  0  0  0  0
 78 80  1  0  0  0  0
 80 81  1  0  0  0  0
 72 82  1  0  0  0  0
 82 83  2  0  0  0  0
 83 84  1  0  0  0  0
 84 85  1  0  0  0  0
 85 86  1  0  0  0  0
 86 87  1  0  0  0  0
 87 88  1  0  0  0  0
 88 89  1  0  0  0  0
 87 90  2  0  0  0  0
 90 91  1  0  0  0  0
 91 92  1  0  0  0  0
 90 93  1  0  0  0  0
 84 94  2  0  0  0  0
 94 95  1  0  0  0  0
 83 96  1  0  0  0  0
 96 97  2  0  0  0  0
 97 98  1  0  0  0  0
 97 99  1  0  0  0  0
 99100  2  0  0  0  0
100101  1  0  0  0  0
101102  2  0  0  0  0
102103  1  0  0  0  0
103104  1  0  0  0  0
104105  1  0  0  0  0
105106  1  0  0  0  0
106107  1  0  0  0  0
105108  2  0  0  0  0
108109  1  0  0  0  0
108110  1  0  0  0  0
110111  1  0  0  0  0
102112  1  0  0  0  0
112113  2  0  0  0  0
113114  1  0  0  0  0
114115  1  0  0  0  0
115116  1  0  0  0  0
116117  1  0  0  0  0
117118  1  0  0  0  0
118119  1  0  0  0  0
117120  2  0  0  0  0
120121  1  0  0  0  0
121122  1  0  0  0  0
120123  1  0  0  0  0
114124  2  0  0  0  0
124125  1  0  0  0  0
113126  1  0  0  0  0
126127  2  0  0  0  0
127128  1  0  0  0  0
127129  1  0  0  0  0
129130  2  0  0  0  0
130131  1  0  0  0  0
131132  2  0  0  0  0
132133  1  0  0  0  0
133134  1  0  0  0  0
134135  1  0  0  0  0
135136  1  0  0  0  0
136137  1  0  0  0  0
135138  2  0  0  0  0
138139  1  0  0  0  0
138140  1  0  0  0  0
140141  1  0  0  0  0
132142  1  0  0  0  0
142143  2  0  0  0  0
143144  1  0  0  0  0
144145  1  0  0  0  0
145146  1  0  0  0  0
146147  1  0  0  0  0
147148  1  0  0  0  0
148149  1  0  0  0  0
147150  2  0  0  0  0
150151  1  0  0  0  0
151152  1  0  0  0  0
150153  1  0  0  0  0
144154  2  0  0  0  0
154155  1  0  0  0  0
143156  1  0  0  0  0
156157  2  0  0  0  0
157158  1  0  0  0  0
 27  1  1  0  0  0  0
 57 31  1  0  0  0  0
 65 61  2  0  0  0  0
 95 69  1  0  0  0  0
125 99  1  0  0  0  0
155129  1  0  0  0  0
 26  3  1  0  0  0  0
 56 33  1  0  0  0  0
 94 71  1  0  0  0  0
124101  1  0  0  0  0
154131  1  0  0  0  0
 12  5  2  0  0  0  0
 30 14  1  0  0  0  0
 42 35  2  0  0  0  0
 60 44  1  0  0  0  0
 80 73  2  0  0  0  0
 98 82  1  0  0  0  0
110103  2  0  0  0  0
128112  1  0  0  0  0
140133  2  0  0  0  0
158142  1  0  0  0  0
 23 17  2  0  0  0  0
 53 47  2  0  0  0  0
 91 85  2  0  0  0  0
121115  2  0  0  0  0
151145  2  0  0  0  0
  1159  1  0  0  0  0
  2160  1  0  0  0  0
  8161  1  0  0  0  0
  8162  1  0  0  0  0
  9163  1  0  0  0  0
  9164  1  0  0  0  0
  9165  1  0  0  0  0
 20166  1  0  0  0  0
 20167  1  0  0  0  0
 21168  1  0  0  0  0
 21169  1  0  0  0  0
 21170  1  0  0  0  0
 28171  1  0  0  0  0
 32172  1  0  0  0  0
 38173  1  0  0  0  0
 38174  1  0  0  0  0
 39175  1  0  0  0  0
 39176  1  0  0  0  0
 39177  1  0  0  0  0
 50178  1  0  0  0  0
 50179  1  0  0  0  0
 51180  1  0  0  0  0
 51181  1  0  0  0  0
 51182  1  0  0  0  0
 58183  1  0  0  0  0
 64184  1  0  0  0  0
 65185  1  0  0  0  0
 66186  1  0  0  0  0
 67187  1  0  0  0  0
 68188  1  0  0  0  0
 70189  1  0  0  0  0
 76190  1  0  0  0  0
 76191  1  0  0  0  0
 77192  1  0  0  0  0
 77193  1  0  0  0  0
 77194  1  0  0  0  0
 88195  1  0  0  0  0
 88196  1  0  0  0  0
 89197  1  0  0  0  0
 89198  1  0  0  0  0
 89199  1  0  0  0  0
 96200  1  0  0  0  0
100201  1  0  0  0  0
106202  1  0  0  0  0
106203  1  0  0  0  0
107204  1  0  0  0  0
107205  1  0  0  0  0
107206  1  0  0  0  0
118207  1  0  0  0  0
118208  1  0  0  0  0
119209  1  0  0  0  0
119210  1  0  0  0  0
119211  1  0  0  0  0
126212  1  0  0  0  0
130213  1  0  0  0  0
136214  1  0  0  0  0
136215  1  0  0  0  0
137216  1  0  0  0  0
137217  1  0  0  0  0
137218  1  0  0  0  0
148219  1  0  0  0  0
148220  1  0  0  0  0
149221  1  0  0  0  0
149222  1  0  0  0  0
149223  1  0  0  0  0
156224  1  0  0  0  0
157225  1  0  0  0  0
M  END
