
  xtb     03022214073D
 energy: -467.668145167486 gnorm: 0.000203046966 xtb: 6.4.1 (unknown)
240267  0     0  0            999 V2000
    0.6757   -4.7844   11.3815 C   0  0  0  0  0  0  0  0  0  0  0  0
    0.9893   -3.5109   11.0675 C   0  0  0  0  0  0  0  0  0  0  0  0
    0.0346   -2.9071   10.1988 C   0  0  0  0  0  0  0  0  0  0  0  0
    0.0448   -1.6140    9.6594 C   0  0  0  0  0  0  0  0  0  0  0  0
    1.0939   -0.6511    9.9664 C   0  0  0  0  0  0  0  0  0  0  0  0
    2.7565   -0.9338    9.5535 S   0  0  0  0  0  0  0  0  0  0  0  0
    3.2537    0.6047   10.1732 C   0  0  0  0  0  0  0  0  0  0  0  0
    4.6700    1.0597   10.0880 C   0  0  0  0  0  0  0  0  0  0  0  0
    4.8356    2.1553    9.0323 C   0  0  0  0  0  0  0  0  0  0  0  0
    2.1810    1.2828   10.6701 C   0  0  0  0  0  0  0  0  0  0  0  0
    2.2817    2.8332   11.3968 Cl  0  0  0  0  0  0  0  0  0  0  0  0
    0.9543    0.5766   10.5483 C   0  0  0  0  0  0  0  0  0  0  0  0
   -0.5347    1.1914   11.1339 Cl  0  0  0  0  0  0  0  0  0  0  0  0
   -0.9923   -1.2773    8.8014 C   0  0  0  0  0  0  0  0  0  0  0  0
   -2.0450   -2.1671    8.4748 C   0  0  0  0  0  0  0  0  0  0  0  0
   -2.0808   -3.4470    9.0518 C   0  0  0  0  0  0  0  0  0  0  0  0
   -3.1654   -4.3746    8.7704 C   0  0  0  0  0  0  0  0  0  0  0  0
   -3.5750   -4.8324    7.1435 S   0  0  0  0  0  0  0  0  0  0  0  0
   -4.8525   -5.8717    7.6737 C   0  0  0  0  0  0  0  0  0  0  0  0
   -5.6515   -6.6731    6.7060 C   0  0  0  0  0  0  0  0  0  0  0  0
   -5.0002   -8.0352    6.4544 C   0  0  0  0  0  0  0  0  0  0  0  0
   -4.9384   -5.8605    9.0337 C   0  0  0  0  0  0  0  0  0  0  0  0
   -3.9859   -5.0117    9.6590 C   0  0  0  0  0  0  0  0  0  0  0  0
   -3.9471   -4.7636   11.3540 Cl  0  0  0  0  0  0  0  0  0  0  0  0
   -6.0907   -6.7660    9.9254 Cl  0  0  0  0  0  0  0  0  0  0  0  0
   -1.0292   -3.7901    9.8939 C   0  0  0  0  0  0  0  0  0  0  0  0
   -0.7971   -5.3346   10.6621 S   0  0  0  0  0  0  0  0  0  0  0  0
   -2.9504   -1.5905    7.5495 C   0  0  0  0  0  0  0  0  0  0  0  0
   -2.6024   -0.3304    7.1638 C   0  0  0  0  0  0  0  0  0  0  0  0
   -1.1414    0.2310    7.9501 S   0  0  0  0  0  0  0  0  0  0  0  0
   -3.2225    0.4853    6.1728 C   0  0  0  0  0  0  0  0  0  0  0  0
   -2.8766    1.7541    5.8160 C   0  0  0  0  0  0  0  0  0  0  0  0
   -3.5648    2.2268    4.6728 C   0  0  0  0  0  0  0  0  0  0  0  0
   -3.3820    3.4446    3.9964 C   0  0  0  0  0  0  0  0  0  0  0  0
   -2.3918    4.4154    4.4342 C   0  0  0  0  0  0  0  0  0  0  0  0
   -2.8213    6.0752    4.7159 S   0  0  0  0  0  0  0  0  0  0  0  0
   -1.2009    6.5013    5.1465 C   0  0  0  0  0  0  0  0  0  0  0  0
   -0.8345    7.9055    5.4781 C   0  0  0  0  0  0  0  0  0  0  0  0
   -0.5194    8.6970    4.2063 C   0  0  0  0  0  0  0  0  0  0  0  0
   -0.3847    5.4133    5.0567 C   0  0  0  0  0  0  0  0  0  0  0  0
    1.2961    5.4475    5.3981 Cl  0  0  0  0  0  0  0  0  0  0  0  0
   -1.0555    4.2269    4.6559 C   0  0  0  0  0  0  0  0  0  0  0  0
   -0.2294    2.7433    4.3973 Cl  0  0  0  0  0  0  0  0  0  0  0  0
   -4.1243    3.6397    2.8404 C   0  0  0  0  0  0  0  0  0  0  0  0
   -5.0391    2.6807    2.3426 C   0  0  0  0  0  0  0  0  0  0  0  0
   -5.2715    1.4894    3.0559 C   0  0  0  0  0  0  0  0  0  0  0  0
   -6.2394    0.5226    2.5711 C   0  0  0  0  0  0  0  0  0  0  0  0
   -5.8393   -1.1544    2.3516 S   0  0  0  0  0  0  0  0  0  0  0  0
   -7.4144   -1.5290    1.7427 C   0  0  0  0  0  0  0  0  0  0  0  0
   -7.7546   -2.8953    1.2580 C   0  0  0  0  0  0  0  0  0  0  0  0
   -7.5135   -3.0104   -0.2496 C   0  0  0  0  0  0  0  0  0  0  0  0
   -8.1948   -0.4110    1.7192 C   0  0  0  0  0  0  0  0  0  0  0  0
   -7.5334    0.7538    2.1889 C   0  0  0  0  0  0  0  0  0  0  0  0
   -8.3192    2.2743    2.3217 Cl  0  0  0  0  0  0  0  0  0  0  0  0
   -9.8245   -0.3947    1.1811 Cl  0  0  0  0  0  0  0  0  0  0  0  0
   -4.4973    1.2759    4.1874 C   0  0  0  0  0  0  0  0  0  0  0  0
   -4.4949   -0.1686    5.1593 S   0  0  0  0  0  0  0  0  0  0  0  0
   -5.4837    3.0029    1.0386 C   0  0  0  0  0  0  0  0  0  0  0  0
   -4.9370    4.1530    0.5451 C   0  0  0  0  0  0  0  0  0  0  0  0
   -3.9146    4.9553    1.7205 S   0  0  0  0  0  0  0  0  0  0  0  0
   -4.9103    4.5654   -0.8223 C   0  0  0  0  0  0  0  0  0  0  0  0
   -5.3078    3.8155   -1.8938 C   0  0  0  0  0  0  0  0  0  0  0  0
   -4.7855    4.2728   -3.1262 C   0  0  0  0  0  0  0  0  0  0  0  0
   -4.7836    3.6030   -4.3637 C   0  0  0  0  0  0  0  0  0  0  0  0
   -5.5134    2.3661   -4.5841 C   0  0  0  0  0  0  0  0  0  0  0  0
   -5.3974    1.0165   -3.4908 S   0  0  0  0  0  0  0  0  0  0  0  0
   -6.4088    0.0201   -4.4792 C   0  0  0  0  0  0  0  0  0  0  0  0
   -6.6936   -1.3922   -4.1049 C   0  0  0  0  0  0  0  0  0  0  0  0
   -5.5396   -2.3086   -4.5176 C   0  0  0  0  0  0  0  0  0  0  0  0
   -6.8014    0.7035   -5.5909 C   0  0  0  0  0  0  0  0  0  0  0  0
   -7.8171    0.0481   -6.8078 Cl  0  0  0  0  0  0  0  0  0  0  0  0
   -6.2959    2.0300   -5.6551 C   0  0  0  0  0  0  0  0  0  0  0  0
   -6.7063    3.1085   -6.9205 Cl  0  0  0  0  0  0  0  0  0  0  0  0
   -3.9242    4.0986   -5.3390 C   0  0  0  0  0  0  0  0  0  0  0  0
   -3.1512    5.2756   -5.1651 C   0  0  0  0  0  0  0  0  0  0  0  0
   -3.2690    6.0259   -3.9803 C   0  0  0  0  0  0  0  0  0  0  0  0
   -2.5365    7.2590   -3.7493 C   0  0  0  0  0  0  0  0  0  0  0  0
   -0.8182    7.3908   -3.9836 S   0  0  0  0  0  0  0  0  0  0  0  0
   -0.7884    9.0339   -3.4456 C   0  0  0  0  0  0  0  0  0  0  0  0
    0.4892    9.7912   -3.3442 C   0  0  0  0  0  0  0  0  0  0  0  0
    1.1297    9.5956   -1.9676 C   0  0  0  0  0  0  0  0  0  0  0  0
   -2.0427    9.4423   -3.1018 C   0  0  0  0  0  0  0  0  0  0  0  0
   -3.0346    8.4404   -3.2694 C   0  0  0  0  0  0  0  0  0  0  0  0
   -4.6960    8.7315   -2.9687 Cl  0  0  0  0  0  0  0  0  0  0  0  0
   -2.4105   11.0162   -2.5275 Cl  0  0  0  0  0  0  0  0  0  0  0  0
   -4.0428    5.4703   -2.9696 C   0  0  0  0  0  0  0  0  0  0  0  0
   -4.0205    5.9897   -1.3086 S   0  0  0  0  0  0  0  0  0  0  0  0
   -2.1864    5.4245   -6.1886 C   0  0  0  0  0  0  0  0  0  0  0  0
   -2.1704    4.3809   -7.0686 C   0  0  0  0  0  0  0  0  0  0  0  0
   -3.4639    3.2404   -6.7838 S   0  0  0  0  0  0  0  0  0  0  0  0
   -1.0872    3.9917   -7.9070 C   0  0  0  0  0  0  0  0  0  0  0  0
   -1.0527    2.9219   -8.6159 N   0  0  0  0  0  0  0  0  0  0  0  0
    0.2045    2.5731   -8.9859 C   0  0  0  0  0  0  0  0  0  0  0  0
    1.2033    3.4628   -8.5194 C   0  0  0  0  0  0  0  0  0  0  0  0
    0.4871    4.8045   -7.6905 S   0  0  0  0  0  0  0  0  0  0  0  0
    2.5274    3.0903   -8.5996 C   0  0  0  0  0  0  0  0  0  0  0  0
    2.8241    1.8226   -9.1042 C   0  0  0  0  0  0  0  0  0  0  0  0
    1.8731    1.0125   -9.7278 C   0  0  0  0  0  0  0  0  0  0  0  0
    0.5347    1.3984   -9.6786 C   0  0  0  0  0  0  0  0  0  0  0  0
   -0.6023    0.6090  -10.2592 C   0  0  0  0  0  0  0  0  0  0  0  0
   -1.2726    1.3680  -11.4061 C   0  0  0  0  0  0  0  0  0  0  0  0
    2.3439   -0.2247  -10.4475 C   0  0  0  0  0  0  0  0  0  0  0  0
    2.3915    0.0154  -11.9575 C   0  0  0  0  0  0  0  0  0  0  0  0
    4.1565    1.4115   -8.7610 N   0  0  0  0  0  0  0  0  0  0  0  0
    4.9741    2.5742   -8.7504 C   0  0  0  0  0  0  0  0  0  0  0  0
    3.9403    3.9557   -8.0305 S   0  0  0  0  0  0  0  0  0  0  0  0
    4.1570    0.6022   -7.6239 C   0  0  0  0  0  0  0  0  0  0  0  0
    3.2224   -0.3251   -7.2930 C   0  0  0  0  0  0  0  0  0  0  0  0
    3.4695   -0.9602   -6.0487 C   0  0  0  0  0  0  0  0  0  0  0  0
    2.6708   -1.9185   -5.4102 C   0  0  0  0  0  0  0  0  0  0  0  0
    1.4714   -2.4477   -6.0407 C   0  0  0  0  0  0  0  0  0  0  0  0
    1.5303   -3.2069   -7.6043 S   0  0  0  0  0  0  0  0  0  0  0  0
   -0.1664   -3.5596   -7.5863 C   0  0  0  0  0  0  0  0  0  0  0  0
   -0.8226   -4.2573   -8.7267 C   0  0  0  0  0  0  0  0  0  0  0  0
   -0.9304   -3.3501   -9.9530 C   0  0  0  0  0  0  0  0  0  0  0  0
   -0.7311   -3.0911   -6.4388 C   0  0  0  0  0  0  0  0  0  0  0  0
   -2.3982   -3.2327   -6.0621 Cl  0  0  0  0  0  0  0  0  0  0  0  0
    0.1938   -2.4665   -5.5576 C   0  0  0  0  0  0  0  0  0  0  0  0
   -0.2862   -1.7519   -4.0750 Cl  0  0  0  0  0  0  0  0  0  0  0  0
    3.0773   -2.3378   -4.1490 C   0  0  0  0  0  0  0  0  0  0  0  0
    4.2109   -1.8076   -3.4881 C   0  0  0  0  0  0  0  0  0  0  0  0
    5.0065   -0.8403   -4.1301 C   0  0  0  0  0  0  0  0  0  0  0  0
    6.1552   -0.2441   -3.4694 C   0  0  0  0  0  0  0  0  0  0  0  0
    7.7123   -0.1847   -4.2403 S   0  0  0  0  0  0  0  0  0  0  0  0
    8.4336    0.6341   -2.8974 C   0  0  0  0  0  0  0  0  0  0  0  0
    9.8851    0.9642   -2.8833 C   0  0  0  0  0  0  0  0  0  0  0  0
   10.7117   -0.2260   -2.3903 C   0  0  0  0  0  0  0  0  0  0  0  0
    7.5100    0.8388   -1.9164 C   0  0  0  0  0  0  0  0  0  0  0  0
    6.2161    0.3478   -2.2380 C   0  0  0  0  0  0  0  0  0  0  0  0
    4.8644    0.5666   -1.2018 Cl  0  0  0  0  0  0  0  0  0  0  0  0
    7.8518    1.6250   -0.4298 Cl  0  0  0  0  0  0  0  0  0  0  0  0
    4.6290   -0.4663   -5.4125 C   0  0  0  0  0  0  0  0  0  0  0  0
    5.4189    0.7301   -6.4080 S   0  0  0  0  0  0  0  0  0  0  0  0
    4.4059   -2.4114   -2.2161 C   0  0  0  0  0  0  0  0  0  0  0  0
    3.4831   -3.3649   -1.9234 C   0  0  0  0  0  0  0  0  0  0  0  0
    2.3134   -3.5814   -3.2076 S   0  0  0  0  0  0  0  0  0  0  0  0
    3.3778   -4.1672   -0.7328 C   0  0  0  0  0  0  0  0  0  0  0  0
    3.4351   -3.7617    0.5624 C   0  0  0  0  0  0  0  0  0  0  0  0
    3.2703   -4.8243    1.4933 C   0  0  0  0  0  0  0  0  0  0  0  0
    3.2551   -4.7635    2.8953 C   0  0  0  0  0  0  0  0  0  0  0  0
    3.2643   -3.4977    3.6123 C   0  0  0  0  0  0  0  0  0  0  0  0
    4.4132   -3.1626    4.8711 S   0  0  0  0  0  0  0  0  0  0  0  0
    3.6885   -1.6324    5.2314 C   0  0  0  0  0  0  0  0  0  0  0  0
    4.2702   -0.7405    6.2709 C   0  0  0  0  0  0  0  0  0  0  0  0
    5.5773   -0.1110    5.7843 C   0  0  0  0  0  0  0  0  0  0  0  0
    2.6208   -1.4084    4.4149 C   0  0  0  0  0  0  0  0  0  0  0  0
    1.6234   -0.0130    4.4983 Cl  0  0  0  0  0  0  0  0  0  0  0  0
    2.3802   -2.4620    3.4915 C   0  0  0  0  0  0  0  0  0  0  0  0
    1.0658   -2.4478    2.3875 Cl  0  0  0  0  0  0  0  0  0  0  0  0
    3.1621   -5.9703    3.5793 C   0  0  0  0  0  0  0  0  0  0  0  0
    3.0578   -7.2217    2.9289 C   0  0  0  0  0  0  0  0  0  0  0  0
    3.0482   -7.2808    1.5274 C   0  0  0  0  0  0  0  0  0  0  0  0
    2.9780   -8.5499    0.8210 C   0  0  0  0  0  0  0  0  0  0  0  0
    1.7778   -8.8518   -0.3986 S   0  0  0  0  0  0  0  0  0  0  0  0
    2.3814  -10.4438   -0.7073 C   0  0  0  0  0  0  0  0  0  0  0  0
    1.7855  -11.3017   -1.7681 C   0  0  0  0  0  0  0  0  0  0  0  0
    2.3938  -10.9757   -3.1345 C   0  0  0  0  0  0  0  0  0  0  0  0
    3.4578  -10.7060    0.0866 C   0  0  0  0  0  0  0  0  0  0  0  0
    3.7956   -9.6369    0.9588 C   0  0  0  0  0  0  0  0  0  0  0  0
    5.1487   -9.6956    2.0138 Cl  0  0  0  0  0  0  0  0  0  0  0  0
    4.3339  -12.1814    0.0557 Cl  0  0  0  0  0  0  0  0  0  0  0  0
    3.1306   -6.0743    0.8439 C   0  0  0  0  0  0  0  0  0  0  0  0
    3.1307   -5.8951   -0.8854 S   0  0  0  0  0  0  0  0  0  0  0  0
    2.9083   -8.2888    3.8630 C   0  0  0  0  0  0  0  0  0  0  0  0
    2.9121   -7.8663    5.1430 C   0  0  0  0  0  0  0  0  0  0  0  0
    3.0873   -6.1532    5.3099 S   0  0  0  0  0  0  0  0  0  0  0  0
    1.2207   -5.4609   12.0104 H   0  0  0  0  0  0  0  0  0  0  0  0
    1.8650   -3.0025   11.4276 H   0  0  0  0  0  0  0  0  0  0  0  0
    5.3043    0.2072    9.8411 H   0  0  0  0  0  0  0  0  0  0  0  0
    4.9772    1.4515   11.0609 H   0  0  0  0  0  0  0  0  0  0  0  0
    4.2516    3.0305    9.3021 H   0  0  0  0  0  0  0  0  0  0  0  0
    5.8804    2.4452    8.9575 H   0  0  0  0  0  0  0  0  0  0  0  0
    4.4982    1.8025    8.0615 H   0  0  0  0  0  0  0  0  0  0  0  0
   -6.6534   -6.8188    7.1148 H   0  0  0  0  0  0  0  0  0  0  0  0
   -5.7317   -6.1273    5.7646 H   0  0  0  0  0  0  0  0  0  0  0  0
   -4.9272   -8.5943    7.3836 H   0  0  0  0  0  0  0  0  0  0  0  0
   -4.0007   -7.9060    6.0463 H   0  0  0  0  0  0  0  0  0  0  0  0
   -5.5950   -8.6084    5.7483 H   0  0  0  0  0  0  0  0  0  0  0  0
   -3.8219   -2.0905    7.1672 H   0  0  0  0  0  0  0  0  0  0  0  0
   -2.1367    2.3225    6.3493 H   0  0  0  0  0  0  0  0  0  0  0  0
   -1.6617    8.3814    6.0070 H   0  0  0  0  0  0  0  0  0  0  0  0
    0.0408    7.8962    6.1303 H   0  0  0  0  0  0  0  0  0  0  0  0
   -1.3843    8.7111    3.5473 H   0  0  0  0  0  0  0  0  0  0  0  0
   -0.2548    9.7201    4.4592 H   0  0  0  0  0  0  0  0  0  0  0  0
    0.3134    8.2417    3.6764 H   0  0  0  0  0  0  0  0  0  0  0  0
   -8.8061   -3.0957    1.4733 H   0  0  0  0  0  0  0  0  0  0  0  0
   -7.1415   -3.6280    1.7841 H   0  0  0  0  0  0  0  0  0  0  0  0
   -7.7600   -4.0117   -0.5923 H   0  0  0  0  0  0  0  0  0  0  0  0
   -6.4702   -2.8083   -0.4806 H   0  0  0  0  0  0  0  0  0  0  0  0
   -8.1365   -2.2967   -0.7830 H   0  0  0  0  0  0  0  0  0  0  0  0
   -6.1271    2.3648    0.4627 H   0  0  0  0  0  0  0  0  0  0  0  0
   -5.8820    2.9146   -1.7930 H   0  0  0  0  0  0  0  0  0  0  0  0
   -6.8398   -1.4597   -3.0252 H   0  0  0  0  0  0  0  0  0  0  0  0
   -7.6109   -1.7089   -4.6042 H   0  0  0  0  0  0  0  0  0  0  0  0
   -4.6191   -2.0013   -4.0271 H   0  0  0  0  0  0  0  0  0  0  0  0
   -5.7582   -3.3355   -4.2372 H   0  0  0  0  0  0  0  0  0  0  0  0
   -5.3898   -2.2653   -5.5935 H   0  0  0  0  0  0  0  0  0  0  0  0
    0.2827   10.8514   -3.5026 H   0  0  0  0  0  0  0  0  0  0  0  0
    1.1767    9.4470   -4.1184 H   0  0  0  0  0  0  0  0  0  0  0  0
    2.0605   10.1531   -1.9073 H   0  0  0  0  0  0  0  0  0  0  0  0
    1.3408    8.5430   -1.7956 H   0  0  0  0  0  0  0  0  0  0  0  0
    0.4601    9.9480   -1.1872 H   0  0  0  0  0  0  0  0  0  0  0  0
   -1.4688    6.2237   -6.2264 H   0  0  0  0  0  0  0  0  0  0  0  0
   -0.2619   -0.3619  -10.6133 H   0  0  0  0  0  0  0  0  0  0  0  0
   -1.3437    0.4566   -9.4714 H   0  0  0  0  0  0  0  0  0  0  0  0
   -1.6916    2.3003  -11.0382 H   0  0  0  0  0  0  0  0  0  0  0  0
   -0.5555    1.5964  -12.1919 H   0  0  0  0  0  0  0  0  0  0  0  0
   -2.0754    0.7705  -11.8311 H   0  0  0  0  0  0  0  0  0  0  0  0
    1.6902   -1.0716  -10.2314 H   0  0  0  0  0  0  0  0  0  0  0  0
    3.3462   -0.4794  -10.1029 H   0  0  0  0  0  0  0  0  0  0  0  0
    3.0493    0.8513  -12.1839 H   0  0  0  0  0  0  0  0  0  0  0  0
    2.7703   -0.8694  -12.4634 H   0  0  0  0  0  0  0  0  0  0  0  0
    1.4035    0.2414  -12.3478 H   0  0  0  0  0  0  0  0  0  0  0  0
    5.2159    2.8713   -9.7731 H   0  0  0  0  0  0  0  0  0  0  0  0
    5.8793    2.4566   -8.1601 H   0  0  0  0  0  0  0  0  0  0  0  0
    2.3523   -0.5383   -7.8808 H   0  0  0  0  0  0  0  0  0  0  0  0
   -0.2449   -5.1470   -8.9871 H   0  0  0  0  0  0  0  0  0  0  0  0
   -1.8189   -4.5703   -8.4104 H   0  0  0  0  0  0  0  0  0  0  0  0
   -1.5037   -2.4583   -9.7129 H   0  0  0  0  0  0  0  0  0  0  0  0
    0.0615   -3.0536  -10.2869 H   0  0  0  0  0  0  0  0  0  0  0  0
   -1.4266   -3.8758  -10.7642 H   0  0  0  0  0  0  0  0  0  0  0  0
   10.0435    1.8182   -2.2221 H   0  0  0  0  0  0  0  0  0  0  0  0
   10.2044    1.2362   -3.8907 H   0  0  0  0  0  0  0  0  0  0  0  0
   10.4111   -0.5016   -1.3827 H   0  0  0  0  0  0  0  0  0  0  0  0
   11.7674    0.0309   -2.3811 H   0  0  0  0  0  0  0  0  0  0  0  0
   10.5656   -1.0827   -3.0439 H   0  0  0  0  0  0  0  0  0  0  0  0
    5.2226   -2.1739   -1.5600 H   0  0  0  0  0  0  0  0  0  0  0  0
    3.5772   -2.7361    0.8504 H   0  0  0  0  0  0  0  0  0  0  0  0
    3.5414    0.0381    6.5022 H   0  0  0  0  0  0  0  0  0  0  0  0
    4.4602   -1.3181    7.1780 H   0  0  0  0  0  0  0  0  0  0  0  0
    5.3970    0.5038    4.9060 H   0  0  0  0  0  0  0  0  0  0  0  0
    6.2924   -0.8877    5.5237 H   0  0  0  0  0  0  0  0  0  0  0  0
    6.0089    0.5119    6.5629 H   0  0  0  0  0  0  0  0  0  0  0  0
    0.7070  -11.1393   -1.8026 H   0  0  0  0  0  0  0  0  0  0  0  0
    1.9759  -12.3481   -1.5225 H   0  0  0  0  0  0  0  0  0  0  0  0
    1.9482  -11.6039   -3.9011 H   0  0  0  0  0  0  0  0  0  0  0  0
    2.2148   -9.9333   -3.3872 H   0  0  0  0  0  0  0  0  0  0  0  0
    3.4665  -11.1506   -3.1203 H   0  0  0  0  0  0  0  0  0  0  0  0
    2.7905   -9.3167    3.5742 H   0  0  0  0  0  0  0  0  0  0  0  0
    2.8173   -8.4588    6.0320 H   0  0  0  0  0  0  0  0  0  0  0  0
  1  2  2  0  0  0  0
  2  3  1  0  0  0  0
  3  4  2  0  0  0  0
  4  5  1  0  0  0  0
  5  6  1  0  0  0  0
  6  7  1  0  0  0  0
  7  8  1  0  0  0  0
  8  9  1  0  0  0  0
  7 10  2  0  0  0  0
 10 11  1  0  0  0  0
 10 12  1  0  0  0  0
 12 13  1  0  0  0  0
  4 14  1  0  0  0  0
 14 15  2  0  0  0  0
 15 16  1  0  0  0  0
 16 17  1  0  0  0  0
 17 18  1  0  0  0  0
 18 19  1  0  0  0  0
 19 20  1  0  0  0  0
 20 21  1  0  0  0  0
 19 22  2  0  0  0  0
 22 23  1  0  0  0  0
 23 24  1  0  0  0  0
 22 25  1  0  0  0  0
 16 26  2  0  0  0  0
 26 27  1  0  0  0  0
 15 28  1  0  0  0  0
 28 29  2  0  0  0  0
 29 30  1  0  0  0  0
 29 31  1  0  0  0  0
 31 32  2  0  0  0  0
 32 33  1  0  0  0  0
 33 34  2  0  0  0  0
 34 35  1  0  0  0  0
 35 36  1  0  0  0  0
 36 37  1  0  0  0  0
 37 38  1  0  0  0  0
 38 39  1  0  0  0  0
 37 40  2  0  0  0  0
 40 41  1  0  0  0  0
 40 42  1  0  0  0  0
 42 43  1  0  0  0  0
 34 44  1  0  0  0  0
 44 45  2  0  0  0  0
 45 46  1  0  0  0  0
 46 47  1  0  0  0  0
 47 48  1  0  0  0  0
 48 49  1  0  0  0  0
 49 50  1  0  0  0  0
 50 51  1  0  0  0  0
 49 52  2  0  0  0  0
 52 53  1  0  0  0  0
 53 54  1  0  0  0  0
 52 55  1  0  0  0  0
 46 56  2  0  0  0  0
 56 57  1  0  0  0  0
 45 58  1  0  0  0  0
 58 59  2  0  0  0  0
 59 60  1  0  0  0  0
 59 61  1  0  0  0  0
 61 62  2  0  0  0  0
 62 63  1  0  0  0  0
 63 64  2  0  0  0  0
 64 65  1  0  0  0  0
 65 66  1  0  0  0  0
 66 67  1  0  0  0  0
 67 68  1  0  0  0  0
 68 69  1  0  0  0  0
 67 70  2  0  0  0  0
 70 71  1  0  0  0  0
 70 72  1  0  0  0  0
 72 73  1  0  0  0  0
 64 74  1  0  0  0  0
 74 75  2  0  0  0  0
 75 76  1  0  0  0  0
 76 77  1  0  0  0  0
 77 78  1  0  0  0  0
 78 79  1  0  0  0  0
 79 80  1  0  0  0  0
 80 81  1  0  0  0  0
 79 82  2  0  0  0  0
 82 83  1  0  0  0  0
 83 84  1  0  0  0  0
 82 85  1  0  0  0  0
 76 86  2  0  0  0  0
 86 87  1  0  0  0  0
 75 88  1  0  0  0  0
 88 89  2  0  0  0  0
 89 90  1  0  0  0  0
 89 91  1  0  0  0  0
 91 92  2  0  0  0  0
 92 93  1  0  0  0  0
 93 94  2  0  0  0  0
 94 95  1  0  0  0  0
 94 96  1  0  0  0  0
 96 97  2  0  0  0  0
 97 98  1  0  0  0  0
 98 99  2  0  0  0  0
 99100  1  0  0  0  0
100101  1  0  0  0  0
 98102  1  0  0  0  0
102103  1  0  0  0  0
 97104  1  0  0  0  0
104105  1  0  0  0  0
105106  1  0  0  0  0
104107  1  0  0  0  0
107108  2  0  0  0  0
108109  1  0  0  0  0
109110  2  0  0  0  0
110111  1  0  0  0  0
111112  1  0  0  0  0
112113  1  0  0  0  0
113114  1  0  0  0  0
114115  1  0  0  0  0
113116  2  0  0  0  0
116117  1  0  0  0  0
116118  1  0  0  0  0
118119  1  0  0  0  0
110120  1  0  0  0  0
120121  2  0  0  0  0
121122  1  0  0  0  0
122123  1  0  0  0  0
123124  1  0  0  0  0
124125  1  0  0  0  0
125126  1  0  0  0  0
126127  1  0  0  0  0
125128  2  0  0  0  0
128129  1  0  0  0  0
129130  1  0  0  0  0
128131  1  0  0  0  0
122132  2  0  0  0  0
132133  1  0  0  0  0
121134  1  0  0  0  0
134135  2  0  0  0  0
135136  1  0  0  0  0
135137  1  0  0  0  0
137138  2  0  0  0  0
138139  1  0  0  0  0
139140  2  0  0  0  0
140141  1  0  0  0  0
141142  1  0  0  0  0
142143  1  0  0  0  0
143144  1  0  0  0  0
144145  1  0  0  0  0
143146  2  0  0  0  0
146147  1  0  0  0  0
146148  1  0  0  0  0
148149  1  0  0  0  0
140150  1  0  0  0  0
150151  2  0  0  0  0
151152  1  0  0  0  0
152153  1  0  0  0  0
153154  1  0  0  0  0
154155  1  0  0  0  0
155156  1  0  0  0  0
156157  1  0  0  0  0
155158  2  0  0  0  0
158159  1  0  0  0  0
159160  1  0  0  0  0
158161  1  0  0  0  0
152162  2  0  0  0  0
162163  1  0  0  0  0
151164  1  0  0  0  0
164165  2  0  0  0  0
165166  1  0  0  0  0
 27  1  1  0  0  0  0
 57 31  1  0  0  0  0
 87 61  1  0  0  0  0
 95 91  1  0  0  0  0
106 96  1  0  0  0  0
133107  1  0  0  0  0
163137  1  0  0  0  0
 26  3  1  0  0  0  0
 56 33  1  0  0  0  0
 86 63  1  0  0  0  0
 99 93  1  0  0  0  0
132109  1  0  0  0  0
162139  1  0  0  0  0
 12  5  2  0  0  0  0
 30 14  1  0  0  0  0
 42 35  2  0  0  0  0
 60 44  1  0  0  0  0
 72 65  2  0  0  0  0
 90 74  1  0  0  0  0
118111  2  0  0  0  0
136120  1  0  0  0  0
148141  2  0  0  0  0
166150  1  0  0  0  0
 23 17  2  0  0  0  0
 53 47  2  0  0  0  0
 83 77  2  0  0  0  0
129123  2  0  0  0  0
159153  2  0  0  0  0
  1167  1  0  0  0  0
  2168  1  0  0  0  0
  8169  1  0  0  0  0
  8170  1  0  0  0  0
  9171  1  0  0  0  0
  9172  1  0  0  0  0
  9173  1  0  0  0  0
 20174  1  0  0  0  0
 20175  1  0  0  0  0
 21176  1  0  0  0  0
 21177  1  0  0  0  0
 21178  1  0  0  0  0
 28179  1  0  0  0  0
 32180  1  0  0  0  0
 38181  1  0  0  0  0
 38182  1  0  0  0  0
 39183  1  0  0  0  0
 39184  1  0  0  0  0
 39185  1  0  0  0  0
 50186  1  0  0  0  0
 50187  1  0  0  0  0
 51188  1  0  0  0  0
 51189  1  0  0  0  0
 51190  1  0  0  0  0
 58191  1  0  0  0  0
 62192  1  0  0  0  0
 68193  1  0  0  0  0
 68194  1  0  0  0  0
 69195  1  0  0  0  0
 69196  1  0  0  0  0
 69197  1  0  0  0  0
 80198  1  0  0  0  0
 80199  1  0  0  0  0
 81200  1  0  0  0  0
 81201  1  0  0  0  0
 81202  1  0  0  0  0
 88203  1  0  0  0  0
100204  1  0  0  0  0
100205  1  0  0  0  0
101206  1  0  0  0  0
101207  1  0  0  0  0
101208  1  0  0  0  0
102209  1  0  0  0  0
102210  1  0  0  0  0
103211  1  0  0  0  0
103212  1  0  0  0  0
103213  1  0  0  0  0
105214  1  0  0  0  0
105215  1  0  0  0  0
108216  1  0  0  0  0
114217  1  0  0  0  0
114218  1  0  0  0  0
115219  1  0  0  0  0
115220  1  0  0  0  0
115221  1  0  0  0  0
126222  1  0  0  0  0
126223  1  0  0  0  0
127224  1  0  0  0  0
127225  1  0  0  0  0
127226  1  0  0  0  0
134227  1  0  0  0  0
138228  1  0  0  0  0
144229  1  0  0  0  0
144230  1  0  0  0  0
145231  1  0  0  0  0
145232  1  0  0  0  0
145233  1  0  0  0  0
156234  1  0  0  0  0
156235  1  0  0  0  0
157236  1  0  0  0  0
157237  1  0  0  0  0
157238  1  0  0  0  0
164239  1  0  0  0  0
165240  1  0  0  0  0
M  END
