238

C          0.41420       -3.13510       11.19360
C          0.58920       -2.15640       10.28310
C          0.42300       -2.61290        8.94280
C          0.57090       -1.88260        7.75400
C          0.82590       -0.45100        7.81230
S          2.23190        0.27320        7.10310
C          1.81550        1.84740        7.68040
C          2.67470        3.03100        7.40010
C          2.05870        3.93200        6.32810
C          0.63890        1.80210        8.36810
Cl        -0.09440        3.17050        9.09960
C          0.07860        0.50040        8.45010
Cl        -1.41550        0.17690        9.23240
C          0.43780       -2.57980        6.56080
C          0.13860       -3.96360        6.51530
C         -0.03220       -4.69020        7.70410
C         -0.32900       -6.11270        7.69420
S          0.70490       -7.23350        6.86040
C         -0.21430       -8.60110        7.39060
C          0.16780       -9.98580        6.99940
C         -0.18910      -10.27700        5.54110
C         -1.27220       -8.19290        8.14640
C         -1.33710       -6.78460        8.32710
Cl        -2.60720       -6.02660        9.19160
Cl        -2.42340       -9.25860        8.84080
C          0.11560       -3.99240        8.89650
S          0.03810       -4.67200       10.49570
C         -0.03790       -4.42000        5.18550
C          0.12810       -3.44430        4.24980
S          0.52290       -1.89250        4.96230
C         -0.09420       -3.58910        2.84240
S         -1.23720       -4.78860        2.29050
C         -1.07340       -4.29350        0.61760
C         -0.09230       -3.27770        0.50700
C          0.40380       -2.88940        1.78350
F          1.28610       -1.89240        1.93330
C          0.28700       -2.73000       -0.73330
O          1.30490       -1.83990       -0.70710
C          1.44140       -0.88260       -1.74330
C          2.41160        0.17700       -1.24940
C         -0.42670       -3.17460       -1.83710
C         -1.48880       -4.10470       -1.71470
C         -1.80030       -4.73030       -0.48720
O         -2.74960       -5.67930       -0.56510
C         -3.36700       -6.23000        0.58170
C         -4.39510       -5.28530        1.19130
C         -2.18940       -4.25080       -2.94630
F         -3.28850       -5.00510       -3.06690
C         -1.69740       -3.52270       -3.99450
S         -0.24890       -2.66650       -3.50230
C         -2.24240       -3.15110       -5.26180
C         -3.54500       -3.19020       -5.61190
C         -4.01900       -2.34550       -6.67000
C         -3.32500       -1.81460       -7.71810
C         -3.87350       -0.60550       -8.21170
C         -3.27370        0.30810       -9.10160
C         -2.11230       -0.00050       -9.91350
S         -0.69750       -0.80630       -9.30040
C          0.14340       -0.66320      -10.80490
C          1.50180       -1.24300      -10.99090
C          1.41580       -2.70080      -11.44950
C         -0.64270       -0.03800      -11.72560
Cl        -0.15790        0.27110      -13.34170
C         -1.91290        0.35000      -11.22290
Cl        -3.09210        1.11090      -12.20560
C         -3.76000        1.61100       -9.05980
C         -4.89700        1.98580       -8.30820
C         -5.65010        1.00720       -7.62390
C         -6.86450        1.38780       -6.93560
S         -7.22190        0.87860       -5.31100
C         -8.69590        1.78450       -5.26630
C         -9.58900        1.73730       -4.07640
C        -10.36760        0.42050       -4.03150
C         -8.89450        2.42870       -6.45140
C         -7.85780        2.21340       -7.39680
Cl        -7.91150        2.87020       -8.98120
Cl       -10.25340        3.42310       -6.78680
C         -5.06390       -0.24900       -7.52570
S         -5.53190       -1.49010       -6.39580
C         -4.93640        3.37890       -8.06660
C         -3.84320        4.04620       -8.54970
S         -2.85440        3.01350       -9.56770
C         -3.26390        5.20710       -7.94780
C         -3.70890        5.77180       -6.78240
C         -2.67910        6.36040       -6.01360
C         -2.71730        6.66930       -4.64000
C         -3.95140        6.66880       -3.87290
S         -5.09350        5.35570       -3.94570
C         -6.13530        6.08350       -2.76970
C         -7.41760        5.43350       -2.38230
C         -8.38590        5.36360       -3.56410
C         -5.61570        7.27190       -2.35360
Cl        -6.36290        8.29640       -1.19770
C         -4.37500        7.60050       -2.96580
Cl        -3.54940        9.06530       -2.63860
C         -1.48880        6.80720       -4.00440
C         -0.24750        6.77960       -4.68860
C         -0.22550        6.64050       -6.08980
C          0.99900        6.63580       -6.87030
S          2.38290        5.66650       -6.46030
C          3.26060        6.18240       -7.85790
C          4.61720        5.64740       -8.15680
C          4.52570        4.32380       -8.92020
C          2.51100        7.04990       -8.59510
C          1.22890        7.30630       -8.04200
Cl         0.12600        8.40980       -8.75030
Cl         3.04900        7.78090      -10.05100
C         -1.44090        6.35890       -6.70200
S         -1.60070        5.64640       -8.28550
C          0.84780        6.67900       -3.79640
C          0.47010        6.53870       -2.49090
S         -1.25990        6.74170       -2.27940
C          1.24700        5.99970       -1.41980
S          0.54900        5.74250        0.16040
C          1.83900        4.64860        0.63880
C          2.80220        4.55050       -0.39530
C          2.44950        5.35110       -1.51400
F          3.19060        5.38330       -2.62830
C          3.87840        3.63890       -0.34470
O          4.74600        3.70740       -1.37180
C          5.90360        2.89460       -1.41090
C          6.73840        3.36770       -2.59030
C          3.86180        2.74930        0.72100
C          2.91170        2.85720        1.76640
C          1.92040        3.86490        1.78450
O          1.13020        3.87490        2.87880
C          0.22560        4.93300        3.13300
C          0.92510        6.23730        3.49520
C          3.01350        1.75940        2.66730
F          2.19210        1.61440        3.71420
C          3.93050        0.80190        2.33100
S          4.83290        1.30360        0.92370
C          4.10380       -0.52200        2.84420
C          3.74120       -0.93870        4.07000
C          3.72670       -2.32560        4.43250
C          3.45490       -3.37620        3.60810
C          3.44860       -4.63340        4.25920
C          3.16060       -5.90030        3.71940
C          2.65590       -6.05180        2.36480
S          3.41250       -5.29190        0.99470
C          2.24390       -5.91970       -0.11200
C          2.29610       -5.64100       -1.57520
C          3.24100       -4.49890       -1.92200
C          1.32540       -6.67560        0.55450
Cl         0.00820       -7.46030       -0.22170
C          1.55310       -6.75170        1.95270
Cl         0.46840       -7.56310        2.99700
C          3.34660       -6.99450        4.55890
C          3.73670       -6.87130        5.91400
C          3.92110       -5.59980        6.47560
C          4.27310       -5.42290        7.87490
S          3.30550       -4.41200        8.90220
C          4.31480       -4.70850       10.27720
C          4.01640       -4.07050       11.58850
C          4.14420       -2.54940       11.50430
C          5.34500       -5.53300        9.93800
C          5.32310       -5.94290        8.57650
Cl         6.55140       -6.92410        7.88770
Cl         6.56620       -6.04770       11.02860
C          3.76410       -4.50750        5.63360
S          3.98680       -2.84010        6.08630
C          3.86150       -8.14380        6.54490
C          3.62610       -9.16990        5.70300
S          3.20600       -8.66810        4.10380
H          0.47550       -3.05730       12.26170
H          0.83670       -1.14250       10.53810
H          2.79890        3.60330        8.32320
H          3.65570        2.68600        7.07040
H          2.72280        4.77090        6.13420
H          1.09980        4.31620        6.66550
H          1.90720        3.37900        5.40600
H          1.24380      -10.11250        7.13860
H         -0.35460      -10.68530        7.65420
H         -1.25720      -10.15330        5.38080
H          0.34300       -9.59840        4.88000
H          0.08530      -11.29700        5.28620
H         -0.28870       -5.43350        4.92950
H          0.46810       -0.43130       -1.96820
H          1.82850       -1.35890       -2.65340
H          2.03490        0.61760       -0.33010
H          3.37910       -0.27350       -1.04720
H          2.52460        0.95410       -1.99990
H         -2.62100       -6.53320        1.32350
H         -3.86290       -7.12740        0.20170
H         -4.89230       -5.77730        2.02170
H         -5.13540       -5.01480        0.44220
H         -3.92010       -4.37840        1.55710
H         -1.55020       -2.61670       -5.89980
H         -4.28040       -3.66100       -4.97650
H         -2.40450       -2.23540       -8.07640
H          2.05160       -1.18820      -10.04980
H          2.03240       -0.65570      -11.74260
H          2.41360       -3.10840      -11.58680
H          0.87940       -2.76730      -12.39250
H          0.89230       -3.30010      -10.70830
H         -8.99090        1.83440       -3.16840
H        -10.28620        2.57470       -4.13090
H        -10.97990        0.31430       -4.92330
H         -9.68080       -0.42080       -3.97900
H        -11.01570        0.39910       -3.15970
H         -5.66270        3.83530       -7.42060
H         -4.71360        5.65030       -6.42700
H         -7.21760        4.42170       -2.02110
H         -7.86260        6.00950       -1.56960
H         -9.32640        4.91980       -3.25020
H         -8.58490        6.36030       -3.94940
H         -7.96530        4.75800       -4.36380
H          5.15800        6.37980       -8.75880
H          5.15850        5.49170       -7.22200
H          3.98990        3.58430       -8.32980
H          5.52210        3.94670       -9.13410
H          3.99780        4.46710       -9.85950
H          1.86960        6.62290       -4.11840
H          6.46800        2.99410       -0.47590
H          5.62240        1.84260       -1.54320
H          7.63260        2.75800       -2.67650
H          6.15760        3.29010       -3.50490
H          7.02330        4.40660       -2.45100
H         -0.35550        4.57110        3.98530
H         -0.45350        5.07950        2.28640
H          1.56980        6.08650        4.35670
H          1.52690        6.60060        2.66630
H          0.17950        6.98850        3.73720
H          4.52830       -1.22840        2.14370
H          3.42500       -0.23440        4.82400
H          3.24390       -3.24240        2.56510
H          2.61030       -6.55110       -2.09690
H          1.28190       -5.41050       -1.91460
H          4.26190       -4.75490       -1.64760
H          3.20770       -4.29700       -2.98950
H          2.95890       -3.59690       -1.38560
H          4.70940       -4.46500       12.33300
H          2.99850       -4.32960       11.89070
H          3.45610       -2.15700       10.75890
H          5.15660       -2.27010       11.22340
H          3.91290       -2.10030       12.46630
H          4.11370       -8.26860        7.58110
H          3.67010      -10.22100        5.91230
