
  xtb     02282220473D
 energy: -447.979917387082 gnorm: 0.000378078880 xtb: 6.4.1 (unknown)
230253  0     0  0            999 V2000
    7.5611   -8.6278    9.1986 C   0  0  0  0  0  0  0  0  0  0  0  0
    7.4296   -8.4717    7.8655 C   0  0  0  0  0  0  0  0  0  0  0  0
    6.3986   -7.5517    7.5167 C   0  0  0  0  0  0  0  0  0  0  0  0
    6.0235   -7.1143    6.2385 C   0  0  0  0  0  0  0  0  0  0  0  0
    6.6427   -7.6447    5.0326 C   0  0  0  0  0  0  0  0  0  0  0  0
    6.6183   -9.3466    4.6736 S   0  0  0  0  0  0  0  0  0  0  0  0
    7.4263   -9.1184    3.1593 C   0  0  0  0  0  0  0  0  0  0  0  0
    7.7834  -10.2704    2.2864 C   0  0  0  0  0  0  0  0  0  0  0  0
    9.1741  -10.8075    2.6330 C   0  0  0  0  0  0  0  0  0  0  0  0
    7.7083   -7.7990    2.9672 C   0  0  0  0  0  0  0  0  0  0  0  0
    8.5145   -7.1822    1.5824 Cl  0  0  0  0  0  0  0  0  0  0  0  0
    7.2598   -6.9603    4.0236 C   0  0  0  0  0  0  0  0  0  0  0  0
    7.5448   -5.2728    4.0424 Cl  0  0  0  0  0  0  0  0  0  0  0  0
    5.0150   -6.1615    6.1702 C   0  0  0  0  0  0  0  0  0  0  0  0
    4.3645   -5.6402    7.3150 C   0  0  0  0  0  0  0  0  0  0  0  0
    4.7297   -6.0912    8.5950 C   0  0  0  0  0  0  0  0  0  0  0  0
    4.0504   -5.6089    9.7861 C   0  0  0  0  0  0  0  0  0  0  0  0
    3.9051   -3.9086   10.1249 S   0  0  0  0  0  0  0  0  0  0  0  0
    3.0337   -4.1931   11.5921 C   0  0  0  0  0  0  0  0  0  0  0  0
    2.6088   -3.0708   12.4737 C   0  0  0  0  0  0  0  0  0  0  0  0
    3.6980   -2.7371   13.4959 C   0  0  0  0  0  0  0  0  0  0  0  0
    2.8795   -5.5314   11.7980 C   0  0  0  0  0  0  0  0  0  0  0  0
    3.4495   -6.3370   10.7759 C   0  0  0  0  0  0  0  0  0  0  0  0
    3.2976   -8.0437   10.7649 Cl  0  0  0  0  0  0  0  0  0  0  0  0
    2.0615   -6.2012   13.1493 Cl  0  0  0  0  0  0  0  0  0  0  0  0
    5.7524   -7.0306    8.6638 C   0  0  0  0  0  0  0  0  0  0  0  0
    6.4459   -7.6826   10.1209 S   0  0  0  0  0  0  0  0  0  0  0  0
    3.3256   -4.7428    6.9677 C   0  0  0  0  0  0  0  0  0  0  0  0
    3.1718   -4.5765    5.6211 C   0  0  0  0  0  0  0  0  0  0  0  0
    4.3275   -5.5209    4.7106 S   0  0  0  0  0  0  0  0  0  0  0  0
    2.1622   -3.8048    4.9670 C   0  0  0  0  0  0  0  0  0  0  0  0
    1.1801   -3.0759    5.5701 C   0  0  0  0  0  0  0  0  0  0  0  0
    0.2509   -2.5182    4.6624 C   0  0  0  0  0  0  0  0  0  0  0  0
   -0.8398   -1.6943    4.9830 C   0  0  0  0  0  0  0  0  0  0  0  0
   -1.1433   -1.3326    6.3584 C   0  0  0  0  0  0  0  0  0  0  0  0
   -1.3897   -2.5469    7.5803 S   0  0  0  0  0  0  0  0  0  0  0  0
   -1.7073   -1.3659    8.8050 C   0  0  0  0  0  0  0  0  0  0  0  0
   -2.0654   -1.7717   10.1918 C   0  0  0  0  0  0  0  0  0  0  0  0
   -3.5550   -2.1074   10.2960 C   0  0  0  0  0  0  0  0  0  0  0  0
   -1.6318   -0.1104    8.2809 C   0  0  0  0  0  0  0  0  0  0  0  0
   -1.8857    1.3240    9.1891 Cl  0  0  0  0  0  0  0  0  0  0  0  0
   -1.3085   -0.0873    6.8972 C   0  0  0  0  0  0  0  0  0  0  0  0
   -1.0729    1.3750    6.0385 Cl  0  0  0  0  0  0  0  0  0  0  0  0
   -1.6157   -1.2497    3.9237 C   0  0  0  0  0  0  0  0  0  0  0  0
   -1.3358   -1.5674    2.5709 C   0  0  0  0  0  0  0  0  0  0  0  0
   -0.2011   -2.3441    2.2370 C   0  0  0  0  0  0  0  0  0  0  0  0
    0.1819   -2.5048    0.8458 C   0  0  0  0  0  0  0  0  0  0  0  0
    0.0046   -1.1392   -0.2340 S   0  0  0  0  0  0  0  0  0  0  0  0
    0.7204   -1.9686   -1.5639 C   0  0  0  0  0  0  0  0  0  0  0  0
    0.7848   -1.3330   -2.9068 C   0  0  0  0  0  0  0  0  0  0  0  0
   -0.5866   -1.3445   -3.5857 C   0  0  0  0  0  0  0  0  0  0  0  0
    1.0775   -3.2284   -1.1892 C   0  0  0  0  0  0  0  0  0  0  0  0
    0.7738   -3.5386    0.1650 C   0  0  0  0  0  0  0  0  0  0  0  0
    1.0280   -5.1241    0.7594 Cl  0  0  0  0  0  0  0  0  0  0  0  0
    1.8388   -4.3578   -2.2338 Cl  0  0  0  0  0  0  0  0  0  0  0  0
    0.5521   -2.8267    3.3096 C   0  0  0  0  0  0  0  0  0  0  0  0
    1.9907   -3.8030    3.2282 S   0  0  0  0  0  0  0  0  0  0  0  0
   -2.3177   -1.0249    1.7037 C   0  0  0  0  0  0  0  0  0  0  0  0
   -3.2758   -0.2967    2.3475 C   0  0  0  0  0  0  0  0  0  0  0  0
   -3.0439   -0.2752    4.0799 S   0  0  0  0  0  0  0  0  0  0  0  0
   -4.3525    0.4519    1.7831 C   0  0  0  0  0  0  0  0  0  0  0  0
   -5.4908    1.2596    2.8252 S   0  0  0  0  0  0  0  0  0  0  0  0
   -6.3239    1.9954    1.4662 C   0  0  0  0  0  0  0  0  0  0  0  0
   -5.7433    1.5737    0.2376 C   0  0  0  0  0  0  0  0  0  0  0  0
   -4.6332    0.7150    0.4709 C   0  0  0  0  0  0  0  0  0  0  0  0
   -3.8864    0.2199   -0.5291 F   0  0  0  0  0  0  0  0  0  0  0  0
   -6.2344    2.0378   -0.9948 C   0  0  0  0  0  0  0  0  0  0  0  0
   -5.6807    1.7039   -2.2005 O   0  0  0  0  0  0  0  0  0  0  0  0
   -5.9956    0.4093   -2.7014 C   0  0  0  0  0  0  0  0  0  0  0  0
   -7.4477    0.2978   -3.1492 C   0  0  0  0  0  0  0  0  0  0  0  0
   -7.2772    2.9496   -0.9361 C   0  0  0  0  0  0  0  0  0  0  0  0
   -7.8314    3.3983    0.2808 C   0  0  0  0  0  0  0  0  0  0  0  0
   -7.3743    2.9039    1.5220 C   0  0  0  0  0  0  0  0  0  0  0  0
   -8.0176    3.3863    2.5975 O   0  0  0  0  0  0  0  0  0  0  0  0
   -7.6102    3.0762    3.9172 C   0  0  0  0  0  0  0  0  0  0  0  0
   -8.5325    3.8375    4.8560 C   0  0  0  0  0  0  0  0  0  0  0  0
   -8.8267    4.3773    0.0380 C   0  0  0  0  0  0  0  0  0  0  0  0
   -9.5111    4.9803    1.0198 F   0  0  0  0  0  0  0  0  0  0  0  0
   -9.0238    4.7083   -1.2788 C   0  0  0  0  0  0  0  0  0  0  0  0
   -8.0112    3.7197   -2.3085 S   0  0  0  0  0  0  0  0  0  0  0  0
   -9.9893    5.6721   -1.7148 C   0  0  0  0  0  0  0  0  0  0  0  0
  -10.0857    6.3313   -2.8846 C   0  0  0  0  0  0  0  0  0  0  0  0
   -9.1611    6.3337   -3.9813 C   0  0  0  0  0  0  0  0  0  0  0  0
   -9.7829    6.5533   -5.6028 S   0  0  0  0  0  0  0  0  0  0  0  0
   -8.1821    6.4832   -6.3164 C   0  0  0  0  0  0  0  0  0  0  0  0
   -7.2064    6.3018   -5.3046 C   0  0  0  0  0  0  0  0  0  0  0  0
   -7.7981    6.2774   -4.0103 C   0  0  0  0  0  0  0  0  0  0  0  0
   -7.0612    6.2882   -2.8934 F   0  0  0  0  0  0  0  0  0  0  0  0
   -5.8372    6.1302   -5.5892 C   0  0  0  0  0  0  0  0  0  0  0  0
   -5.0372    5.9549   -4.5159 O   0  0  0  0  0  0  0  0  0  0  0  0
   -3.7784    5.3164   -4.6184 C   0  0  0  0  0  0  0  0  0  0  0  0
   -3.9061    3.8322   -4.9401 C   0  0  0  0  0  0  0  0  0  0  0  0
   -5.4872    6.2162   -6.9328 C   0  0  0  0  0  0  0  0  0  0  0  0
   -6.4503    6.4852   -7.9356 C   0  0  0  0  0  0  0  0  0  0  0  0
   -7.8306    6.5912   -7.6555 C   0  0  0  0  0  0  0  0  0  0  0  0
   -8.6141    6.8297   -8.7296 O   0  0  0  0  0  0  0  0  0  0  0  0
  -10.0114    6.6207   -8.6972 C   0  0  0  0  0  0  0  0  0  0  0  0
  -10.3766    5.1416   -8.6548 C   0  0  0  0  0  0  0  0  0  0  0  0
   -5.8315    6.6252   -9.2047 C   0  0  0  0  0  0  0  0  0  0  0  0
   -6.5169    6.9091  -10.3207 F   0  0  0  0  0  0  0  0  0  0  0  0
   -4.4717    6.4480   -9.2347 C   0  0  0  0  0  0  0  0  0  0  0  0
   -3.8935    6.0738   -7.6331 S   0  0  0  0  0  0  0  0  0  0  0  0
   -3.6785    6.5518  -10.4217 C   0  0  0  0  0  0  0  0  0  0  0  0
   -2.4085    6.1755  -10.6496 C   0  0  0  0  0  0  0  0  0  0  0  0
   -1.4947    5.5586   -9.7175 C   0  0  0  0  0  0  0  0  0  0  0  0
   -0.7579    4.0376  -10.1801 S   0  0  0  0  0  0  0  0  0  0  0  0
    0.0723    3.8861   -8.6456 C   0  0  0  0  0  0  0  0  0  0  0  0
   -0.2253    4.9892   -7.8128 C   0  0  0  0  0  0  0  0  0  0  0  0
   -1.0672    5.9283   -8.4806 C   0  0  0  0  0  0  0  0  0  0  0  0
   -1.3503    7.1298   -7.9596 F   0  0  0  0  0  0  0  0  0  0  0  0
    0.2063    5.0639   -6.4725 C   0  0  0  0  0  0  0  0  0  0  0  0
   -0.2157    6.1489   -5.7948 O   0  0  0  0  0  0  0  0  0  0  0  0
    0.1337    6.3555   -4.4395 C   0  0  0  0  0  0  0  0  0  0  0  0
   -0.4847    7.6788   -4.0177 C   0  0  0  0  0  0  0  0  0  0  0  0
    0.9717    3.9957   -6.0204 C   0  0  0  0  0  0  0  0  0  0  0  0
    1.3271    2.9255   -6.8789 C   0  0  0  0  0  0  0  0  0  0  0  0
    0.8832    2.8437   -8.2148 C   0  0  0  0  0  0  0  0  0  0  0  0
    1.2468    1.7274   -8.8857 O   0  0  0  0  0  0  0  0  0  0  0  0
    1.3167    1.7127  -10.2984 C   0  0  0  0  0  0  0  0  0  0  0  0
    2.3841    2.6553  -10.8403 C   0  0  0  0  0  0  0  0  0  0  0  0
    2.1172    1.9582   -6.2028 C   0  0  0  0  0  0  0  0  0  0  0  0
    2.5676    0.8566   -6.8189 F   0  0  0  0  0  0  0  0  0  0  0  0
    2.3609    2.2072   -4.8782 C   0  0  0  0  0  0  0  0  0  0  0  0
    1.6192    3.7206   -4.4121 S   0  0  0  0  0  0  0  0  0  0  0  0
    3.0048    1.3996   -3.8932 C   0  0  0  0  0  0  0  0  0  0  0  0
    3.6542    0.2456   -4.1538 C   0  0  0  0  0  0  0  0  0  0  0  0
    4.1078   -0.6713   -3.1636 C   0  0  0  0  0  0  0  0  0  0  0  0
    4.6115   -1.9167   -3.4090 C   0  0  0  0  0  0  0  0  0  0  0  0
    4.8006   -2.6970   -2.2439 C   0  0  0  0  0  0  0  0  0  0  0  0
    5.2233   -4.0346   -2.1710 C   0  0  0  0  0  0  0  0  0  0  0  0
    5.6516   -4.7557   -3.3584 C   0  0  0  0  0  0  0  0  0  0  0  0
    6.9446   -4.1427   -4.3489 S   0  0  0  0  0  0  0  0  0  0  0  0
    6.8600   -5.4889   -5.4329 C   0  0  0  0  0  0  0  0  0  0  0  0
    7.8079   -5.6255   -6.5728 C   0  0  0  0  0  0  0  0  0  0  0  0
    9.1134   -6.2846   -6.1214 C   0  0  0  0  0  0  0  0  0  0  0  0
    5.8858   -6.3540   -5.0348 C   0  0  0  0  0  0  0  0  0  0  0  0
    5.5017   -7.8067   -5.8635 Cl  0  0  0  0  0  0  0  0  0  0  0  0
    5.1957   -5.9418   -3.8625 C   0  0  0  0  0  0  0  0  0  0  0  0
    3.8729   -6.8238   -3.2257 Cl  0  0  0  0  0  0  0  0  0  0  0  0
    5.1970   -4.6309   -0.9179 C   0  0  0  0  0  0  0  0  0  0  0  0
    4.8055   -3.9387    0.2541 C   0  0  0  0  0  0  0  0  0  0  0  0
    4.4678   -2.5734    0.1964 C   0  0  0  0  0  0  0  0  0  0  0  0
    4.1483   -1.8266    1.3992 C   0  0  0  0  0  0  0  0  0  0  0  0
    2.7888   -0.7433    1.4473 S   0  0  0  0  0  0  0  0  0  0  0  0
    3.0086   -0.3928    3.1231 C   0  0  0  0  0  0  0  0  0  0  0  0
    2.0907    0.5142    3.8691 C   0  0  0  0  0  0  0  0  0  0  0  0
    1.1202    1.2463    2.9538 C   0  0  0  0  0  0  0  0  0  0  0  0
    4.0996   -1.0577    3.5995 C   0  0  0  0  0  0  0  0  0  0  0  0
    4.7620   -1.8489    2.6250 C   0  0  0  0  0  0  0  0  0  0  0  0
    6.2489   -2.6283    2.9638 Cl  0  0  0  0  0  0  0  0  0  0  0  0
    4.6107   -0.9833    5.2379 Cl  0  0  0  0  0  0  0  0  0  0  0  0
    4.4262   -1.9995   -1.0700 C   0  0  0  0  0  0  0  0  0  0  0  0
    3.8986   -0.3826   -1.4431 S   0  0  0  0  0  0  0  0  0  0  0  0
    4.7832   -4.8089    1.3792 C   0  0  0  0  0  0  0  0  0  0  0  0
    5.1871   -6.0618    1.0909 C   0  0  0  0  0  0  0  0  0  0  0  0
    5.6189   -6.2819   -0.5660 S   0  0  0  0  0  0  0  0  0  0  0  0
    8.2569   -9.2529    9.7231 H   0  0  0  0  0  0  0  0  0  0  0  0
    8.0407   -8.9772    7.1407 H   0  0  0  0  0  0  0  0  0  0  0  0
    7.7705   -9.9376    1.2465 H   0  0  0  0  0  0  0  0  0  0  0  0
    7.0443  -11.0634    2.4108 H   0  0  0  0  0  0  0  0  0  0  0  0
    9.1999  -11.1536    3.6636 H   0  0  0  0  0  0  0  0  0  0  0  0
    9.4265  -11.6383    1.9798 H   0  0  0  0  0  0  0  0  0  0  0  0
    9.9202  -10.0269    2.5086 H   0  0  0  0  0  0  0  0  0  0  0  0
    2.3986   -2.1906   11.8640 H   0  0  0  0  0  0  0  0  0  0  0  0
    1.6962   -3.3628   12.9973 H   0  0  0  0  0  0  0  0  0  0  0  0
    3.9102   -3.6043   14.1158 H   0  0  0  0  0  0  0  0  0  0  0  0
    4.6128   -2.4393   12.9893 H   0  0  0  0  0  0  0  0  0  0  0  0
    3.3718   -1.9220   14.1362 H   0  0  0  0  0  0  0  0  0  0  0  0
    2.7025   -4.2551    7.6932 H   0  0  0  0  0  0  0  0  0  0  0  0
    1.1140   -2.9444    6.6331 H   0  0  0  0  0  0  0  0  0  0  0  0
   -1.8270   -0.9494   10.8689 H   0  0  0  0  0  0  0  0  0  0  0  0
   -1.4760   -2.6447   10.4784 H   0  0  0  0  0  0  0  0  0  0  0  0
   -3.8039   -2.9292    9.6287 H   0  0  0  0  0  0  0  0  0  0  0  0
   -4.1561   -1.2437   10.0233 H   0  0  0  0  0  0  0  0  0  0  0  0
   -3.8019   -2.3969   11.3138 H   0  0  0  0  0  0  0  0  0  0  0  0
    1.1219   -0.3004   -2.8032 H   0  0  0  0  0  0  0  0  0  0  0  0
    1.5049   -1.8763   -3.5206 H   0  0  0  0  0  0  0  0  0  0  0  0
   -0.9370   -2.3656   -3.7139 H   0  0  0  0  0  0  0  0  0  0  0  0
   -1.3103   -0.7993   -2.9843 H   0  0  0  0  0  0  0  0  0  0  0  0
   -0.5174   -0.8747   -4.5632 H   0  0  0  0  0  0  0  0  0  0  0  0
   -2.3328   -1.1776    0.6425 H   0  0  0  0  0  0  0  0  0  0  0  0
   -5.3188    0.2783   -3.5482 H   0  0  0  0  0  0  0  0  0  0  0  0
   -5.7751   -0.3591   -1.9515 H   0  0  0  0  0  0  0  0  0  0  0  0
   -8.1195    0.4055   -2.2996 H   0  0  0  0  0  0  0  0  0  0  0  0
   -7.6767    1.0764   -3.8725 H   0  0  0  0  0  0  0  0  0  0  0  0
   -7.6142   -0.6739   -3.6056 H   0  0  0  0  0  0  0  0  0  0  0  0
   -7.6905    1.9967    4.0963 H   0  0  0  0  0  0  0  0  0  0  0  0
   -6.5697    3.3853    4.0739 H   0  0  0  0  0  0  0  0  0  0  0  0
   -8.4615    4.9031    4.6580 H   0  0  0  0  0  0  0  0  0  0  0  0
   -8.2509    3.6423    5.8862 H   0  0  0  0  0  0  0  0  0  0  0  0
   -9.5613    3.5265    4.6982 H   0  0  0  0  0  0  0  0  0  0  0  0
  -10.7441    5.8810   -0.9660 H   0  0  0  0  0  0  0  0  0  0  0  0
  -10.9678    6.9377   -3.0465 H   0  0  0  0  0  0  0  0  0  0  0  0
   -3.3476    5.4455   -3.6217 H   0  0  0  0  0  0  0  0  0  0  0  0
   -3.1337    5.8207   -5.3469 H   0  0  0  0  0  0  0  0  0  0  0  0
   -2.9196    3.3771   -4.9480 H   0  0  0  0  0  0  0  0  0  0  0  0
   -4.3630    3.6889   -5.9168 H   0  0  0  0  0  0  0  0  0  0  0  0
   -4.5184    3.3395   -4.1875 H   0  0  0  0  0  0  0  0  0  0  0  0
  -10.4732    7.1602   -7.8634 H   0  0  0  0  0  0  0  0  0  0  0  0
  -10.3583    7.0655   -9.6338 H   0  0  0  0  0  0  0  0  0  0  0  0
  -10.0311    4.6838   -7.7312 H   0  0  0  0  0  0  0  0  0  0  0  0
  -11.4552    5.0323   -8.7154 H   0  0  0  0  0  0  0  0  0  0  0  0
   -9.9187    4.6243   -9.4945 H   0  0  0  0  0  0  0  0  0  0  0  0
   -4.2358    6.9491  -11.2615 H   0  0  0  0  0  0  0  0  0  0  0  0
   -2.0407    6.2385  -11.6660 H   0  0  0  0  0  0  0  0  0  0  0  0
    1.2245    6.3942   -4.3313 H   0  0  0  0  0  0  0  0  0  0  0  0
   -0.2552    5.5377   -3.8201 H   0  0  0  0  0  0  0  0  0  0  0  0
   -1.5652    7.6349   -4.1199 H   0  0  0  0  0  0  0  0  0  0  0  0
   -0.2299    7.8902   -2.9836 H   0  0  0  0  0  0  0  0  0  0  0  0
   -0.1118    8.4781   -4.6516 H   0  0  0  0  0  0  0  0  0  0  0  0
    0.3408    1.9353  -10.7448 H   0  0  0  0  0  0  0  0  0  0  0  0
    1.5765    0.6763  -10.5286 H   0  0  0  0  0  0  0  0  0  0  0  0
    3.3448    2.4271  -10.3847 H   0  0  0  0  0  0  0  0  0  0  0  0
    2.1319    3.6907  -10.6238 H   0  0  0  0  0  0  0  0  0  0  0  0
    2.4637    2.5339  -11.9164 H   0  0  0  0  0  0  0  0  0  0  0  0
    2.9071    1.7376   -2.8693 H   0  0  0  0  0  0  0  0  0  0  0  0
    3.7958   -0.0857   -5.1718 H   0  0  0  0  0  0  0  0  0  0  0  0
    4.8001   -2.2820   -4.4022 H   0  0  0  0  0  0  0  0  0  0  0  0
    7.3386   -6.2362   -7.3465 H   0  0  0  0  0  0  0  0  0  0  0  0
    8.0228   -4.6385   -6.9863 H   0  0  0  0  0  0  0  0  0  0  0  0
    8.9151   -7.2737   -5.7164 H   0  0  0  0  0  0  0  0  0  0  0  0
    9.7935   -6.3822   -6.9633 H   0  0  0  0  0  0  0  0  0  0  0  0
    9.5927   -5.6837   -5.3521 H   0  0  0  0  0  0  0  0  0  0  0  0
    2.6942    1.2337    4.4303 H   0  0  0  0  0  0  0  0  0  0  0  0
    1.5321   -0.0746    4.6042 H   0  0  0  0  0  0  0  0  0  0  0  0
    0.5090    0.5382    2.3983 H   0  0  0  0  0  0  0  0  0  0  0  0
    0.4641    1.8844    3.5393 H   0  0  0  0  0  0  0  0  0  0  0  0
    1.6609    1.8630    2.2401 H   0  0  0  0  0  0  0  0  0  0  0  0
    4.4465   -4.5097    2.3506 H   0  0  0  0  0  0  0  0  0  0  0  0
    5.2497   -6.8992    1.7581 H   0  0  0  0  0  0  0  0  0  0  0  0
  1  2  2  0  0  0  0
  2  3  1  0  0  0  0
  3  4  2  0  0  0  0
  4  5  1  0  0  0  0
  5  6  1  0  0  0  0
  6  7  1  0  0  0  0
  7  8  1  0  0  0  0
  8  9  1  0  0  0  0
  7 10  2  0  0  0  0
 10 11  1  0  0  0  0
 10 12  1  0  0  0  0
 12 13  1  0  0  0  0
  4 14  1  0  0  0  0
 14 15  2  0  0  0  0
 15 16  1  0  0  0  0
 16 17  1  0  0  0  0
 17 18  1  0  0  0  0
 18 19  1  0  0  0  0
 19 20  1  0  0  0  0
 20 21  1  0  0  0  0
 19 22  2  0  0  0  0
 22 23  1  0  0  0  0
 23 24  1  0  0  0  0
 22 25  1  0  0  0  0
 16 26  2  0  0  0  0
 26 27  1  0  0  0  0
 15 28  1  0  0  0  0
 28 29  2  0  0  0  0
 29 30  1  0  0  0  0
 29 31  1  0  0  0  0
 31 32  2  0  0  0  0
 32 33  1  0  0  0  0
 33 34  2  0  0  0  0
 34 35  1  0  0  0  0
 35 36  1  0  0  0  0
 36 37  1  0  0  0  0
 37 38  1  0  0  0  0
 38 39  1  0  0  0  0
 37 40  2  0  0  0  0
 40 41  1  0  0  0  0
 40 42  1  0  0  0  0
 42 43  1  0  0  0  0
 34 44  1  0  0  0  0
 44 45  2  0  0  0  0
 45 46  1  0  0  0  0
 46 47  1  0  0  0  0
 47 48  1  0  0  0  0
 48 49  1  0  0  0  0
 49 50  1  0  0  0  0
 50 51  1  0  0  0  0
 49 52  2  0  0  0  0
 52 53  1  0  0  0  0
 53 54  1  0  0  0  0
 52 55  1  0  0  0  0
 46 56  2  0  0  0  0
 56 57  1  0  0  0  0
 45 58  1  0  0  0  0
 58 59  2  0  0  0  0
 59 60  1  0  0  0  0
 59 61  1  0  0  0  0
 61 62  1  0  0  0  0
 62 63  1  0  0  0  0
 63 64  2  0  0  0  0
 64 65  1  0  0  0  0
 65 66  1  0  0  0  0
 64 67  1  0  0  0  0
 67 68  1  0  0  0  0
 68 69  1  0  0  0  0
 69 70  1  0  0  0  0
 67 71  2  0  0  0  0
 71 72  1  0  0  0  0
 72 73  2  0  0  0  0
 73 74  1  0  0  0  0
 74 75  1  0  0  0  0
 75 76  1  0  0  0  0
 72 77  1  0  0  0  0
 77 78  1  0  0  0  0
 77 79  2  0  0  0  0
 79 80  1  0  0  0  0
 79 81  1  0  0  0  0
 81 82  2  0  0  0  0
 82 83  1  0  0  0  0
 83 84  1  0  0  0  0
 84 85  1  0  0  0  0
 85 86  2  0  0  0  0
 86 87  1  0  0  0  0
 87 88  1  0  0  0  0
 86 89  1  0  0  0  0
 89 90  1  0  0  0  0
 90 91  1  0  0  0  0
 91 92  1  0  0  0  0
 89 93  2  0  0  0  0
 93 94  1  0  0  0  0
 94 95  2  0  0  0  0
 95 96  1  0  0  0  0
 96 97  1  0  0  0  0
 97 98  1  0  0  0  0
 94 99  1  0  0  0  0
 99100  1  0  0  0  0
 99101  2  0  0  0  0
101102  1  0  0  0  0
101103  1  0  0  0  0
103104  2  0  0  0  0
104105  1  0  0  0  0
105106  1  0  0  0  0
106107  1  0  0  0  0
107108  2  0  0  0  0
108109  1  0  0  0  0
109110  1  0  0  0  0
108111  1  0  0  0  0
111112  1  0  0  0  0
112113  1  0  0  0  0
113114  1  0  0  0  0
111115  2  0  0  0  0
115116  1  0  0  0  0
116117  2  0  0  0  0
117118  1  0  0  0  0
118119  1  0  0  0  0
119120  1  0  0  0  0
116121  1  0  0  0  0
121122  1  0  0  0  0
121123  2  0  0  0  0
123124  1  0  0  0  0
123125  1  0  0  0  0
125126  2  0  0  0  0
126127  1  0  0  0  0
127128  2  0  0  0  0
128129  1  0  0  0  0
129130  2  0  0  0  0
130131  1  0  0  0  0
131132  1  0  0  0  0
132133  1  0  0  0  0
133134  1  0  0  0  0
134135  1  0  0  0  0
133136  2  0  0  0  0
136137  1  0  0  0  0
136138  1  0  0  0  0
138139  1  0  0  0  0
130140  1  0  0  0  0
140141  2  0  0  0  0
141142  1  0  0  0  0
142143  1  0  0  0  0
143144  1  0  0  0  0
144145  1  0  0  0  0
145146  1  0  0  0  0
146147  1  0  0  0  0
145148  2  0  0  0  0
148149  1  0  0  0  0
149150  1  0  0  0  0
148151  1  0  0  0  0
142152  2  0  0  0  0
152153  1  0  0  0  0
141154  1  0  0  0  0
154155  2  0  0  0  0
155156  1  0  0  0  0
 27  1  1  0  0  0  0
 57 31  1  0  0  0  0
 65 61  2  0  0  0  0
 80 71  1  0  0  0  0
 87 83  2  0  0  0  0
102 93  1  0  0  0  0
109105  2  0  0  0  0
124115  1  0  0  0  0
153127  1  0  0  0  0
 26  3  1  0  0  0  0
 56 33  1  0  0  0  0
 73 63  1  0  0  0  0
 95 85  1  0  0  0  0
117107  1  0  0  0  0
152129  1  0  0  0  0
 12  5  2  0  0  0  0
 30 14  1  0  0  0  0
 42 35  2  0  0  0  0
 60 44  1  0  0  0  0
138131  2  0  0  0  0
156140  1  0  0  0  0
 23 17  2  0  0  0  0
 53 47  2  0  0  0  0
149143  2  0  0  0  0
  1157  1  0  0  0  0
  2158  1  0  0  0  0
  8159  1  0  0  0  0
  8160  1  0  0  0  0
  9161  1  0  0  0  0
  9162  1  0  0  0  0
  9163  1  0  0  0  0
 20164  1  0  0  0  0
 20165  1  0  0  0  0
 21166  1  0  0  0  0
 21167  1  0  0  0  0
 21168  1  0  0  0  0
 28169  1  0  0  0  0
 32170  1  0  0  0  0
 38171  1  0  0  0  0
 38172  1  0  0  0  0
 39173  1  0  0  0  0
 39174  1  0  0  0  0
 39175  1  0  0  0  0
 50176  1  0  0  0  0
 50177  1  0  0  0  0
 51178  1  0  0  0  0
 51179  1  0  0  0  0
 51180  1  0  0  0  0
 58181  1  0  0  0  0
 69182  1  0  0  0  0
 69183  1  0  0  0  0
 70184  1  0  0  0  0
 70185  1  0  0  0  0
 70186  1  0  0  0  0
 75187  1  0  0  0  0
 75188  1  0  0  0  0
 76189  1  0  0  0  0
 76190  1  0  0  0  0
 76191  1  0  0  0  0
 81192  1  0  0  0  0
 82193  1  0  0  0  0
 91194  1  0  0  0  0
 91195  1  0  0  0  0
 92196  1  0  0  0  0
 92197  1  0  0  0  0
 92198  1  0  0  0  0
 97199  1  0  0  0  0
 97200  1  0  0  0  0
 98201  1  0  0  0  0
 98202  1  0  0  0  0
 98203  1  0  0  0  0
103204  1  0  0  0  0
104205  1  0  0  0  0
113206  1  0  0  0  0
113207  1  0  0  0  0
114208  1  0  0  0  0
114209  1  0  0  0  0
114210  1  0  0  0  0
119211  1  0  0  0  0
119212  1  0  0  0  0
120213  1  0  0  0  0
120214  1  0  0  0  0
120215  1  0  0  0  0
125216  1  0  0  0  0
126217  1  0  0  0  0
128218  1  0  0  0  0
134219  1  0  0  0  0
134220  1  0  0  0  0
135221  1  0  0  0  0
135222  1  0  0  0  0
135223  1  0  0  0  0
146224  1  0  0  0  0
146225  1  0  0  0  0
147226  1  0  0  0  0
147227  1  0  0  0  0
147228  1  0  0  0  0
154229  1  0  0  0  0
155230  1  0  0  0  0
M  END
