164

C         -1.58670       10.16560        4.71160
S         -0.99380        8.74390        5.51390
C         -0.97330        7.90130        4.00740
C         -0.66770        6.65740        3.44450
C         -0.91390        6.76790        2.06340
N         -1.35690        8.03090        1.77150
C         -1.91470        8.46630        0.51770
C         -3.42840        8.26490        0.48320
C         -1.40920        8.72200        2.95290
C         -1.76060       10.02160        3.37200
C         -0.64720        5.58780        1.35010
C         -0.24290        4.57620        2.17950
S         -0.14870        5.06900        3.87290
C          0.05760        3.21510        1.83000
S         -0.71890        1.92590        2.74360
C          0.08170        0.74700        1.77530
C          0.23240       -0.63520        1.64220
C          1.17680       -0.84160        0.61630
N          1.60270        0.36900        0.12480
C          2.77670        0.58380       -0.68550
C          2.45420        0.94010       -2.13210
C          0.92490        1.34190        0.81960
C          0.88280        2.74530        0.84000
C          1.44860       -2.19320        0.38200
C          0.73780       -3.00590        1.23830
S         -0.30830       -2.11510        2.33370
C          0.77860       -4.42690        1.29250
S          1.49300       -5.34310       -0.01700
C          1.10680       -6.87150        0.74960
C          0.46290       -6.66100        1.99090
C          0.29750       -5.27270        2.25250
F         -0.31110       -4.81420        3.35530
C          0.01890       -7.72820        2.80070
O         -0.50760       -7.37440        3.98550
C         -1.17590       -8.32180        4.79870
C         -1.67440       -7.57930        6.02850
C          0.15940       -9.00060        2.25730
C          0.76170       -9.19900        0.99200
C          1.30430       -8.14470        0.23630
O          1.87730       -8.47790       -0.94910
C          2.97630       -7.72770       -1.43310
C          4.15740       -7.72710       -0.47110
C          0.59430      -10.54540        0.55740
F          1.01370      -10.97280       -0.64350
C         -0.10380      -11.35370        1.39740
S         -0.43130      -10.52600        2.89840
C         -0.80150      -12.58000        1.00110
C         -1.79460      -12.47800        0.11220
C         -2.18590      -11.14430       -0.35030
S         -1.78790      -10.53630       -1.94080
C         -2.04250       -8.89490       -1.41720
C         -2.51330       -8.82710       -0.09100
C         -2.61670      -10.13580        0.45730
F         -3.07530      -10.36870        1.69780
C         -2.69080       -7.59550        0.57110
O         -3.07860       -7.69180        1.86100
C         -3.63630       -6.59420        2.56160
C         -5.00930       -6.20130        2.03220
C         -2.36130       -6.46040       -0.16110
C         -1.90970       -6.53060       -1.50820
C         -1.76340       -7.76390       -2.16930
O         -1.43760       -7.87350       -3.48540
C         -0.07680       -7.66140       -3.86100
C          0.67860       -8.98020       -3.95980
C         -1.64600       -5.23140       -2.02300
F         -1.22860       -5.04190       -3.28460
C         -1.85520       -4.18980       -1.15910
S         -2.41970       -4.79330        0.37760
C         -1.69170       -2.78320       -1.32800
C         -1.18480       -2.19000       -2.42780
C         -1.05330       -0.78320       -2.58930
S         -1.59600        0.38710       -1.40910
C         -1.06680        1.73590       -2.40060
C         -0.46840        1.27070       -3.59690
C         -0.50270       -0.14540       -3.66900
F         -0.00390       -0.83420       -4.70410
C          0.11560        2.14160       -4.54120
O          0.63090        1.54320       -5.63230
C          1.11080        2.29580       -6.72950
C          1.47370        1.30520       -7.82400
C          0.10930        3.48860       -4.20720
C         -0.51060        3.96210       -3.02300
C         -1.14630        3.09290       -2.11020
O         -1.75410        3.67240       -1.04990
C         -2.76440        2.96170       -0.35230
C         -3.58500        3.96310        0.44370
C         -0.39490        5.37800       -2.92200
F         -0.96570        6.07590       -1.92650
C          0.28750        6.00100       -3.92690
S          0.80630        4.82140       -5.11090
C          0.50670        7.39220       -4.20070
C          0.71590        8.41180       -3.34170
C          0.98630        8.39500       -1.94150
S          0.81300        9.93430       -1.09110
C          1.35860        9.21060        0.37040
C          1.59570        9.50220        1.71610
C          2.07460        8.31850        2.30520
N          2.12630        7.32000        1.37010
C          2.72800        6.02770        1.55850
C          4.24030        6.07750        1.34660
C          1.69100        7.85230        0.18290
C          1.46890        7.39780       -1.12260
C          2.34840        8.45680        3.68020
C          2.08200        9.72030        4.10440
S          1.49860       10.78580        2.86640
H         -1.76900       11.04070        5.30270
H         -1.67560        9.52460        0.38160
H         -1.44650        7.89060       -0.28230
H         -3.82390        8.59950       -0.47170
H         -3.66860        7.21250        0.61340
H         -3.90510        8.83150        1.28010
H         -2.11190       10.80640        2.72740
H         -0.78490        5.45440        0.29550
H          3.36080        1.39230       -0.23150
H          3.37440       -0.33060       -0.65420
H          3.37440        1.12680       -2.67930
H          1.92420        0.12460       -2.61610
H          1.83490        1.83280       -2.17490
H          1.43260        3.38590        0.17480
H          2.12510       -2.58330       -0.35720
H         -0.48570       -9.12220        5.09440
H         -2.01360       -8.76220        4.24540
H         -2.31380       -6.75350        5.72940
H         -0.83360       -7.17480        6.58490
H         -2.23350       -8.25810        6.66530
H          3.24360       -8.23750       -2.36160
H          2.67810       -6.69960       -1.67210
H          3.90720       -7.20110        0.44750
H          5.00470       -7.23240       -0.93670
H          4.43470       -8.74910       -0.22390
H         -0.50710      -13.52610        1.42940
H         -2.30320      -13.34580       -0.27980
H         -2.95300       -5.73890        2.56670
H         -3.72740       -6.96620        3.58520
H         -5.67480       -7.06100        2.05820
H         -5.42280       -5.41210        2.65290
H         -4.94560       -5.84130        1.00840
H          0.41750       -6.98990       -3.15140
H         -0.12200       -7.17090       -4.83740
H          1.65050       -8.80790       -4.41480
H          0.11780       -9.67700       -4.57710
H          0.82160       -9.42010       -2.97650
H         -2.00550       -2.17150       -0.49140
H         -0.84480       -2.77550       -3.26990
H          1.99390        2.87680       -6.43480
H          0.33510        2.98650       -7.08220
H          0.59780        0.72770       -8.10520
H          2.23540        0.61960       -7.46410
H          1.84880        1.83770       -8.69270
H         -2.31100        2.22530        0.32140
H         -3.40700        2.43620       -1.06870
H         -2.96050        4.45670        1.18240
H         -4.00210        4.71330       -0.22330
H         -4.39310        3.44410        0.95040
H          0.48520        7.63130       -5.25660
H          0.71620        9.40680       -3.76970
H          2.26860        5.33510        0.85110
H          2.50150        5.68510        2.57130
H          4.67110        5.09210        1.50260
H          4.47080        6.40670        0.33560
H          4.69550        6.77290        2.04790
H          1.68180        6.40440       -1.47340
H          2.70700        7.67460        4.32370
H          2.19010       10.11010        5.09680
