
  xtb     02282222233D
 energy: -467.973919075730 gnorm: 0.000251178717 xtb: 6.4.1 (unknown)
238263  0     0  0            999 V2000
    4.7337   -5.6511   10.9576 C   0  0  0  0  0  0  0  0  0  0  0  0
    4.7390   -4.6542   10.0495 C   0  0  0  0  0  0  0  0  0  0  0  0
    3.7254   -4.8052    9.0591 C   0  0  0  0  0  0  0  0  0  0  0  0
    3.4608   -3.9857    7.9523 C   0  0  0  0  0  0  0  0  0  0  0  0
    4.2777   -2.8190    7.6495 C   0  0  0  0  0  0  0  0  0  0  0  0
    3.5782   -1.2360    7.4848 S   0  0  0  0  0  0  0  0  0  0  0  0
    5.1089   -0.5115    7.1365 C   0  0  0  0  0  0  0  0  0  0  0  0
    5.2573    0.9600    6.9672 C   0  0  0  0  0  0  0  0  0  0  0  0
    5.6525    1.6077    8.2966 C   0  0  0  0  0  0  0  0  0  0  0  0
    6.0938   -1.4538    7.1477 C   0  0  0  0  0  0  0  0  0  0  0  0
    7.7431   -1.1043    6.8296 Cl  0  0  0  0  0  0  0  0  0  0  0  0
    5.6268   -2.7636    7.4373 C   0  0  0  0  0  0  0  0  0  0  0  0
    6.6570   -4.1362    7.4552 Cl  0  0  0  0  0  0  0  0  0  0  0  0
    2.3985   -4.3512    7.1377 C   0  0  0  0  0  0  0  0  0  0  0  0
    1.6072   -5.5029    7.3647 C   0  0  0  0  0  0  0  0  0  0  0  0
    1.8676   -6.3205    8.4769 C   0  0  0  0  0  0  0  0  0  0  0  0
    1.0601   -7.4989    8.7482 C   0  0  0  0  0  0  0  0  0  0  0  0
    0.8256   -8.7301    7.5421 S   0  0  0  0  0  0  0  0  0  0  0  0
   -0.1734   -9.6792    8.5889 C   0  0  0  0  0  0  0  0  0  0  0  0
   -0.8101  -10.9364    8.1094 C   0  0  0  0  0  0  0  0  0  0  0  0
   -2.0510  -10.6299    7.2671 C   0  0  0  0  0  0  0  0  0  0  0  0
   -0.3119   -9.0624    9.7959 C   0  0  0  0  0  0  0  0  0  0  0  0
    0.3899   -7.8302    9.8928 C   0  0  0  0  0  0  0  0  0  0  0  0
    0.3070   -6.8361   11.2857 Cl  0  0  0  0  0  0  0  0  0  0  0  0
   -1.2403   -9.6934   11.0937 Cl  0  0  0  0  0  0  0  0  0  0  0  0
    2.9296   -5.9526    9.2957 C   0  0  0  0  0  0  0  0  0  0  0  0
    3.4948   -6.8267   10.6904 S   0  0  0  0  0  0  0  0  0  0  0  0
    0.6060   -5.6578    6.3716 C   0  0  0  0  0  0  0  0  0  0  0  0
    0.6342   -4.6866    5.4178 C   0  0  0  0  0  0  0  0  0  0  0  0
    1.9008   -3.5067    5.7016 S   0  0  0  0  0  0  0  0  0  0  0  0
   -0.1893   -4.5439    4.2633 C   0  0  0  0  0  0  0  0  0  0  0  0
   -0.1762   -3.4930    3.3969 C   0  0  0  0  0  0  0  0  0  0  0  0
   -1.0652   -3.6398    2.3062 C   0  0  0  0  0  0  0  0  0  0  0  0
   -1.2505   -2.7637    1.2201 C   0  0  0  0  0  0  0  0  0  0  0  0
   -0.4467   -1.5569    1.1258 C   0  0  0  0  0  0  0  0  0  0  0  0
    1.2787   -1.6432    1.3514 S   0  0  0  0  0  0  0  0  0  0  0  0
    1.4578    0.0724    1.2726 C   0  0  0  0  0  0  0  0  0  0  0  0
    2.7684    0.7094    1.5608 C   0  0  0  0  0  0  0  0  0  0  0  0
    3.1680    0.5225    3.0263 C   0  0  0  0  0  0  0  0  0  0  0  0
    0.2553    0.6634    1.0285 C   0  0  0  0  0  0  0  0  0  0  0  0
    0.0461    2.3575    0.8378 Cl  0  0  0  0  0  0  0  0  0  0  0  0
   -0.8279   -0.2555    0.9459 C   0  0  0  0  0  0  0  0  0  0  0  0
   -2.4476    0.2689    0.7639 Cl  0  0  0  0  0  0  0  0  0  0  0  0
   -2.2034   -3.1288    0.2772 C   0  0  0  0  0  0  0  0  0  0  0  0
   -2.9600   -4.3253    0.3779 C   0  0  0  0  0  0  0  0  0  0  0  0
   -2.7637   -5.2057    1.4579 C   0  0  0  0  0  0  0  0  0  0  0  0
   -3.4997   -6.4550    1.5549 C   0  0  0  0  0  0  0  0  0  0  0  0
   -3.5252   -7.5810    0.2278 S   0  0  0  0  0  0  0  0  0  0  0  0
   -4.4940   -8.7167    1.1032 C   0  0  0  0  0  0  0  0  0  0  0  0
   -4.9625   -9.9785    0.4671 C   0  0  0  0  0  0  0  0  0  0  0  0
   -6.1711   -9.7166   -0.4349 C   0  0  0  0  0  0  0  0  0  0  0  0
   -4.7787   -8.2344    2.3452 C   0  0  0  0  0  0  0  0  0  0  0  0
   -4.2137   -6.9567    2.6075 C   0  0  0  0  0  0  0  0  0  0  0  0
   -4.5017   -6.1162    4.0726 Cl  0  0  0  0  0  0  0  0  0  0  0  0
   -5.7231   -9.0747    3.5056 Cl  0  0  0  0  0  0  0  0  0  0  0  0
   -1.8134   -4.8395    2.4014 C   0  0  0  0  0  0  0  0  0  0  0  0
   -1.3402   -5.7747    3.7941 S   0  0  0  0  0  0  0  0  0  0  0  0
   -3.8725   -4.4607   -0.6935 C   0  0  0  0  0  0  0  0  0  0  0  0
   -3.8056   -3.4365   -1.5939 C   0  0  0  0  0  0  0  0  0  0  0  0
   -2.6044   -2.2441   -1.1617 S   0  0  0  0  0  0  0  0  0  0  0  0
   -4.6100   -3.2790   -2.7601 C   0  0  0  0  0  0  0  0  0  0  0  0
   -5.7930   -4.4808   -3.2068 S   0  0  0  0  0  0  0  0  0  0  0  0
   -6.3333   -3.5412   -4.5949 C   0  0  0  0  0  0  0  0  0  0  0  0
   -5.5691   -2.3453   -4.7063 C   0  0  0  0  0  0  0  0  0  0  0  0
   -4.6257   -2.2418   -3.6471 C   0  0  0  0  0  0  0  0  0  0  0  0
   -3.8264   -1.1782   -3.4900 F   0  0  0  0  0  0  0  0  0  0  0  0
   -5.8138   -1.4248   -5.7360 C   0  0  0  0  0  0  0  0  0  0  0  0
   -5.1344   -0.2567   -5.9236 O   0  0  0  0  0  0  0  0  0  0  0  0
   -3.7933   -0.3690   -6.3955 C   0  0  0  0  0  0  0  0  0  0  0  0
   -3.7073   -1.0340   -7.7627 C   0  0  0  0  0  0  0  0  0  0  0  0
   -6.8794   -1.7220   -6.5706 C   0  0  0  0  0  0  0  0  0  0  0  0
   -7.6571   -2.8904   -6.4633 C   0  0  0  0  0  0  0  0  0  0  0  0
   -7.3722   -3.8528   -5.4672 C   0  0  0  0  0  0  0  0  0  0  0  0
   -8.1543   -4.9453   -5.4934 O   0  0  0  0  0  0  0  0  0  0  0  0
   -7.9692   -6.0201   -4.5916 C   0  0  0  0  0  0  0  0  0  0  0  0
   -8.9688   -7.0993   -4.9756 C   0  0  0  0  0  0  0  0  0  0  0  0
   -8.6662   -2.8976   -7.4647 C   0  0  0  0  0  0  0  0  0  0  0  0
   -9.5575   -3.8899   -7.5909 F   0  0  0  0  0  0  0  0  0  0  0  0
   -8.6818   -1.8078   -8.2990 C   0  0  0  0  0  0  0  0  0  0  0  0
   -7.3973   -0.6986   -7.8638 S   0  0  0  0  0  0  0  0  0  0  0  0
   -9.6334   -1.5780   -9.3518 C   0  0  0  0  0  0  0  0  0  0  0  0
   -9.6833   -0.5298  -10.1871 C   0  0  0  0  0  0  0  0  0  0  0  0
   -8.6853    0.5327  -10.1400 C   0  0  0  0  0  0  0  0  0  0  0  0
   -8.9405    1.9831   -9.2016 S   0  0  0  0  0  0  0  0  0  0  0  0
   -7.2303    2.3921   -9.2477 C   0  0  0  0  0  0  0  0  0  0  0  0
   -6.5292    1.4820  -10.0795 C   0  0  0  0  0  0  0  0  0  0  0  0
   -7.4057    0.4737  -10.5837 C   0  0  0  0  0  0  0  0  0  0  0  0
   -6.9700   -0.5474  -11.3386 F   0  0  0  0  0  0  0  0  0  0  0  0
   -5.1285    1.4778  -10.1402 C   0  0  0  0  0  0  0  0  0  0  0  0
   -4.4028    0.6033  -10.8975 O   0  0  0  0  0  0  0  0  0  0  0  0
   -4.4312    0.8261  -12.3014 C   0  0  0  0  0  0  0  0  0  0  0  0
   -3.6509    2.0759  -12.6916 C   0  0  0  0  0  0  0  0  0  0  0  0
   -4.4839    2.3035   -9.2339 C   0  0  0  0  0  0  0  0  0  0  0  0
   -5.1693    3.2042   -8.3935 C   0  0  0  0  0  0  0  0  0  0  0  0
   -6.5757    3.3285   -8.4503 C   0  0  0  0  0  0  0  0  0  0  0  0
   -7.0990    4.2762   -7.6526 O   0  0  0  0  0  0  0  0  0  0  0  0
   -8.4472    4.6900   -7.7612 C   0  0  0  0  0  0  0  0  0  0  0  0
   -8.7281    5.4312   -9.0630 C   0  0  0  0  0  0  0  0  0  0  0  0
   -4.2755    3.7892   -7.4565 C   0  0  0  0  0  0  0  0  0  0  0  0
   -4.6818    4.6532   -6.5187 F   0  0  0  0  0  0  0  0  0  0  0  0
   -2.9845    3.3276   -7.5184 C   0  0  0  0  0  0  0  0  0  0  0  0
   -2.7869    2.2325   -8.8742 S   0  0  0  0  0  0  0  0  0  0  0  0
   -1.9177    3.4587   -6.5806 C   0  0  0  0  0  0  0  0  0  0  0  0
   -1.8652    4.3063   -5.5328 C   0  0  0  0  0  0  0  0  0  0  0  0
   -0.8723    4.2032   -4.5126 C   0  0  0  0  0  0  0  0  0  0  0  0
   -0.5811    5.1074   -3.5309 C   0  0  0  0  0  0  0  0  0  0  0  0
    0.4250    4.6730   -2.6345 C   0  0  0  0  0  0  0  0  0  0  0  0
    0.9797    5.3703   -1.5454 C   0  0  0  0  0  0  0  0  0  0  0  0
    0.4229    6.6354   -1.1023 C   0  0  0  0  0  0  0  0  0  0  0  0
    1.4112    8.0459   -0.8687 S   0  0  0  0  0  0  0  0  0  0  0  0
    0.0607    9.0021   -0.3623 C   0  0  0  0  0  0  0  0  0  0  0  0
    0.2171   10.4462   -0.0363 C   0  0  0  0  0  0  0  0  0  0  0  0
    0.1540   11.3035   -1.3026 C   0  0  0  0  0  0  0  0  0  0  0  0
   -1.0813    8.2581   -0.3809 C   0  0  0  0  0  0  0  0  0  0  0  0
   -2.6241    8.8638    0.0631 Cl  0  0  0  0  0  0  0  0  0  0  0  0
   -0.8809    6.9144   -0.7957 C   0  0  0  0  0  0  0  0  0  0  0  0
   -2.1433    5.7512   -0.8218 Cl  0  0  0  0  0  0  0  0  0  0  0  0
    2.0631    4.7798   -0.9096 C   0  0  0  0  0  0  0  0  0  0  0  0
    2.5455    3.4934   -1.2531 C   0  0  0  0  0  0  0  0  0  0  0  0
    1.8760    2.7195   -2.2222 C   0  0  0  0  0  0  0  0  0  0  0  0
    2.1200    1.2924   -2.3443 C   0  0  0  0  0  0  0  0  0  0  0  0
    3.7170    0.6012   -2.3918 S   0  0  0  0  0  0  0  0  0  0  0  0
    3.1209   -1.0211   -2.3160 C   0  0  0  0  0  0  0  0  0  0  0  0
    4.0543   -2.1801   -2.3090 C   0  0  0  0  0  0  0  0  0  0  0  0
    4.6823   -2.4012   -3.6860 C   0  0  0  0  0  0  0  0  0  0  0  0
    1.7599   -1.0132   -2.2856 C   0  0  0  0  0  0  0  0  0  0  0  0
    1.1866    0.2881   -2.3032 C   0  0  0  0  0  0  0  0  0  0  0  0
   -0.5095    0.5113   -2.1843 Cl  0  0  0  0  0  0  0  0  0  0  0  0
    0.7936   -2.4289   -2.1898 Cl  0  0  0  0  0  0  0  0  0  0  0  0
    0.8801    3.3661   -2.9448 C   0  0  0  0  0  0  0  0  0  0  0  0
    0.0824    2.7401   -4.3532 S   0  0  0  0  0  0  0  0  0  0  0  0
    3.6434    3.1200   -0.4468 C   0  0  0  0  0  0  0  0  0  0  0  0
    3.9651    4.0368    0.5105 C   0  0  0  0  0  0  0  0  0  0  0  0
    2.9327    5.4454    0.4483 S   0  0  0  0  0  0  0  0  0  0  0  0
    4.9639    3.8208    1.5123 C   0  0  0  0  0  0  0  0  0  0  0  0
    6.0166    2.9603    1.4085 C   0  0  0  0  0  0  0  0  0  0  0  0
    6.7448    2.8082    2.6137 C   0  0  0  0  0  0  0  0  0  0  0  0
    7.8714    2.0032    2.8514 C   0  0  0  0  0  0  0  0  0  0  0  0
    8.4285    1.1623    1.8038 C   0  0  0  0  0  0  0  0  0  0  0  0
   10.1057    1.2699    1.3581 S   0  0  0  0  0  0  0  0  0  0  0  0
    9.9383    0.0662    0.1262 C   0  0  0  0  0  0  0  0  0  0  0  0
   11.0851   -0.3131   -0.7439 C   0  0  0  0  0  0  0  0  0  0  0  0
   11.2094    0.6406   -1.9348 C   0  0  0  0  0  0  0  0  0  0  0  0
    8.6518   -0.3805    0.0724 C   0  0  0  0  0  0  0  0  0  0  0  0
    8.0926   -1.5717   -1.0295 Cl  0  0  0  0  0  0  0  0  0  0  0  0
    7.7965    0.2329    1.0253 C   0  0  0  0  0  0  0  0  0  0  0  0
    6.1589   -0.2360    1.2137 Cl  0  0  0  0  0  0  0  0  0  0  0  0
    8.4215    2.0503    4.1265 C   0  0  0  0  0  0  0  0  0  0  0  0
    7.8871    2.8459    5.1685 C   0  0  0  0  0  0  0  0  0  0  0  0
    6.7726    3.6657    4.9236 C   0  0  0  0  0  0  0  0  0  0  0  0
    6.2201    4.5300    5.9525 C   0  0  0  0  0  0  0  0  0  0  0  0
    4.5216    4.5128    6.3287 S   0  0  0  0  0  0  0  0  0  0  0  0
    4.7009    5.7254    7.5494 C   0  0  0  0  0  0  0  0  0  0  0  0
    3.5225    6.2472    8.2940 C   0  0  0  0  0  0  0  0  0  0  0  0
    2.8137    7.3396    7.4894 C   0  0  0  0  0  0  0  0  0  0  0  0
    6.0012    6.1255    7.6338 C   0  0  0  0  0  0  0  0  0  0  0  0
    6.8666    5.4476    6.7332 C   0  0  0  0  0  0  0  0  0  0  0  0
    8.5358    5.8254    6.5994 Cl  0  0  0  0  0  0  0  0  0  0  0  0
    6.5651    7.3273    8.7220 Cl  0  0  0  0  0  0  0  0  0  0  0  0
    6.2165    3.6132    3.6518 C   0  0  0  0  0  0  0  0  0  0  0  0
    4.8399    4.5309    3.1056 S   0  0  0  0  0  0  0  0  0  0  0  0
    8.5865    2.6384    6.3938 C   0  0  0  0  0  0  0  0  0  0  0  0
    9.5992    1.7562    6.2755 C   0  0  0  0  0  0  0  0  0  0  0  0
    9.7766    1.1094    4.6820 S   0  0  0  0  0  0  0  0  0  0  0  0
    5.3878   -5.7802   11.7977 H   0  0  0  0  0  0  0  0  0  0  0  0
    5.4283   -3.8305   10.0690 H   0  0  0  0  0  0  0  0  0  0  0  0
    6.0316    1.1553    6.2226 H   0  0  0  0  0  0  0  0  0  0  0  0
    4.3183    1.3872    6.6135 H   0  0  0  0  0  0  0  0  0  0  0  0
    5.7629    2.6812    8.1746 H   0  0  0  0  0  0  0  0  0  0  0  0
    4.8894    1.4199    9.0478 H   0  0  0  0  0  0  0  0  0  0  0  0
    6.5957    1.1966    8.6474 H   0  0  0  0  0  0  0  0  0  0  0  0
   -1.0922  -11.5377    8.9753 H   0  0  0  0  0  0  0  0  0  0  0  0
   -0.0949  -11.5010    7.5083 H   0  0  0  0  0  0  0  0  0  0  0  0
   -1.7806  -10.0330    6.3991 H   0  0  0  0  0  0  0  0  0  0  0  0
   -2.7791  -10.0772    7.8555 H   0  0  0  0  0  0  0  0  0  0  0  0
   -2.5089  -11.5544    6.9261 H   0  0  0  0  0  0  0  0  0  0  0  0
   -0.1120   -6.4575    6.3588 H   0  0  0  0  0  0  0  0  0  0  0  0
    0.4535   -2.6378    3.5559 H   0  0  0  0  0  0  0  0  0  0  0  0
    2.6878    1.7725    1.3381 H   0  0  0  0  0  0  0  0  0  0  0  0
    3.5366    0.2725    0.9203 H   0  0  0  0  0  0  0  0  0  0  0  0
    2.4198    0.9620    3.6814 H   0  0  0  0  0  0  0  0  0  0  0  0
    3.2624   -0.5345    3.2649 H   0  0  0  0  0  0  0  0  0  0  0  0
    4.1221    1.0085    3.2140 H   0  0  0  0  0  0  0  0  0  0  0  0
   -4.1542  -10.4090   -0.1267 H   0  0  0  0  0  0  0  0  0  0  0  0
   -5.2358  -10.6851    1.2525 H   0  0  0  0  0  0  0  0  0  0  0  0
   -6.5061  -10.6450   -0.8894 H   0  0  0  0  0  0  0  0  0  0  0  0
   -5.9078   -9.0155   -1.2236 H   0  0  0  0  0  0  0  0  0  0  0  0
   -6.9896   -9.2970    0.1447 H   0  0  0  0  0  0  0  0  0  0  0  0
   -4.5662   -5.2750   -0.7982 H   0  0  0  0  0  0  0  0  0  0  0  0
   -3.4470    0.6649   -6.4390 H   0  0  0  0  0  0  0  0  0  0  0  0
   -3.1700   -0.9131   -5.6786 H   0  0  0  0  0  0  0  0  0  0  0  0
   -4.3511   -0.5296   -8.4781 H   0  0  0  0  0  0  0  0  0  0  0  0
   -2.6841   -0.9872   -8.1237 H   0  0  0  0  0  0  0  0  0  0  0  0
   -4.0102   -2.0781   -7.7002 H   0  0  0  0  0  0  0  0  0  0  0  0
   -6.9448   -6.4050   -4.6668 H   0  0  0  0  0  0  0  0  0  0  0  0
   -8.1470   -5.6855   -3.5622 H   0  0  0  0  0  0  0  0  0  0  0  0
   -9.9794   -6.7071   -4.9082 H   0  0  0  0  0  0  0  0  0  0  0  0
   -8.8666   -7.9497   -4.3082 H   0  0  0  0  0  0  0  0  0  0  0  0
   -8.7922   -7.4200   -5.9983 H   0  0  0  0  0  0  0  0  0  0  0  0
  -10.3859   -2.3511   -9.4378 H   0  0  0  0  0  0  0  0  0  0  0  0
  -10.4824   -0.4487  -10.9099 H   0  0  0  0  0  0  0  0  0  0  0  0
   -5.4637    0.8976  -12.6623 H   0  0  0  0  0  0  0  0  0  0  0  0
   -3.9707   -0.0674  -12.7267 H   0  0  0  0  0  0  0  0  0  0  0  0
   -4.1276    2.9657  -12.2836 H   0  0  0  0  0  0  0  0  0  0  0  0
   -3.6132    2.1627  -13.7738 H   0  0  0  0  0  0  0  0  0  0  0  0
   -2.6374    2.0168  -12.3025 H   0  0  0  0  0  0  0  0  0  0  0  0
   -8.5754    5.3641   -6.9102 H   0  0  0  0  0  0  0  0  0  0  0  0
   -9.1317    3.8438   -7.6407 H   0  0  0  0  0  0  0  0  0  0  0  0
   -8.0439    6.2699   -9.1671 H   0  0  0  0  0  0  0  0  0  0  0  0
   -9.7476    5.8047   -9.0533 H   0  0  0  0  0  0  0  0  0  0  0  0
   -8.6074    4.7723   -9.9192 H   0  0  0  0  0  0  0  0  0  0  0  0
   -1.1141    2.7434   -6.7089 H   0  0  0  0  0  0  0  0  0  0  0  0
   -2.6033    5.0842   -5.4031 H   0  0  0  0  0  0  0  0  0  0  0  0
   -1.0543    6.0704   -3.4694 H   0  0  0  0  0  0  0  0  0  0  0  0
   -0.5844   10.7398    0.6441 H   0  0  0  0  0  0  0  0  0  0  0  0
    1.1756   10.6029    0.4613 H   0  0  0  0  0  0  0  0  0  0  0  0
    0.2683   12.3538   -1.0487 H   0  0  0  0  0  0  0  0  0  0  0  0
    0.9487   11.0208   -1.9889 H   0  0  0  0  0  0  0  0  0  0  0  0
   -0.8020   11.1677   -1.8019 H   0  0  0  0  0  0  0  0  0  0  0  0
    4.8464   -2.0001   -1.5787 H   0  0  0  0  0  0  0  0  0  0  0  0
    3.4983   -3.0687   -2.0058 H   0  0  0  0  0  0  0  0  0  0  0  0
    5.2421   -1.5196   -3.9901 H   0  0  0  0  0  0  0  0  0  0  0  0
    3.9112   -2.5972   -4.4269 H   0  0  0  0  0  0  0  0  0  0  0  0
    5.3598   -3.2503   -3.6541 H   0  0  0  0  0  0  0  0  0  0  0  0
    4.1746    2.1953   -0.5549 H   0  0  0  0  0  0  0  0  0  0  0  0
    6.2763    2.4650    0.4923 H   0  0  0  0  0  0  0  0  0  0  0  0
   10.9297   -1.3313   -1.1058 H   0  0  0  0  0  0  0  0  0  0  0  0
   12.0063   -0.2861   -0.1595 H   0  0  0  0  0  0  0  0  0  0  0  0
   12.0485    0.3483   -2.5601 H   0  0  0  0  0  0  0  0  0  0  0  0
   11.3700    1.6584   -1.5876 H   0  0  0  0  0  0  0  0  0  0  0  0
   10.3027    0.6163   -2.5340 H   0  0  0  0  0  0  0  0  0  0  0  0
    2.8257    5.4303    8.4897 H   0  0  0  0  0  0  0  0  0  0  0  0
    3.8622    6.6553    9.2475 H   0  0  0  0  0  0  0  0  0  0  0  0
    1.9577    7.7149    8.0435 H   0  0  0  0  0  0  0  0  0  0  0  0
    3.4932    8.1657    7.2958 H   0  0  0  0  0  0  0  0  0  0  0  0
    2.4687    6.9428    6.5376 H   0  0  0  0  0  0  0  0  0  0  0  0
    8.3247    3.1210    7.3164 H   0  0  0  0  0  0  0  0  0  0  0  0
   10.2750    1.4246    7.0394 H   0  0  0  0  0  0  0  0  0  0  0  0
  1  2  2  0  0  0  0
  2  3  1  0  0  0  0
  3  4  2  0  0  0  0
  4  5  1  0  0  0  0
  5  6  1  0  0  0  0
  6  7  1  0  0  0  0
  7  8  1  0  0  0  0
  8  9  1  0  0  0  0
  7 10  2  0  0  0  0
 10 11  1  0  0  0  0
 10 12  1  0  0  0  0
 12 13  1  0  0  0  0
  4 14  1  0  0  0  0
 14 15  2  0  0  0  0
 15 16  1  0  0  0  0
 16 17  1  0  0  0  0
 17 18  1  0  0  0  0
 18 19  1  0  0  0  0
 19 20  1  0  0  0  0
 20 21  1  0  0  0  0
 19 22  2  0  0  0  0
 22 23  1  0  0  0  0
 23 24  1  0  0  0  0
 22 25  1  0  0  0  0
 16 26  2  0  0  0  0
 26 27  1  0  0  0  0
 15 28  1  0  0  0  0
 28 29  2  0  0  0  0
 29 30  1  0  0  0  0
 29 31  1  0  0  0  0
 31 32  2  0  0  0  0
 32 33  1  0  0  0  0
 33 34  2  0  0  0  0
 34 35  1  0  0  0  0
 35 36  1  0  0  0  0
 36 37  1  0  0  0  0
 37 38  1  0  0  0  0
 38 39  1  0  0  0  0
 37 40  2  0  0  0  0
 40 41  1  0  0  0  0
 40 42  1  0  0  0  0
 42 43  1  0  0  0  0
 34 44  1  0  0  0  0
 44 45  2  0  0  0  0
 45 46  1  0  0  0  0
 46 47  1  0  0  0  0
 47 48  1  0  0  0  0
 48 49  1  0  0  0  0
 49 50  1  0  0  0  0
 50 51  1  0  0  0  0
 49 52  2  0  0  0  0
 52 53  1  0  0  0  0
 53 54  1  0  0  0  0
 52 55  1  0  0  0  0
 46 56  2  0  0  0  0
 56 57  1  0  0  0  0
 45 58  1  0  0  0  0
 58 59  2  0  0  0  0
 59 60  1  0  0  0  0
 59 61  1  0  0  0  0
 61 62  1  0  0  0  0
 62 63  1  0  0  0  0
 63 64  2  0  0  0  0
 64 65  1  0  0  0  0
 65 66  1  0  0  0  0
 64 67  1  0  0  0  0
 67 68  1  0  0  0  0
 68 69  1  0  0  0  0
 69 70  1  0  0  0  0
 67 71  2  0  0  0  0
 71 72  1  0  0  0  0
 72 73  2  0  0  0  0
 73 74  1  0  0  0  0
 74 75  1  0  0  0  0
 75 76  1  0  0  0  0
 72 77  1  0  0  0  0
 77 78  1  0  0  0  0
 77 79  2  0  0  0  0
 79 80  1  0  0  0  0
 79 81  1  0  0  0  0
 81 82  2  0  0  0  0
 82 83  1  0  0  0  0
 83 84  1  0  0  0  0
 84 85  1  0  0  0  0
 85 86  2  0  0  0  0
 86 87  1  0  0  0  0
 87 88  1  0  0  0  0
 86 89  1  0  0  0  0
 89 90  1  0  0  0  0
 90 91  1  0  0  0  0
 91 92  1  0  0  0  0
 89 93  2  0  0  0  0
 93 94  1  0  0  0  0
 94 95  2  0  0  0  0
 95 96  1  0  0  0  0
 96 97  1  0  0  0  0
 97 98  1  0  0  0  0
 94 99  1  0  0  0  0
 99100  1  0  0  0  0
 99101  2  0  0  0  0
101102  1  0  0  0  0
101103  1  0  0  0  0
103104  2  0  0  0  0
104105  1  0  0  0  0
105106  2  0  0  0  0
106107  1  0  0  0  0
107108  2  0  0  0  0
108109  1  0  0  0  0
109110  1  0  0  0  0
110111  1  0  0  0  0
111112  1  0  0  0  0
112113  1  0  0  0  0
111114  2  0  0  0  0
114115  1  0  0  0  0
114116  1  0  0  0  0
116117  1  0  0  0  0
108118  1  0  0  0  0
118119  2  0  0  0  0
119120  1  0  0  0  0
120121  1  0  0  0  0
121122  1  0  0  0  0
122123  1  0  0  0  0
123124  1  0  0  0  0
124125  1  0  0  0  0
123126  2  0  0  0  0
126127  1  0  0  0  0
127128  1  0  0  0  0
126129  1  0  0  0  0
120130  2  0  0  0  0
130131  1  0  0  0  0
119132  1  0  0  0  0
132133  2  0  0  0  0
133134  1  0  0  0  0
133135  1  0  0  0  0
135136  2  0  0  0  0
136137  1  0  0  0  0
137138  2  0  0  0  0
138139  1  0  0  0  0
139140  1  0  0  0  0
140141  1  0  0  0  0
141142  1  0  0  0  0
142143  1  0  0  0  0
141144  2  0  0  0  0
144145  1  0  0  0  0
144146  1  0  0  0  0
146147  1  0  0  0  0
138148  1  0  0  0  0
148149  2  0  0  0  0
149150  1  0  0  0  0
150151  1  0  0  0  0
151152  1  0  0  0  0
152153  1  0  0  0  0
153154  1  0  0  0  0
154155  1  0  0  0  0
153156  2  0  0  0  0
156157  1  0  0  0  0
157158  1  0  0  0  0
156159  1  0  0  0  0
150160  2  0  0  0  0
160161  1  0  0  0  0
149162  1  0  0  0  0
162163  2  0  0  0  0
163164  1  0  0  0  0
 27  1  1  0  0  0  0
 57 31  1  0  0  0  0
 65 61  2  0  0  0  0
 80 71  1  0  0  0  0
 87 83  2  0  0  0  0
102 93  1  0  0  0  0
131105  1  0  0  0  0
161135  1  0  0  0  0
 26  3  1  0  0  0  0
 56 33  1  0  0  0  0
 73 63  1  0  0  0  0
 95 85  1  0  0  0  0
130107  1  0  0  0  0
160137  1  0  0  0  0
 12  5  2  0  0  0  0
 30 14  1  0  0  0  0
 42 35  2  0  0  0  0
 60 44  1  0  0  0  0
116109  2  0  0  0  0
134118  1  0  0  0  0
146139  2  0  0  0  0
164148  1  0  0  0  0
 23 17  2  0  0  0  0
 53 47  2  0  0  0  0
127121  2  0  0  0  0
157151  2  0  0  0  0
  1165  1  0  0  0  0
  2166  1  0  0  0  0
  8167  1  0  0  0  0
  8168  1  0  0  0  0
  9169  1  0  0  0  0
  9170  1  0  0  0  0
  9171  1  0  0  0  0
 20172  1  0  0  0  0
 20173  1  0  0  0  0
 21174  1  0  0  0  0
 21175  1  0  0  0  0
 21176  1  0  0  0  0
 28177  1  0  0  0  0
 32178  1  0  0  0  0
 38179  1  0  0  0  0
 38180  1  0  0  0  0
 39181  1  0  0  0  0
 39182  1  0  0  0  0
 39183  1  0  0  0  0
 50184  1  0  0  0  0
 50185  1  0  0  0  0
 51186  1  0  0  0  0
 51187  1  0  0  0  0
 51188  1  0  0  0  0
 58189  1  0  0  0  0
 69190  1  0  0  0  0
 69191  1  0  0  0  0
 70192  1  0  0  0  0
 70193  1  0  0  0  0
 70194  1  0  0  0  0
 75195  1  0  0  0  0
 75196  1  0  0  0  0
 76197  1  0  0  0  0
 76198  1  0  0  0  0
 76199  1  0  0  0  0
 81200  1  0  0  0  0
 82201  1  0  0  0  0
 91202  1  0  0  0  0
 91203  1  0  0  0  0
 92204  1  0  0  0  0
 92205  1  0  0  0  0
 92206  1  0  0  0  0
 97207  1  0  0  0  0
 97208  1  0  0  0  0
 98209  1  0  0  0  0
 98210  1  0  0  0  0
 98211  1  0  0  0  0
103212  1  0  0  0  0
104213  1  0  0  0  0
106214  1  0  0  0  0
112215  1  0  0  0  0
112216  1  0  0  0  0
113217  1  0  0  0  0
113218  1  0  0  0  0
113219  1  0  0  0  0
124220  1  0  0  0  0
124221  1  0  0  0  0
125222  1  0  0  0  0
125223  1  0  0  0  0
125224  1  0  0  0  0
132225  1  0  0  0  0
136226  1  0  0  0  0
142227  1  0  0  0  0
142228  1  0  0  0  0
143229  1  0  0  0  0
143230  1  0  0  0  0
143231  1  0  0  0  0
154232  1  0  0  0  0
154233  1  0  0  0  0
155234  1  0  0  0  0
155235  1  0  0  0  0
155236  1  0  0  0  0
162237  1  0  0  0  0
163238  1  0  0  0  0
M  END
