
  xtb     03032220343D
 energy: -380.671259507532 gnorm: 0.000237600958 xtb: 6.4.1 (unknown)
220241  0     0  0            999 V2000
    8.0309    4.3081    7.0838 C   0  0  0  0  0  0  0  0  0  0  0  0
    8.9265    3.9310    6.1488 C   0  0  0  0  0  0  0  0  0  0  0  0
    8.3218    3.2822    5.0312 C   0  0  0  0  0  0  0  0  0  0  0  0
    8.9434    2.7473    3.8931 C   0  0  0  0  0  0  0  0  0  0  0  0
   10.3866    2.8862    3.6647 C   0  0  0  0  0  0  0  0  0  0  0  0
   11.1705    1.7844    3.3373 C   0  0  0  0  0  0  0  0  0  0  0  0
   12.5265    1.9145    3.1085 C   0  0  0  0  0  0  0  0  0  0  0  0
   13.1457    3.1568    3.1833 C   0  0  0  0  0  0  0  0  0  0  0  0
   14.8631    3.4571    2.9265 S   0  0  0  0  0  0  0  0  0  0  0  0
   15.4344    1.9826    2.0133 C   0  0  0  0  0  0  0  0  0  0  0  0
   14.8505    1.9114    0.6153 C   0  0  0  0  0  0  0  0  0  0  0  0
   12.3479    4.2526    3.5178 C   0  0  0  0  0  0  0  0  0  0  0  0
   12.9141    5.4730    3.6055 F   0  0  0  0  0  0  0  0  0  0  0  0
   10.9977    4.1354    3.7576 C   0  0  0  0  0  0  0  0  0  0  0  0
    8.1205    2.1035    2.9799 C   0  0  0  0  0  0  0  0  0  0  0  0
    6.7181    1.9865    3.1450 C   0  0  0  0  0  0  0  0  0  0  0  0
    6.0947    2.5439    4.2720 C   0  0  0  0  0  0  0  0  0  0  0  0
    4.6396    2.4728    4.4595 C   0  0  0  0  0  0  0  0  0  0  0  0
    3.9747    1.2514    4.4571 C   0  0  0  0  0  0  0  0  0  0  0  0
    2.6047    1.1842    4.6154 C   0  0  0  0  0  0  0  0  0  0  0  0
    1.8476    2.3404    4.7607 C   0  0  0  0  0  0  0  0  0  0  0  0
    0.0948    2.3835    4.9401 S   0  0  0  0  0  0  0  0  0  0  0  0
   -0.4437    0.7574    4.3113 C   0  0  0  0  0  0  0  0  0  0  0  0
   -0.1843    0.5932    2.8266 C   0  0  0  0  0  0  0  0  0  0  0  0
    2.5308    3.5571    4.7905 C   0  0  0  0  0  0  0  0  0  0  0  0
    3.8984    3.6367    4.6499 C   0  0  0  0  0  0  0  0  0  0  0  0
    1.8319    4.6967    4.9554 F   0  0  0  0  0  0  0  0  0  0  0  0
    6.9184    3.1812    5.1876 C   0  0  0  0  0  0  0  0  0  0  0  0
    6.3958    3.9083    6.6850 S   0  0  0  0  0  0  0  0  0  0  0  0
    6.1086    1.3465    2.0342 C   0  0  0  0  0  0  0  0  0  0  0  0
    6.9862    0.9974    1.0540 C   0  0  0  0  0  0  0  0  0  0  0  0
    8.6352    1.4232    1.4581 S   0  0  0  0  0  0  0  0  0  0  0  0
    6.6495    0.4099   -0.2234 C   0  0  0  0  0  0  0  0  0  0  0  0
    7.5202    0.4570   -1.3169 C   0  0  0  0  0  0  0  0  0  0  0  0
    7.0758    0.0189   -2.5478 C   0  0  0  0  0  0  0  0  0  0  0  0
    5.7830   -0.4914   -2.6617 C   0  0  0  0  0  0  0  0  0  0  0  0
    5.0310   -0.5821   -1.4846 C   0  0  0  0  0  0  0  0  0  0  0  0
    5.4326   -0.1382   -0.3171 N   0  0  0  0  0  0  0  0  0  0  0  0
    5.1232   -0.8019   -3.9298 C   0  0  0  0  0  0  0  0  0  0  0  0
    5.3298   -0.0196   -5.0707 C   0  0  0  0  0  0  0  0  0  0  0  0
    4.4141   -0.0970   -6.0994 C   0  0  0  0  0  0  0  0  0  0  0  0
    3.3447   -0.9923   -6.0067 C   0  0  0  0  0  0  0  0  0  0  0  0
    3.3574   -1.8680   -4.9108 C   0  0  0  0  0  0  0  0  0  0  0  0
    4.1869   -1.7516   -3.9029 N   0  0  0  0  0  0  0  0  0  0  0  0
    2.1269   -0.8338   -6.7723 C   0  0  0  0  0  0  0  0  0  0  0  0
    1.1055   -1.7117   -6.9688 C   0  0  0  0  0  0  0  0  0  0  0  0
   -0.1438   -1.0831   -7.2351 C   0  0  0  0  0  0  0  0  0  0  0  0
   -1.4266   -1.6559   -7.1935 C   0  0  0  0  0  0  0  0  0  0  0  0
   -1.6559   -3.1079   -7.1390 C   0  0  0  0  0  0  0  0  0  0  0  0
   -1.1123   -3.9026   -6.1366 C   0  0  0  0  0  0  0  0  0  0  0  0
   -1.3675   -5.2604   -6.0835 C   0  0  0  0  0  0  0  0  0  0  0  0
   -2.1697   -5.8724   -7.0394 C   0  0  0  0  0  0  0  0  0  0  0  0
   -2.5926   -7.5799   -7.0987 S   0  0  0  0  0  0  0  0  0  0  0  0
   -1.6064   -8.3447   -5.7661 C   0  0  0  0  0  0  0  0  0  0  0  0
   -0.1456   -8.5053   -6.1437 C   0  0  0  0  0  0  0  0  0  0  0  0
   -2.7177   -5.0577   -8.0335 C   0  0  0  0  0  0  0  0  0  0  0  0
   -3.5058   -5.6162   -8.9722 F   0  0  0  0  0  0  0  0  0  0  0  0
   -2.4827   -3.7032   -8.0892 C   0  0  0  0  0  0  0  0  0  0  0  0
   -2.4915   -0.7812   -7.0422 C   0  0  0  0  0  0  0  0  0  0  0  0
   -2.3439    0.6281   -7.0105 C   0  0  0  0  0  0  0  0  0  0  0  0
   -1.0808    1.2034   -7.1930 C   0  0  0  0  0  0  0  0  0  0  0  0
   -0.8187    2.6428   -7.0176 C   0  0  0  0  0  0  0  0  0  0  0  0
   -1.0397    3.2534   -5.7838 C   0  0  0  0  0  0  0  0  0  0  0  0
   -0.7150    4.5789   -5.5910 C   0  0  0  0  0  0  0  0  0  0  0  0
   -0.1555    5.3437   -6.6147 C   0  0  0  0  0  0  0  0  0  0  0  0
    0.2741    7.0125   -6.2210 S   0  0  0  0  0  0  0  0  0  0  0  0
   -0.1010    7.9566   -7.7452 C   0  0  0  0  0  0  0  0  0  0  0  0
   -1.5523    7.8163   -8.1580 C   0  0  0  0  0  0  0  0  0  0  0  0
    0.0813    4.7115   -7.8313 C   0  0  0  0  0  0  0  0  0  0  0  0
   -0.2464    3.3860   -8.0406 C   0  0  0  0  0  0  0  0  0  0  0  0
    0.6584    5.3721   -8.8601 F   0  0  0  0  0  0  0  0  0  0  0  0
   -0.0132    0.3266   -7.2800 C   0  0  0  0  0  0  0  0  0  0  0  0
    1.6444    0.8269   -7.1025 S   0  0  0  0  0  0  0  0  0  0  0  0
   -3.4759    1.2682   -6.4487 C   0  0  0  0  0  0  0  0  0  0  0  0
   -4.4031    0.3984   -5.9523 C   0  0  0  0  0  0  0  0  0  0  0  0
   -4.0729   -1.2613   -6.4576 S   0  0  0  0  0  0  0  0  0  0  0  0
   -5.1071    0.6236   -4.7195 C   0  0  0  0  0  0  0  0  0  0  0  0
   -6.0256   -0.1067   -4.0302 C   0  0  0  0  0  0  0  0  0  0  0  0
   -5.9510    0.0723   -2.6151 C   0  0  0  0  0  0  0  0  0  0  0  0
   -6.5898   -0.6526   -1.5942 C   0  0  0  0  0  0  0  0  0  0  0  0
   -7.6835   -1.5993   -1.8535 C   0  0  0  0  0  0  0  0  0  0  0  0
   -8.8800   -1.4894   -1.1523 C   0  0  0  0  0  0  0  0  0  0  0  0
   -9.9191   -2.3747   -1.3646 C   0  0  0  0  0  0  0  0  0  0  0  0
   -9.7955   -3.4075   -2.2866 C   0  0  0  0  0  0  0  0  0  0  0  0
  -11.0220   -4.6179   -2.6473 S   0  0  0  0  0  0  0  0  0  0  0  0
  -12.5408   -3.9668   -1.8708 C   0  0  0  0  0  0  0  0  0  0  0  0
  -13.0953   -2.7625   -2.6081 C   0  0  0  0  0  0  0  0  0  0  0  0
   -8.5800   -3.5187   -2.9656 C   0  0  0  0  0  0  0  0  0  0  0  0
   -8.4141   -4.5248   -3.8466 F   0  0  0  0  0  0  0  0  0  0  0  0
   -7.5379   -2.6417   -2.7660 C   0  0  0  0  0  0  0  0  0  0  0  0
   -6.0815   -0.5063   -0.3085 C   0  0  0  0  0  0  0  0  0  0  0  0
   -4.9409    0.2780   -0.0050 C   0  0  0  0  0  0  0  0  0  0  0  0
   -4.3617    1.0737   -0.9992 C   0  0  0  0  0  0  0  0  0  0  0  0
   -3.0584    1.7438   -0.8815 C   0  0  0  0  0  0  0  0  0  0  0  0
   -1.9378    1.0033   -0.5122 C   0  0  0  0  0  0  0  0  0  0  0  0
   -0.6650    1.5150   -0.6698 C   0  0  0  0  0  0  0  0  0  0  0  0
   -0.4656    2.7826   -1.2054 C   0  0  0  0  0  0  0  0  0  0  0  0
    1.1230    3.4787   -1.5384 S   0  0  0  0  0  0  0  0  0  0  0  0
    2.1322    2.0138   -1.9628 C   0  0  0  0  0  0  0  0  0  0  0  0
    1.6291    1.3130   -3.2102 C   0  0  0  0  0  0  0  0  0  0  0  0
   -1.5986    3.5426   -1.4956 C   0  0  0  0  0  0  0  0  0  0  0  0
   -2.8750    3.0427   -1.3495 C   0  0  0  0  0  0  0  0  0  0  0  0
   -1.4513    4.7882   -1.9834 F   0  0  0  0  0  0  0  0  0  0  0  0
   -4.9250    0.9837   -2.2620 C   0  0  0  0  0  0  0  0  0  0  0  0
   -4.2161    1.7229   -3.6622 S   0  0  0  0  0  0  0  0  0  0  0  0
   -4.4590    0.0384    1.3042 C   0  0  0  0  0  0  0  0  0  0  0  0
   -5.1833   -0.8884    1.9894 C   0  0  0  0  0  0  0  0  0  0  0  0
   -6.5687   -1.4593    1.0751 S   0  0  0  0  0  0  0  0  0  0  0  0
   -4.8021   -1.4954    3.2270 C   0  0  0  0  0  0  0  0  0  0  0  0
   -5.5355   -2.1762    4.1463 C   0  0  0  0  0  0  0  0  0  0  0  0
   -4.7524   -2.7483    5.1877 C   0  0  0  0  0  0  0  0  0  0  0  0
   -5.1865   -3.4836    6.3009 C   0  0  0  0  0  0  0  0  0  0  0  0
   -6.6017   -3.8236    6.4892 C   0  0  0  0  0  0  0  0  0  0  0  0
   -7.2542   -3.5800    7.6961 C   0  0  0  0  0  0  0  0  0  0  0  0
   -8.5855   -3.9012    7.8497 C   0  0  0  0  0  0  0  0  0  0  0  0
   -9.3159   -4.4954    6.8210 C   0  0  0  0  0  0  0  0  0  0  0  0
  -11.0003   -4.9010    7.1691 S   0  0  0  0  0  0  0  0  0  0  0  0
  -11.8835   -4.6392    5.5865 C   0  0  0  0  0  0  0  0  0  0  0  0
  -11.7255   -3.2229    5.0710 C   0  0  0  0  0  0  0  0  0  0  0  0
   -8.6399   -4.7676    5.6353 C   0  0  0  0  0  0  0  0  0  0  0  0
   -9.2592   -5.3877    4.6056 F   0  0  0  0  0  0  0  0  0  0  0  0
   -7.3152   -4.4249    5.4571 C   0  0  0  0  0  0  0  0  0  0  0  0
   -4.2065   -3.9055    7.1902 C   0  0  0  0  0  0  0  0  0  0  0  0
   -2.8219   -3.6833    6.9883 C   0  0  0  0  0  0  0  0  0  0  0  0
   -2.3840   -2.9659    5.8659 C   0  0  0  0  0  0  0  0  0  0  0  0
   -0.9604   -2.7858    5.5513 C   0  0  0  0  0  0  0  0  0  0  0  0
   -0.0349   -2.3047    6.4769 C   0  0  0  0  0  0  0  0  0  0  0  0
    1.2960   -2.1791    6.1380 C   0  0  0  0  0  0  0  0  0  0  0  0
    1.7725   -2.5293    4.8704 C   0  0  0  0  0  0  0  0  0  0  0  0
    3.5176   -2.4006    4.6326 S   0  0  0  0  0  0  0  0  0  0  0  0
    3.7831   -2.2550    2.8184 C   0  0  0  0  0  0  0  0  0  0  0  0
    5.2625   -2.0520    2.5566 C   0  0  0  0  0  0  0  0  0  0  0  0
    0.8335   -2.9985    3.9568 C   0  0  0  0  0  0  0  0  0  0  0  0
   -0.5016   -3.1216    4.2817 C   0  0  0  0  0  0  0  0  0  0  0  0
    1.1891   -3.3714    2.7057 F   0  0  0  0  0  0  0  0  0  0  0  0
   -3.3708   -2.4953    5.0109 C   0  0  0  0  0  0  0  0  0  0  0  0
   -3.0858   -1.5226    3.5950 S   0  0  0  0  0  0  0  0  0  0  0  0
   -2.0367   -4.3197    7.9954 C   0  0  0  0  0  0  0  0  0  0  0  0
   -2.7838   -4.9660    8.9127 C   0  0  0  0  0  0  0  0  0  0  0  0
   -4.4860   -4.8608    8.6233 S   0  0  0  0  0  0  0  0  0  0  0  0
    8.2222    4.8101    8.0122 H   0  0  0  0  0  0  0  0  0  0  0  0
    9.9862    4.0842    6.2424 H   0  0  0  0  0  0  0  0  0  0  0  0
   10.7190    0.8057    3.2819 H   0  0  0  0  0  0  0  0  0  0  0  0
   13.1012    1.0321    2.8787 H   0  0  0  0  0  0  0  0  0  0  0  0
   16.5161    2.1117    1.9766 H   0  0  0  0  0  0  0  0  0  0  0  0
   15.2124    1.0946    2.6039 H   0  0  0  0  0  0  0  0  0  0  0  0
   13.7658    1.8320    0.6484 H   0  0  0  0  0  0  0  0  0  0  0  0
   15.1119    2.8059    0.0549 H   0  0  0  0  0  0  0  0  0  0  0  0
   15.2474    1.0437    0.0919 H   0  0  0  0  0  0  0  0  0  0  0  0
   10.4248    5.0203    3.9868 H   0  0  0  0  0  0  0  0  0  0  0  0
    4.5391    0.3370    4.3631 H   0  0  0  0  0  0  0  0  0  0  0  0
    2.1280    0.2182    4.6392 H   0  0  0  0  0  0  0  0  0  0  0  0
   -1.5133    0.7469    4.5187 H   0  0  0  0  0  0  0  0  0  0  0  0
    0.0265   -0.0256    4.9045 H   0  0  0  0  0  0  0  0  0  0  0  0
   -0.5611   -0.3727    2.4952 H   0  0  0  0  0  0  0  0  0  0  0  0
   -0.6873    1.3780    2.2659 H   0  0  0  0  0  0  0  0  0  0  0  0
    0.8805    0.6478    2.6091 H   0  0  0  0  0  0  0  0  0  0  0  0
    4.3727    4.6052    4.6641 H   0  0  0  0  0  0  0  0  0  0  0  0
    5.0514    1.1822    1.9406 H   0  0  0  0  0  0  0  0  0  0  0  0
    8.5140    0.8602   -1.1945 H   0  0  0  0  0  0  0  0  0  0  0  0
    7.7250    0.0671   -3.4101 H   0  0  0  0  0  0  0  0  0  0  0  0
    4.0406   -1.0165   -1.5165 H   0  0  0  0  0  0  0  0  0  0  0  0
    6.1374    0.6946   -5.1081 H   0  0  0  0  0  0  0  0  0  0  0  0
    4.4842    0.5667   -6.9492 H   0  0  0  0  0  0  0  0  0  0  0  0
    2.6077   -2.6423   -4.8136 H   0  0  0  0  0  0  0  0  0  0  0  0
    1.2163   -2.7760   -6.8667 H   0  0  0  0  0  0  0  0  0  0  0  0
   -0.5078   -3.4495   -5.3651 H   0  0  0  0  0  0  0  0  0  0  0  0
   -0.9402   -5.8351   -5.2780 H   0  0  0  0  0  0  0  0  0  0  0  0
   -2.0772   -9.3180   -5.6279 H   0  0  0  0  0  0  0  0  0  0  0  0
   -1.7437   -7.7627   -4.8559 H   0  0  0  0  0  0  0  0  0  0  0  0
   -0.0558   -9.1211   -7.0353 H   0  0  0  0  0  0  0  0  0  0  0  0
    0.3167   -7.5418   -6.3469 H   0  0  0  0  0  0  0  0  0  0  0  0
    0.3960   -8.9873   -5.3318 H   0  0  0  0  0  0  0  0  0  0  0  0
   -2.9336   -3.1204   -8.8772 H   0  0  0  0  0  0  0  0  0  0  0  0
   -1.4539    2.6794   -4.9677 H   0  0  0  0  0  0  0  0  0  0  0  0
   -0.8794    5.0476   -4.6333 H   0  0  0  0  0  0  0  0  0  0  0  0
    0.5803    7.6477   -8.5347 H   0  0  0  0  0  0  0  0  0  0  0  0
    0.1283    8.9836   -7.4607 H   0  0  0  0  0  0  0  0  0  0  0  0
   -2.2104    8.1017   -7.3400 H   0  0  0  0  0  0  0  0  0  0  0  0
   -1.7545    8.4599   -9.0118 H   0  0  0  0  0  0  0  0  0  0  0  0
   -1.7780    6.7899   -8.4412 H   0  0  0  0  0  0  0  0  0  0  0  0
   -0.0403    2.9429   -9.0030 H   0  0  0  0  0  0  0  0  0  0  0  0
   -3.5207    2.3284   -6.2723 H   0  0  0  0  0  0  0  0  0  0  0  0
   -6.6821   -0.8130   -4.5052 H   0  0  0  0  0  0  0  0  0  0  0  0
   -9.0059   -0.6901   -0.4374 H   0  0  0  0  0  0  0  0  0  0  0  0
  -10.8262   -2.2549   -0.7954 H   0  0  0  0  0  0  0  0  0  0  0  0
  -13.2333   -4.8066   -1.9271 H   0  0  0  0  0  0  0  0  0  0  0  0
  -12.3353   -3.7584   -0.8216 H   0  0  0  0  0  0  0  0  0  0  0  0
  -13.3063   -3.0222   -3.6427 H   0  0  0  0  0  0  0  0  0  0  0  0
  -14.0192   -2.4325   -2.1367 H   0  0  0  0  0  0  0  0  0  0  0  0
  -12.3867   -1.9370   -2.6007 H   0  0  0  0  0  0  0  0  0  0  0  0
   -6.6129   -2.7959   -3.2991 H   0  0  0  0  0  0  0  0  0  0  0  0
   -2.0613   -0.0047   -0.1460 H   0  0  0  0  0  0  0  0  0  0  0  0
    0.1823    0.9066   -0.3961 H   0  0  0  0  0  0  0  0  0  0  0  0
    2.1763    1.3459   -1.1036 H   0  0  0  0  0  0  0  0  0  0  0  0
    3.1265    2.4297   -2.1246 H   0  0  0  0  0  0  0  0  0  0  0  0
    0.6231    0.9248   -3.0596 H   0  0  0  0  0  0  0  0  0  0  0  0
    1.6091    2.0023   -4.0519 H   0  0  0  0  0  0  0  0  0  0  0  0
    2.2872    0.4812   -3.4565 H   0  0  0  0  0  0  0  0  0  0  0  0
   -3.7155    3.6629   -1.6192 H   0  0  0  0  0  0  0  0  0  0  0  0
   -3.5904    0.5217    1.7146 H   0  0  0  0  0  0  0  0  0  0  0  0
   -6.6064   -2.2536    4.0916 H   0  0  0  0  0  0  0  0  0  0  0  0
   -6.7213   -3.1099    8.5078 H   0  0  0  0  0  0  0  0  0  0  0  0
   -9.0917   -3.6961    8.7799 H   0  0  0  0  0  0  0  0  0  0  0  0
  -11.5457   -5.3778    4.8631 H   0  0  0  0  0  0  0  0  0  0  0  0
  -12.9211   -4.8476    5.8481 H   0  0  0  0  0  0  0  0  0  0  0  0
  -10.6910   -3.0197    4.8013 H   0  0  0  0  0  0  0  0  0  0  0  0
  -12.0331   -2.5043    5.8278 H   0  0  0  0  0  0  0  0  0  0  0  0
  -12.3434   -3.0852    4.1859 H   0  0  0  0  0  0  0  0  0  0  0  0
   -6.8393   -4.6700    4.5199 H   0  0  0  0  0  0  0  0  0  0  0  0
   -0.3656   -2.0041    7.4592 H   0  0  0  0  0  0  0  0  0  0  0  0
    2.0064   -1.8036    6.8588 H   0  0  0  0  0  0  0  0  0  0  0  0
    3.4337   -3.1652    2.3381 H   0  0  0  0  0  0  0  0  0  0  0  0
    3.1996   -1.4023    2.4730 H   0  0  0  0  0  0  0  0  0  0  0  0
    5.4107   -1.8183    1.5045 H   0  0  0  0  0  0  0  0  0  0  0  0
    5.8226   -2.9495    2.8085 H   0  0  0  0  0  0  0  0  0  0  0  0
    5.6566   -1.2265    3.1453 H   0  0  0  0  0  0  0  0  0  0  0  0
   -1.1706   -3.5208    3.5357 H   0  0  0  0  0  0  0  0  0  0  0  0
   -0.9624   -4.2976    8.0094 H   0  0  0  0  0  0  0  0  0  0  0  0
   -2.4446   -5.5165    9.7684 H   0  0  0  0  0  0  0  0  0  0  0  0
  1  2  2  0  0  0  0
  2  3  1  0  0  0  0
  3  4  2  0  0  0  0
  4  5  1  0  0  0  0
  5  6  2  0  0  0  0
  6  7  1  0  0  0  0
  7  8  2  0  0  0  0
  8  9  1  0  0  0  0
  9 10  1  0  0  0  0
 10 11  1  0  0  0  0
  8 12  1  0  0  0  0
 12 13  1  0  0  0  0
 12 14  2  0  0  0  0
  4 15  1  0  0  0  0
 15 16  2  0  0  0  0
 16 17  1  0  0  0  0
 17 18  1  0  0  0  0
 18 19  2  0  0  0  0
 19 20  1  0  0  0  0
 20 21  2  0  0  0  0
 21 22  1  0  0  0  0
 22 23  1  0  0  0  0
 23 24  1  0  0  0  0
 21 25  1  0  0  0  0
 25 26  2  0  0  0  0
 25 27  1  0  0  0  0
 17 28  2  0  0  0  0
 28 29  1  0  0  0  0
 16 30  1  0  0  0  0
 30 31  2  0  0  0  0
 31 32  1  0  0  0  0
 31 33  1  0  0  0  0
 33 34  2  0  0  0  0
 34 35  1  0  0  0  0
 35 36  2  0  0  0  0
 36 37  1  0  0  0  0
 37 38  2  0  0  0  0
 36 39  1  0  0  0  0
 39 40  2  0  0  0  0
 40 41  1  0  0  0  0
 41 42  2  0  0  0  0
 42 43  1  0  0  0  0
 43 44  2  0  0  0  0
 42 45  1  0  0  0  0
 45 46  2  0  0  0  0
 46 47  1  0  0  0  0
 47 48  2  0  0  0  0
 48 49  1  0  0  0  0
 49 50  2  0  0  0  0
 50 51  1  0  0  0  0
 51 52  2  0  0  0  0
 52 53  1  0  0  0  0
 53 54  1  0  0  0  0
 54 55  1  0  0  0  0
 52 56  1  0  0  0  0
 56 57  1  0  0  0  0
 56 58  2  0  0  0  0
 48 59  1  0  0  0  0
 59 60  2  0  0  0  0
 60 61  1  0  0  0  0
 61 62  1  0  0  0  0
 62 63  2  0  0  0  0
 63 64  1  0  0  0  0
 64 65  2  0  0  0  0
 65 66  1  0  0  0  0
 66 67  1  0  0  0  0
 67 68  1  0  0  0  0
 65 69  1  0  0  0  0
 69 70  2  0  0  0  0
 69 71  1  0  0  0  0
 61 72  2  0  0  0  0
 72 73  1  0  0  0  0
 60 74  1  0  0  0  0
 74 75  2  0  0  0  0
 75 76  1  0  0  0  0
 75 77  1  0  0  0  0
 77 78  2  0  0  0  0
 78 79  1  0  0  0  0
 79 80  2  0  0  0  0
 80 81  1  0  0  0  0
 81 82  2  0  0  0  0
 82 83  1  0  0  0  0
 83 84  2  0  0  0  0
 84 85  1  0  0  0  0
 85 86  1  0  0  0  0
 86 87  1  0  0  0  0
 84 88  1  0  0  0  0
 88 89  1  0  0  0  0
 88 90  2  0  0  0  0
 80 91  1  0  0  0  0
 91 92  2  0  0  0  0
 92 93  1  0  0  0  0
 93 94  1  0  0  0  0
 94 95  2  0  0  0  0
 95 96  1  0  0  0  0
 96 97  2  0  0  0  0
 97 98  1  0  0  0  0
 98 99  1  0  0  0  0
 99100  1  0  0  0  0
 97101  1  0  0  0  0
101102  2  0  0  0  0
101103  1  0  0  0  0
 93104  2  0  0  0  0
104105  1  0  0  0  0
 92106  1  0  0  0  0
106107  2  0  0  0  0
107108  1  0  0  0  0
107109  1  0  0  0  0
109110  2  0  0  0  0
110111  1  0  0  0  0
111112  2  0  0  0  0
112113  1  0  0  0  0
113114  2  0  0  0  0
114115  1  0  0  0  0
115116  2  0  0  0  0
116117  1  0  0  0  0
117118  1  0  0  0  0
118119  1  0  0  0  0
116120  1  0  0  0  0
120121  1  0  0  0  0
120122  2  0  0  0  0
112123  1  0  0  0  0
123124  2  0  0  0  0
124125  1  0  0  0  0
125126  1  0  0  0  0
126127  2  0  0  0  0
127128  1  0  0  0  0
128129  2  0  0  0  0
129130  1  0  0  0  0
130131  1  0  0  0  0
131132  1  0  0  0  0
129133  1  0  0  0  0
133134  2  0  0  0  0
133135  1  0  0  0  0
125136  2  0  0  0  0
136137  1  0  0  0  0
124138  1  0  0  0  0
138139  2  0  0  0  0
139140  1  0  0  0  0
 29  1  1  0  0  0  0
 38 33  1  0  0  0  0
 44 39  1  0  0  0  0
 73 45  1  0  0  0  0
105 77  1  0  0  0  0
137109  1  0  0  0  0
 28  3  1  0  0  0  0
 72 47  1  0  0  0  0
104 79  1  0  0  0  0
136111  1  0  0  0  0
 14  5  1  0  0  0  0
 32 15  1  0  0  0  0
 58 49  1  0  0  0  0
 76 59  1  0  0  0  0
 90 81  1  0  0  0  0
108 91  1  0  0  0  0
122113  1  0  0  0  0
140123  1  0  0  0  0
 26 18  1  0  0  0  0
 70 62  1  0  0  0  0
102 94  1  0  0  0  0
134126  1  0  0  0  0
  1141  1  0  0  0  0
  2142  1  0  0  0  0
  6143  1  0  0  0  0
  7144  1  0  0  0  0
 10145  1  0  0  0  0
 10146  1  0  0  0  0
 11147  1  0  0  0  0
 11148  1  0  0  0  0
 11149  1  0  0  0  0
 14150  1  0  0  0  0
 19151  1  0  0  0  0
 20152  1  0  0  0  0
 23153  1  0  0  0  0
 23154  1  0  0  0  0
 24155  1  0  0  0  0
 24156  1  0  0  0  0
 24157  1  0  0  0  0
 26158  1  0  0  0  0
 30159  1  0  0  0  0
 34160  1  0  0  0  0
 35161  1  0  0  0  0
 37162  1  0  0  0  0
 40163  1  0  0  0  0
 41164  1  0  0  0  0
 43165  1  0  0  0  0
 46166  1  0  0  0  0
 50167  1  0  0  0  0
 51168  1  0  0  0  0
 54169  1  0  0  0  0
 54170  1  0  0  0  0
 55171  1  0  0  0  0
 55172  1  0  0  0  0
 55173  1  0  0  0  0
 58174  1  0  0  0  0
 63175  1  0  0  0  0
 64176  1  0  0  0  0
 67177  1  0  0  0  0
 67178  1  0  0  0  0
 68179  1  0  0  0  0
 68180  1  0  0  0  0
 68181  1  0  0  0  0
 70182  1  0  0  0  0
 74183  1  0  0  0  0
 78184  1  0  0  0  0
 82185  1  0  0  0  0
 83186  1  0  0  0  0
 86187  1  0  0  0  0
 86188  1  0  0  0  0
 87189  1  0  0  0  0
 87190  1  0  0  0  0
 87191  1  0  0  0  0
 90192  1  0  0  0  0
 95193  1  0  0  0  0
 96194  1  0  0  0  0
 99195  1  0  0  0  0
 99196  1  0  0  0  0
100197  1  0  0  0  0
100198  1  0  0  0  0
100199  1  0  0  0  0
102200  1  0  0  0  0
106201  1  0  0  0  0
110202  1  0  0  0  0
114203  1  0  0  0  0
115204  1  0  0  0  0
118205  1  0  0  0  0
118206  1  0  0  0  0
119207  1  0  0  0  0
119208  1  0  0  0  0
119209  1  0  0  0  0
122210  1  0  0  0  0
127211  1  0  0  0  0
128212  1  0  0  0  0
131213  1  0  0  0  0
131214  1  0  0  0  0
132215  1  0  0  0  0
132216  1  0  0  0  0
132217  1  0  0  0  0
134218  1  0  0  0  0
138219  1  0  0  0  0
139220  1  0  0  0  0
M  END
