
  xtb     02282222253D
 energy: -308.253872767436 gnorm: 0.000228407410 xtb: 6.4.1 (unknown)
184203  0     0  0            999 V2000
   10.0312   -8.4518   13.0277 C   0  0  0  0  0  0  0  0  0  0  0  0
    9.3713   -7.2846   13.1735 C   0  0  0  0  0  0  0  0  0  0  0  0
    8.3584   -7.0959   12.1888 C   0  0  0  0  0  0  0  0  0  0  0  0
    7.5240   -5.9824   12.0000 C   0  0  0  0  0  0  0  0  0  0  0  0
    7.5737   -4.8338   12.8920 C   0  0  0  0  0  0  0  0  0  0  0  0
    7.3395   -5.0086   14.6062 S   0  0  0  0  0  0  0  0  0  0  0  0
    7.5107   -3.3089   14.8839 C   0  0  0  0  0  0  0  0  0  0  0  0
    7.3607   -2.7269   16.2461 C   0  0  0  0  0  0  0  0  0  0  0  0
    5.8967   -2.3889   16.5382 C   0  0  0  0  0  0  0  0  0  0  0  0
    7.7282   -2.6582   13.7068 C   0  0  0  0  0  0  0  0  0  0  0  0
    7.9502   -0.9613   13.5809 Cl  0  0  0  0  0  0  0  0  0  0  0  0
    7.7682   -3.5183   12.5764 C   0  0  0  0  0  0  0  0  0  0  0  0
    8.1114   -2.9459   10.9980 Cl  0  0  0  0  0  0  0  0  0  0  0  0
    6.6505   -6.0231   10.9223 C   0  0  0  0  0  0  0  0  0  0  0  0
    6.5796   -7.1182   10.0257 C   0  0  0  0  0  0  0  0  0  0  0  0
    7.4142   -8.2316   10.2151 C   0  0  0  0  0  0  0  0  0  0  0  0
    7.3738   -9.3690    9.3109 C   0  0  0  0  0  0  0  0  0  0  0  0
    7.5921   -9.1653    7.5972 S   0  0  0  0  0  0  0  0  0  0  0  0
    7.4542  -10.8644    7.2969 C   0  0  0  0  0  0  0  0  0  0  0  0
    7.5035  -11.4076    5.9117 C   0  0  0  0  0  0  0  0  0  0  0  0
    6.1546  -11.2355    5.2093 C   0  0  0  0  0  0  0  0  0  0  0  0
    7.2404  -11.5340    8.4640 C   0  0  0  0  0  0  0  0  0  0  0  0
    7.2008  -10.6918    9.6079 C   0  0  0  0  0  0  0  0  0  0  0  0
    6.8785  -11.2928   11.1800 Cl  0  0  0  0  0  0  0  0  0  0  0  0
    7.0403  -13.2350    8.5695 Cl  0  0  0  0  0  0  0  0  0  0  0  0
    8.2889   -8.1903   11.2955 C   0  0  0  0  0  0  0  0  0  0  0  0
    9.4722   -9.4022   11.6962 S   0  0  0  0  0  0  0  0  0  0  0  0
    5.5886   -6.9264    9.0328 C   0  0  0  0  0  0  0  0  0  0  0  0
    4.9204   -5.7418    9.1478 C   0  0  0  0  0  0  0  0  0  0  0  0
    5.4831   -4.7982   10.5157 S   0  0  0  0  0  0  0  0  0  0  0  0
    3.9058   -5.2219    8.3014 C   0  0  0  0  0  0  0  0  0  0  0  0
    3.3563   -6.1132    6.9047 S   0  0  0  0  0  0  0  0  0  0  0  0
    2.2769   -4.8290    6.4900 C   0  0  0  0  0  0  0  0  0  0  0  0
    1.5069   -4.6886    5.3146 C   0  0  0  0  0  0  0  0  0  0  0  0
    1.0259   -3.4228    4.9983 C   0  0  0  0  0  0  0  0  0  0  0  0
    1.1942   -2.3533    5.7982 O   0  0  0  0  0  0  0  0  0  0  0  0
    1.3973   -2.6033    7.2069 C   0  0  0  0  0  0  0  0  0  0  0  0
    0.0315   -2.9676    7.8334 C   0  0  0  0  0  0  0  0  0  0  0  0
   -1.0665   -1.9593    7.5146 C   0  0  0  0  0  0  0  0  0  0  0  0
    1.9913   -1.2831    7.7298 C   0  0  0  0  0  0  0  0  0  0  0  0
    1.8168   -1.0020    9.2180 C   0  0  0  0  0  0  0  0  0  0  0  0
    2.3316   -3.7776    7.3949 C   0  0  0  0  0  0  0  0  0  0  0  0
    3.2615   -4.0087    8.4100 C   0  0  0  0  0  0  0  0  0  0  0  0
    0.4221   -3.3663    3.7374 C   0  0  0  0  0  0  0  0  0  0  0  0
    0.4147   -4.5848    3.0921 C   0  0  0  0  0  0  0  0  0  0  0  0
    1.1714   -5.8283    4.0559 S   0  0  0  0  0  0  0  0  0  0  0  0
   -0.1061   -4.8747    1.8074 C   0  0  0  0  0  0  0  0  0  0  0  0
   -0.6984   -3.5825    0.7903 S   0  0  0  0  0  0  0  0  0  0  0  0
   -1.0726   -4.7138   -0.4605 C   0  0  0  0  0  0  0  0  0  0  0  0
   -1.5642   -4.4509   -1.7553 C   0  0  0  0  0  0  0  0  0  0  0  0
   -1.5953   -5.4900   -2.6779 C   0  0  0  0  0  0  0  0  0  0  0  0
   -1.2010   -6.7464   -2.4018 O   0  0  0  0  0  0  0  0  0  0  0  0
   -1.0969   -7.1641   -1.0285 C   0  0  0  0  0  0  0  0  0  0  0  0
    0.0171   -8.2346   -0.9589 C   0  0  0  0  0  0  0  0  0  0  0  0
    0.2622   -8.9859   -2.2631 C   0  0  0  0  0  0  0  0  0  0  0  0
   -2.4801   -7.6929   -0.5736 C   0  0  0  0  0  0  0  0  0  0  0  0
   -3.0151   -8.8574   -1.3958 C   0  0  0  0  0  0  0  0  0  0  0  0
   -0.7593   -6.0150   -0.1047 C   0  0  0  0  0  0  0  0  0  0  0  0
   -0.2129   -6.0982    1.1777 C   0  0  0  0  0  0  0  0  0  0  0  0
   -2.0040   -5.0758   -3.9520 C   0  0  0  0  0  0  0  0  0  0  0  0
   -2.2869   -3.7252   -4.0108 C   0  0  0  0  0  0  0  0  0  0  0  0
   -2.0587   -2.9544   -2.4631 S   0  0  0  0  0  0  0  0  0  0  0  0
   -2.6938   -2.9599   -5.1338 C   0  0  0  0  0  0  0  0  0  0  0  0
   -2.8718   -1.2281   -5.0045 S   0  0  0  0  0  0  0  0  0  0  0  0
   -3.3092   -1.1269   -6.6707 C   0  0  0  0  0  0  0  0  0  0  0  0
   -3.5275    0.0348   -7.4402 C   0  0  0  0  0  0  0  0  0  0  0  0
   -3.5754   -0.0856   -8.8243 C   0  0  0  0  0  0  0  0  0  0  0  0
   -3.4749   -1.2670   -9.4641 O   0  0  0  0  0  0  0  0  0  0  0  0
   -3.7845   -2.4703   -8.7259 C   0  0  0  0  0  0  0  0  0  0  0  0
   -5.3234   -2.6253   -8.7465 C   0  0  0  0  0  0  0  0  0  0  0  0
   -5.8377   -3.9099   -8.1132 C   0  0  0  0  0  0  0  0  0  0  0  0
   -3.0416   -3.5954   -9.4623 C   0  0  0  0  0  0  0  0  0  0  0  0
   -3.4356   -3.7279  -10.9286 C   0  0  0  0  0  0  0  0  0  0  0  0
   -3.3247   -2.3682   -7.2895 C   0  0  0  0  0  0  0  0  0  0  0  0
   -2.9706   -3.3979   -6.4154 C   0  0  0  0  0  0  0  0  0  0  0  0
   -3.6567    1.1496   -9.4782 C   0  0  0  0  0  0  0  0  0  0  0  0
   -3.6813    2.2175   -8.6021 C   0  0  0  0  0  0  0  0  0  0  0  0
   -3.6101    1.6868   -6.9421 S   0  0  0  0  0  0  0  0  0  0  0  0
   -3.7444    3.6020   -8.9045 C   0  0  0  0  0  0  0  0  0  0  0  0
   -3.7445    4.7874   -7.6222 S   0  0  0  0  0  0  0  0  0  0  0  0
   -3.7850    6.0693   -8.7772 C   0  0  0  0  0  0  0  0  0  0  0  0
   -3.8675    7.4565   -8.5349 C   0  0  0  0  0  0  0  0  0  0  0  0
   -4.1268    8.3056   -9.6034 C   0  0  0  0  0  0  0  0  0  0  0  0
   -4.2915    7.8717  -10.8672 O   0  0  0  0  0  0  0  0  0  0  0  0
   -3.7469    6.5824  -11.2285 C   0  0  0  0  0  0  0  0  0  0  0  0
   -2.2705    6.8359  -11.6225 C   0  0  0  0  0  0  0  0  0  0  0  0
   -1.4912    5.6032  -12.0576 C   0  0  0  0  0  0  0  0  0  0  0  0
   -4.5895    6.1223  -12.4258 C   0  0  0  0  0  0  0  0  0  0  0  0
   -6.0510    5.9073  -12.0505 C   0  0  0  0  0  0  0  0  0  0  0  0
   -3.8022    5.6030  -10.0823 C   0  0  0  0  0  0  0  0  0  0  0  0
   -3.7823    4.2077  -10.1461 C   0  0  0  0  0  0  0  0  0  0  0  0
   -4.2652    9.6448   -9.2149 C   0  0  0  0  0  0  0  0  0  0  0  0
   -4.1025    9.8269   -7.8584 C   0  0  0  0  0  0  0  0  0  0  0  0
   -3.7740    8.3200   -7.0402 S   0  0  0  0  0  0  0  0  0  0  0  0
   -4.1654   11.0344   -7.1185 C   0  0  0  0  0  0  0  0  0  0  0  0
   -4.4595   12.5637   -7.9097 S   0  0  0  0  0  0  0  0  0  0  0  0
   -4.3758   13.3871   -6.3924 C   0  0  0  0  0  0  0  0  0  0  0  0
   -4.5488   14.7682   -6.1288 C   0  0  0  0  0  0  0  0  0  0  0  0
   -4.6089   15.1866   -4.8115 C   0  0  0  0  0  0  0  0  0  0  0  0
   -4.5233   14.3614   -3.7520 O   0  0  0  0  0  0  0  0  0  0  0  0
   -3.9697   13.0417   -3.9315 C   0  0  0  0  0  0  0  0  0  0  0  0
   -4.7013   12.1554   -2.9113 C   0  0  0  0  0  0  0  0  0  0  0  0
   -6.1679   11.9503   -3.2727 C   0  0  0  0  0  0  0  0  0  0  0  0
   -2.4480   13.1142   -3.6554 C   0  0  0  0  0  0  0  0  0  0  0  0
   -2.1013   13.6339   -2.2657 C   0  0  0  0  0  0  0  0  0  0  0  0
   -4.1450   12.5236   -5.3386 C   0  0  0  0  0  0  0  0  0  0  0  0
   -4.0190   11.1958   -5.7573 C   0  0  0  0  0  0  0  0  0  0  0  0
   -4.8332   16.5765   -4.6936 C   0  0  0  0  0  0  0  0  0  0  0  0
   -4.9268   17.1836   -5.9068 C   0  0  0  0  0  0  0  0  0  0  0  0
   -4.7495   16.0921   -7.2243 S   0  0  0  0  0  0  0  0  0  0  0  0
   10.8326   -8.8349   13.6286 H   0  0  0  0  0  0  0  0  0  0  0  0
    9.5900   -6.5686   13.9441 H   0  0  0  0  0  0  0  0  0  0  0  0
    7.7244   -3.4406   16.9871 H   0  0  0  0  0  0  0  0  0  0  0  0
    7.9635   -1.8187   16.3075 H   0  0  0  0  0  0  0  0  0  0  0  0
    5.2843   -3.2858   16.4841 H   0  0  0  0  0  0  0  0  0  0  0  0
    5.8036   -1.9613   17.5328 H   0  0  0  0  0  0  0  0  0  0  0  0
    5.5250   -1.6697   15.8128 H   0  0  0  0  0  0  0  0  0  0  0  0
    8.2766  -10.8865    5.3439 H   0  0  0  0  0  0  0  0  0  0  0  0
    7.7597  -12.4673    5.9617 H   0  0  0  0  0  0  0  0  0  0  0  0
    6.2040  -11.6394    4.2017 H   0  0  0  0  0  0  0  0  0  0  0  0
    5.3752  -11.7592    5.7571 H   0  0  0  0  0  0  0  0  0  0  0  0
    5.8911  -10.1820    5.1512 H   0  0  0  0  0  0  0  0  0  0  0  0
    5.3706   -7.6375    8.2569 H   0  0  0  0  0  0  0  0  0  0  0  0
    0.1589   -3.0743    8.9105 H   0  0  0  0  0  0  0  0  0  0  0  0
   -0.2629   -3.9438    7.4371 H   0  0  0  0  0  0  0  0  0  0  0  0
   -0.8518   -0.9867    7.9475 H   0  0  0  0  0  0  0  0  0  0  0  0
   -2.0160   -2.3114    7.9114 H   0  0  0  0  0  0  0  0  0  0  0  0
   -1.1653   -1.8388    6.4388 H   0  0  0  0  0  0  0  0  0  0  0  0
    1.5215   -0.4820    7.1564 H   0  0  0  0  0  0  0  0  0  0  0  0
    3.0544   -1.2799    7.4798 H   0  0  0  0  0  0  0  0  0  0  0  0
    2.3934   -0.1180    9.4807 H   0  0  0  0  0  0  0  0  0  0  0  0
    0.7775   -0.8105    9.4682 H   0  0  0  0  0  0  0  0  0  0  0  0
    2.1657   -1.8273    9.8314 H   0  0  0  0  0  0  0  0  0  0  0  0
    3.4906   -3.3263    9.2073 H   0  0  0  0  0  0  0  0  0  0  0  0
    0.0111   -2.4702    3.3103 H   0  0  0  0  0  0  0  0  0  0  0  0
   -0.2358   -8.9397   -0.1661 H   0  0  0  0  0  0  0  0  0  0  0  0
    0.9484   -7.7369   -0.6782 H   0  0  0  0  0  0  0  0  0  0  0  0
   -0.6285   -9.5043   -2.6008 H   0  0  0  0  0  0  0  0  0  0  0  0
    1.0547   -9.7157   -2.1120 H   0  0  0  0  0  0  0  0  0  0  0  0
    0.5702   -8.2961   -3.0434 H   0  0  0  0  0  0  0  0  0  0  0  0
   -3.1814   -6.8559   -0.6443 H   0  0  0  0  0  0  0  0  0  0  0  0
   -2.4064   -7.9753    0.4783 H   0  0  0  0  0  0  0  0  0  0  0  0
   -2.4339   -9.7586   -1.2217 H   0  0  0  0  0  0  0  0  0  0  0  0
   -4.0472   -9.0593   -1.1175 H   0  0  0  0  0  0  0  0  0  0  0  0
   -2.9841   -8.6134   -2.4547 H   0  0  0  0  0  0  0  0  0  0  0  0
    0.0968   -7.0117    1.6528 H   0  0  0  0  0  0  0  0  0  0  0  0
   -2.0698   -5.7395   -4.7929 H   0  0  0  0  0  0  0  0  0  0  0  0
   -5.6553   -2.5574   -9.7835 H   0  0  0  0  0  0  0  0  0  0  0  0
   -5.7411   -1.7675   -8.2115 H   0  0  0  0  0  0  0  0  0  0  0  0
   -5.4823   -4.0042   -7.0897 H   0  0  0  0  0  0  0  0  0  0  0  0
   -5.5166   -4.7821   -8.6762 H   0  0  0  0  0  0  0  0  0  0  0  0
   -6.9250   -3.8987   -8.0968 H   0  0  0  0  0  0  0  0  0  0  0  0
   -3.2213   -4.5366   -8.9449 H   0  0  0  0  0  0  0  0  0  0  0  0
   -1.9745   -3.3715   -9.3973 H   0  0  0  0  0  0  0  0  0  0  0  0
   -2.7781   -4.4401  -11.4217 H   0  0  0  0  0  0  0  0  0  0  0  0
   -4.4579   -4.0820  -11.0313 H   0  0  0  0  0  0  0  0  0  0  0  0
   -3.3448   -2.7674  -11.4274 H   0  0  0  0  0  0  0  0  0  0  0  0
   -2.9129   -4.4347   -6.6888 H   0  0  0  0  0  0  0  0  0  0  0  0
   -3.6855    1.2490  -10.5464 H   0  0  0  0  0  0  0  0  0  0  0  0
   -1.7773    7.2828  -10.7544 H   0  0  0  0  0  0  0  0  0  0  0  0
   -2.2685    7.5788  -12.4230 H   0  0  0  0  0  0  0  0  0  0  0  0
   -1.9107    5.1705  -12.9619 H   0  0  0  0  0  0  0  0  0  0  0  0
   -1.4908    4.8483  -11.2751 H   0  0  0  0  0  0  0  0  0  0  0  0
   -0.4604    5.8812  -12.2634 H   0  0  0  0  0  0  0  0  0  0  0  0
   -4.5223    6.8956  -13.1926 H   0  0  0  0  0  0  0  0  0  0  0  0
   -4.1686    5.2014  -12.8266 H   0  0  0  0  0  0  0  0  0  0  0  0
   -6.6254    5.6260  -12.9297 H   0  0  0  0  0  0  0  0  0  0  0  0
   -6.1474    5.1202  -11.3059 H   0  0  0  0  0  0  0  0  0  0  0  0
   -6.4687    6.8235  -11.6412 H   0  0  0  0  0  0  0  0  0  0  0  0
   -3.7916    3.6436  -11.0599 H   0  0  0  0  0  0  0  0  0  0  0  0
   -4.4792   10.4467   -9.8970 H   0  0  0  0  0  0  0  0  0  0  0  0
   -4.6418   12.6505   -1.9423 H   0  0  0  0  0  0  0  0  0  0  0  0
   -4.1902   11.1949   -2.8437 H   0  0  0  0  0  0  0  0  0  0  0  0
   -6.2677   11.4050   -4.2085 H   0  0  0  0  0  0  0  0  0  0  0  0
   -6.6635   12.9125   -3.3779 H   0  0  0  0  0  0  0  0  0  0  0  0
   -6.6693   11.3866   -2.4900 H   0  0  0  0  0  0  0  0  0  0  0  0
   -2.0231   12.1205   -3.8062 H   0  0  0  0  0  0  0  0  0  0  0  0
   -2.0142   13.7807   -4.4065 H   0  0  0  0  0  0  0  0  0  0  0  0
   -1.0339   13.8306   -2.2006 H   0  0  0  0  0  0  0  0  0  0  0  0
   -2.6374   14.5590   -2.0689 H   0  0  0  0  0  0  0  0  0  0  0  0
   -2.3617   12.9085   -1.4999 H   0  0  0  0  0  0  0  0  0  0  0  0
   -3.8277   10.3638   -5.1037 H   0  0  0  0  0  0  0  0  0  0  0  0
   -4.9193   17.0826   -3.7504 H   0  0  0  0  0  0  0  0  0  0  0  0
   -5.0851   18.2233   -6.1112 H   0  0  0  0  0  0  0  0  0  0  0  0
  1  2  2  0  0  0  0
  2  3  1  0  0  0  0
  3  4  2  0  0  0  0
  4  5  1  0  0  0  0
  5  6  1  0  0  0  0
  6  7  1  0  0  0  0
  7  8  1  0  0  0  0
  8  9  1  0  0  0  0
  7 10  2  0  0  0  0
 10 11  1  0  0  0  0
 10 12  1  0  0  0  0
 12 13  1  0  0  0  0
  4 14  1  0  0  0  0
 14 15  2  0  0  0  0
 15 16  1  0  0  0  0
 16 17  1  0  0  0  0
 17 18  1  0  0  0  0
 18 19  1  0  0  0  0
 19 20  1  0  0  0  0
 20 21  1  0  0  0  0
 19 22  2  0  0  0  0
 22 23  1  0  0  0  0
 23 24  1  0  0  0  0
 22 25  1  0  0  0  0
 16 26  2  0  0  0  0
 26 27  1  0  0  0  0
 15 28  1  0  0  0  0
 28 29  2  0  0  0  0
 29 30  1  0  0  0  0
 29 31  1  0  0  0  0
 31 32  1  0  0  0  0
 32 33  1  0  0  0  0
 33 34  1  0  0  0  0
 34 35  2  0  0  0  0
 35 36  1  0  0  0  0
 36 37  1  0  0  0  0
 37 38  1  0  0  0  0
 38 39  1  0  0  0  0
 37 40  1  0  0  0  0
 40 41  1  0  0  0  0
 37 42  1  0  0  0  0
 42 43  1  0  0  0  0
 35 44  1  0  0  0  0
 44 45  2  0  0  0  0
 45 46  1  0  0  0  0
 45 47  1  0  0  0  0
 47 48  1  0  0  0  0
 48 49  1  0  0  0  0
 49 50  1  0  0  0  0
 50 51  2  0  0  0  0
 51 52  1  0  0  0  0
 52 53  1  0  0  0  0
 53 54  1  0  0  0  0
 54 55  1  0  0  0  0
 53 56  1  0  0  0  0
 56 57  1  0  0  0  0
 53 58  1  0  0  0  0
 58 59  1  0  0  0  0
 51 60  1  0  0  0  0
 60 61  2  0  0  0  0
 61 62  1  0  0  0  0
 61 63  1  0  0  0  0
 63 64  1  0  0  0  0
 64 65  1  0  0  0  0
 65 66  1  0  0  0  0
 66 67  2  0  0  0  0
 67 68  1  0  0  0  0
 68 69  1  0  0  0  0
 69 70  1  0  0  0  0
 70 71  1  0  0  0  0
 69 72  1  0  0  0  0
 72 73  1  0  0  0  0
 69 74  1  0  0  0  0
 74 75  1  0  0  0  0
 67 76  1  0  0  0  0
 76 77  2  0  0  0  0
 77 78  1  0  0  0  0
 77 79  1  0  0  0  0
 79 80  1  0  0  0  0
 80 81  1  0  0  0  0
 81 82  1  0  0  0  0
 82 83  2  0  0  0  0
 83 84  1  0  0  0  0
 84 85  1  0  0  0  0
 85 86  1  0  0  0  0
 86 87  1  0  0  0  0
 85 88  1  0  0  0  0
 88 89  1  0  0  0  0
 85 90  1  0  0  0  0
 90 91  1  0  0  0  0
 83 92  1  0  0  0  0
 92 93  2  0  0  0  0
 93 94  1  0  0  0  0
 93 95  1  0  0  0  0
 95 96  1  0  0  0  0
 96 97  1  0  0  0  0
 97 98  1  0  0  0  0
 98 99  2  0  0  0  0
 99100  1  0  0  0  0
100101  1  0  0  0  0
101102  1  0  0  0  0
102103  1  0  0  0  0
101104  1  0  0  0  0
104105  1  0  0  0  0
101106  1  0  0  0  0
106107  1  0  0  0  0
 99108  1  0  0  0  0
108109  2  0  0  0  0
109110  1  0  0  0  0
 27  1  1  0  0  0  0
 43 31  2  0  0  0  0
 59 47  2  0  0  0  0
 75 63  2  0  0  0  0
 91 79  2  0  0  0  0
107 95  2  0  0  0  0
 26  3  1  0  0  0  0
 42 33  2  0  0  0  0
 58 49  2  0  0  0  0
 74 65  2  0  0  0  0
 90 81  2  0  0  0  0
106 97  2  0  0  0  0
 12  5  2  0  0  0  0
 30 14  1  0  0  0  0
 46 34  1  0  0  0  0
 62 50  1  0  0  0  0
 78 66  1  0  0  0  0
 94 82  1  0  0  0  0
110 98  1  0  0  0  0
 23 17  2  0  0  0  0
  1111  1  0  0  0  0
  2112  1  0  0  0  0
  8113  1  0  0  0  0
  8114  1  0  0  0  0
  9115  1  0  0  0  0
  9116  1  0  0  0  0
  9117  1  0  0  0  0
 20118  1  0  0  0  0
 20119  1  0  0  0  0
 21120  1  0  0  0  0
 21121  1  0  0  0  0
 21122  1  0  0  0  0
 28123  1  0  0  0  0
 38124  1  0  0  0  0
 38125  1  0  0  0  0
 39126  1  0  0  0  0
 39127  1  0  0  0  0
 39128  1  0  0  0  0
 40129  1  0  0  0  0
 40130  1  0  0  0  0
 41131  1  0  0  0  0
 41132  1  0  0  0  0
 41133  1  0  0  0  0
 43134  1  0  0  0  0
 44135  1  0  0  0  0
 54136  1  0  0  0  0
 54137  1  0  0  0  0
 55138  1  0  0  0  0
 55139  1  0  0  0  0
 55140  1  0  0  0  0
 56141  1  0  0  0  0
 56142  1  0  0  0  0
 57143  1  0  0  0  0
 57144  1  0  0  0  0
 57145  1  0  0  0  0
 59146  1  0  0  0  0
 60147  1  0  0  0  0
 70148  1  0  0  0  0
 70149  1  0  0  0  0
 71150  1  0  0  0  0
 71151  1  0  0  0  0
 71152  1  0  0  0  0
 72153  1  0  0  0  0
 72154  1  0  0  0  0
 73155  1  0  0  0  0
 73156  1  0  0  0  0
 73157  1  0  0  0  0
 75158  1  0  0  0  0
 76159  1  0  0  0  0
 86160  1  0  0  0  0
 86161  1  0  0  0  0
 87162  1  0  0  0  0
 87163  1  0  0  0  0
 87164  1  0  0  0  0
 88165  1  0  0  0  0
 88166  1  0  0  0  0
 89167  1  0  0  0  0
 89168  1  0  0  0  0
 89169  1  0  0  0  0
 91170  1  0  0  0  0
 92171  1  0  0  0  0
102172  1  0  0  0  0
102173  1  0  0  0  0
103174  1  0  0  0  0
103175  1  0  0  0  0
103176  1  0  0  0  0
104177  1  0  0  0  0
104178  1  0  0  0  0
105179  1  0  0  0  0
105180  1  0  0  0  0
105181  1  0  0  0  0
107182  1  0  0  0  0
108183  1  0  0  0  0
109184  1  0  0  0  0
M  END
