
  xtb     03012202263D
 energy: -228.959653970573 gnorm: 0.000249673755 xtb: 6.4.1 (unknown)
114127  0     0  0            999 V2000
    5.9625    1.3946   11.7215 C   0  0  0  0  0  0  0  0  0  0  0  0
    4.9764    0.5035   10.6432 S   0  0  0  0  0  0  0  0  0  0  0  0
    4.9887    1.7872    9.4745 C   0  0  0  0  0  0  0  0  0  0  0  0
    5.7507    2.8493    9.9341 C   0  0  0  0  0  0  0  0  0  0  0  0
    6.3025    2.6192   11.2218 C   0  0  0  0  0  0  0  0  0  0  0  0
    7.4207    3.6896   12.0789 S   0  0  0  0  0  0  0  0  0  0  0  0
    6.7066    5.3149   11.8848 C   0  0  0  0  0  0  0  0  0  0  0  0
    7.2637    6.2521   12.3688 O   0  0  0  0  0  0  0  0  0  0  0  0
    5.4357    5.3799   11.0720 C   0  0  0  0  0  0  0  0  0  0  0  0
    5.8114    5.2181    9.6068 C   0  0  0  0  0  0  0  0  0  0  0  0
    5.9796    6.1303    8.8545 O   0  0  0  0  0  0  0  0  0  0  0  0
    5.9612    3.9579    9.1571 O   0  0  0  0  0  0  0  0  0  0  0  0
    4.2905    1.6828    8.2369 C   0  0  0  0  0  0  0  0  0  0  0  0
    3.4002    0.2355    7.8398 S   0  0  0  0  0  0  0  0  0  0  0  0
    2.9352    0.9159    6.3230 C   0  0  0  0  0  0  0  0  0  0  0  0
    2.0915    0.3624    5.3346 C   0  0  0  0  0  0  0  0  0  0  0  0
    1.6475    1.1947    4.3079 C   0  0  0  0  0  0  0  0  0  0  0  0
    1.9929    2.4858    4.1979 O   0  0  0  0  0  0  0  0  0  0  0  0
    3.2118    2.9237    4.8436 C   0  0  0  0  0  0  0  0  0  0  0  0
    4.3648    2.6027    3.8618 C   0  0  0  0  0  0  0  0  0  0  0  0
    5.7544    2.9941    4.3440 C   0  0  0  0  0  0  0  0  0  0  0  0
    3.0332    4.4334    5.0483 C   0  0  0  0  0  0  0  0  0  0  0  0
    1.8708    4.7563    5.9796 C   0  0  0  0  0  0  0  0  0  0  0  0
    3.4407    2.1943    6.1424 C   0  0  0  0  0  0  0  0  0  0  0  0
    4.2081    2.6212    7.2274 C   0  0  0  0  0  0  0  0  0  0  0  0
    0.7631    0.5492    3.4411 C   0  0  0  0  0  0  0  0  0  0  0  0
    0.5503   -0.7764    3.7752 C   0  0  0  0  0  0  0  0  0  0  0  0
    1.4447   -1.2318    5.1996 S   0  0  0  0  0  0  0  0  0  0  0  0
   -0.2582   -1.6844    3.0479 C   0  0  0  0  0  0  0  0  0  0  0  0
   -1.1858   -1.0897    1.6987 S   0  0  0  0  0  0  0  0  0  0  0  0
   -1.7851   -2.6732    1.3262 C   0  0  0  0  0  0  0  0  0  0  0  0
   -1.2577   -3.6108    2.1959 C   0  0  0  0  0  0  0  0  0  0  0  0
   -0.4231   -3.0550    3.1914 C   0  0  0  0  0  0  0  0  0  0  0  0
    0.4620   -3.9912    4.3968 S   0  0  0  0  0  0  0  0  0  0  0  0
   -0.7027   -5.2201    4.9903 C   0  0  0  0  0  0  0  0  0  0  0  0
   -0.3472   -5.9523    5.8603 O   0  0  0  0  0  0  0  0  0  0  0  0
   -2.0374   -5.2603    4.2923 C   0  0  0  0  0  0  0  0  0  0  0  0
   -1.8039   -5.8308    2.9040 C   0  0  0  0  0  0  0  0  0  0  0  0
   -1.9089   -6.9825    2.6137 O   0  0  0  0  0  0  0  0  0  0  0  0
   -1.4405   -4.9425    1.9528 O   0  0  0  0  0  0  0  0  0  0  0  0
   -2.6270   -2.9155    0.2016 C   0  0  0  0  0  0  0  0  0  0  0  0
   -2.4223   -2.0009   -1.2613 S   0  0  0  0  0  0  0  0  0  0  0  0
   -3.6352   -2.9294   -2.0852 C   0  0  0  0  0  0  0  0  0  0  0  0
   -4.1553   -3.9040   -1.2501 C   0  0  0  0  0  0  0  0  0  0  0  0
   -3.6176   -3.8692    0.0586 C   0  0  0  0  0  0  0  0  0  0  0  0
   -4.3314   -4.6998    1.4437 S   0  0  0  0  0  0  0  0  0  0  0  0
   -4.5465   -6.3883    0.8758 C   0  0  0  0  0  0  0  0  0  0  0  0
   -5.0983   -7.1678    1.5830 O   0  0  0  0  0  0  0  0  0  0  0  0
   -4.0228   -6.6466   -0.5126 C   0  0  0  0  0  0  0  0  0  0  0  0
   -5.0520   -6.1223   -1.5025 C   0  0  0  0  0  0  0  0  0  0  0  0
   -5.8364   -6.8136   -2.0781 O   0  0  0  0  0  0  0  0  0  0  0  0
   -5.0716   -4.7922   -1.7326 O   0  0  0  0  0  0  0  0  0  0  0  0
   -3.9638   -2.6522   -3.4425 C   0  0  0  0  0  0  0  0  0  0  0  0
   -2.7344   -2.0115   -4.5006 S   0  0  0  0  0  0  0  0  0  0  0  0
   -3.8275   -1.9657   -5.8457 C   0  0  0  0  0  0  0  0  0  0  0  0
   -5.0806   -2.4285   -5.4700 C   0  0  0  0  0  0  0  0  0  0  0  0
   -5.1705   -2.7932   -4.1071 C   0  0  0  0  0  0  0  0  0  0  0  0
   -6.6896   -3.0736   -3.2539 S   0  0  0  0  0  0  0  0  0  0  0  0
   -7.5942   -4.1904   -4.3168 C   0  0  0  0  0  0  0  0  0  0  0  0
   -8.6979   -4.5137   -4.0092 O   0  0  0  0  0  0  0  0  0  0  0  0
   -6.8732   -4.5919   -5.5797 C   0  0  0  0  0  0  0  0  0  0  0  0
   -6.9849   -3.4199   -6.5437 C   0  0  0  0  0  0  0  0  0  0  0  0
   -7.8148   -3.3331   -7.3960 O   0  0  0  0  0  0  0  0  0  0  0  0
   -6.0909   -2.4197   -6.3900 O   0  0  0  0  0  0  0  0  0  0  0  0
   -3.4400   -1.4519   -7.1046 C   0  0  0  0  0  0  0  0  0  0  0  0
   -4.5395   -1.4298   -8.4593 S   0  0  0  0  0  0  0  0  0  0  0  0
   -3.3408   -0.6581   -9.4299 C   0  0  0  0  0  0  0  0  0  0  0  0
   -3.4465   -0.2200  -10.7700 C   0  0  0  0  0  0  0  0  0  0  0  0
   -2.4191    0.5446  -11.3019 C   0  0  0  0  0  0  0  0  0  0  0  0
   -1.3149    0.9014  -10.6290 O   0  0  0  0  0  0  0  0  0  0  0  0
   -0.9676    0.2082   -9.4132 C   0  0  0  0  0  0  0  0  0  0  0  0
   -0.3115    1.2693   -8.5149 C   0  0  0  0  0  0  0  0  0  0  0  0
   -1.3106    2.3140   -8.0310 C   0  0  0  0  0  0  0  0  0  0  0  0
    0.0108   -0.9348   -9.7778 C   0  0  0  0  0  0  0  0  0  0  0  0
    1.2818   -0.4558  -10.4682 C   0  0  0  0  0  0  0  0  0  0  0  0
   -2.1622   -0.4195   -8.7372 C   0  0  0  0  0  0  0  0  0  0  0  0
   -2.2218   -0.8815   -7.4252 C   0  0  0  0  0  0  0  0  0  0  0  0
   -2.6874    0.9640  -12.6235 C   0  0  0  0  0  0  0  0  0  0  0  0
   -3.8895    0.5076  -13.0688 C   0  0  0  0  0  0  0  0  0  0  0  0
   -4.7336   -0.4348  -11.9069 S   0  0  0  0  0  0  0  0  0  0  0  0
    6.2611    0.9748   12.6598 H   0  0  0  0  0  0  0  0  0  0  0  0
    4.9998    6.3713   11.2058 H   0  0  0  0  0  0  0  0  0  0  0  0
    4.7340    4.6008   11.3762 H   0  0  0  0  0  0  0  0  0  0  0  0
    4.3407    1.5253    3.6726 H   0  0  0  0  0  0  0  0  0  0  0  0
    4.1423    3.1091    2.9204 H   0  0  0  0  0  0  0  0  0  0  0  0
    5.8380    4.0687    4.4783 H   0  0  0  0  0  0  0  0  0  0  0  0
    5.9934    2.5052    5.2851 H   0  0  0  0  0  0  0  0  0  0  0  0
    6.4912    2.6880    3.6055 H   0  0  0  0  0  0  0  0  0  0  0  0
    2.8467    4.8782    4.0699 H   0  0  0  0  0  0  0  0  0  0  0  0
    3.9552    4.8525    5.4474 H   0  0  0  0  0  0  0  0  0  0  0  0
    1.7544    5.8332    6.0670 H   0  0  0  0  0  0  0  0  0  0  0  0
    0.9478    4.3375    5.5868 H   0  0  0  0  0  0  0  0  0  0  0  0
    2.0433    4.3461    6.9723 H   0  0  0  0  0  0  0  0  0  0  0  0
    4.6982    3.5742    7.2795 H   0  0  0  0  0  0  0  0  0  0  0  0
    0.3045    1.0252    2.5942 H   0  0  0  0  0  0  0  0  0  0  0  0
   -2.6910   -5.9399    4.8415 H   0  0  0  0  0  0  0  0  0  0  0  0
   -2.4811   -4.2652    4.2227 H   0  0  0  0  0  0  0  0  0  0  0  0
   -3.9399   -7.7263   -0.6477 H   0  0  0  0  0  0  0  0  0  0  0  0
   -3.0545   -6.1632   -0.6562 H   0  0  0  0  0  0  0  0  0  0  0  0
   -5.8302   -4.8392   -5.3764 H   0  0  0  0  0  0  0  0  0  0  0  0
   -7.3968   -5.4449   -6.0138 H   0  0  0  0  0  0  0  0  0  0  0  0
    0.1595    0.7738   -7.6659 H   0  0  0  0  0  0  0  0  0  0  0  0
    0.4614    1.7652   -9.1012 H   0  0  0  0  0  0  0  0  0  0  0  0
   -2.0754    1.8642   -7.4020 H   0  0  0  0  0  0  0  0  0  0  0  0
   -0.7979    3.0803   -7.4553 H   0  0  0  0  0  0  0  0  0  0  0  0
   -1.7959    2.7879   -8.8808 H   0  0  0  0  0  0  0  0  0  0  0  0
   -0.5240   -1.6184  -10.4432 H   0  0  0  0  0  0  0  0  0  0  0  0
    0.2571   -1.4810   -8.8658 H   0  0  0  0  0  0  0  0  0  0  0  0
    1.0321    0.2045  -11.2947 H   0  0  0  0  0  0  0  0  0  0  0  0
    1.9268    0.0777   -9.7757 H   0  0  0  0  0  0  0  0  0  0  0  0
    1.8322   -1.3079  -10.8592 H   0  0  0  0  0  0  0  0  0  0  0  0
   -1.4231   -0.8075   -6.7089 H   0  0  0  0  0  0  0  0  0  0  0  0
   -2.0145    1.5719  -13.1983 H   0  0  0  0  0  0  0  0  0  0  0  0
   -4.3337    0.6680  -14.0306 H   0  0  0  0  0  0  0  0  0  0  0  0
  1  2  1  0  0  0  0
  2  3  1  0  0  0  0
  3  4  2  0  0  0  0
  4  5  1  0  0  0  0
  5  6  1  0  0  0  0
  6  7  1  0  0  0  0
  7  8  2  0  0  0  0
  7  9  1  0  0  0  0
  9 10  1  0  0  0  0
 10 11  2  0  0  0  0
 10 12  1  0  0  0  0
  3 13  1  0  0  0  0
 13 14  1  0  0  0  0
 14 15  1  0  0  0  0
 15 16  1  0  0  0  0
 16 17  2  0  0  0  0
 17 18  1  0  0  0  0
 18 19  1  0  0  0  0
 19 20  1  0  0  0  0
 20 21  1  0  0  0  0
 19 22  1  0  0  0  0
 22 23  1  0  0  0  0
 19 24  1  0  0  0  0
 24 25  1  0  0  0  0
 17 26  1  0  0  0  0
 26 27  2  0  0  0  0
 27 28  1  0  0  0  0
 27 29  1  0  0  0  0
 29 30  1  0  0  0  0
 30 31  1  0  0  0  0
 31 32  2  0  0  0  0
 32 33  1  0  0  0  0
 33 34  1  0  0  0  0
 34 35  1  0  0  0  0
 35 36  2  0  0  0  0
 35 37  1  0  0  0  0
 37 38  1  0  0  0  0
 38 39  2  0  0  0  0
 38 40  1  0  0  0  0
 31 41  1  0  0  0  0
 41 42  1  0  0  0  0
 42 43  1  0  0  0  0
 43 44  2  0  0  0  0
 44 45  1  0  0  0  0
 45 46  1  0  0  0  0
 46 47  1  0  0  0  0
 47 48  2  0  0  0  0
 47 49  1  0  0  0  0
 49 50  1  0  0  0  0
 50 51  2  0  0  0  0
 50 52  1  0  0  0  0
 43 53  1  0  0  0  0
 53 54  1  0  0  0  0
 54 55  1  0  0  0  0
 55 56  2  0  0  0  0
 56 57  1  0  0  0  0
 57 58  1  0  0  0  0
 58 59  1  0  0  0  0
 59 60  2  0  0  0  0
 59 61  1  0  0  0  0
 61 62  1  0  0  0  0
 62 63  2  0  0  0  0
 62 64  1  0  0  0  0
 55 65  1  0  0  0  0
 65 66  1  0  0  0  0
 66 67  1  0  0  0  0
 67 68  1  0  0  0  0
 68 69  2  0  0  0  0
 69 70  1  0  0  0  0
 70 71  1  0  0  0  0
 71 72  1  0  0  0  0
 72 73  1  0  0  0  0
 71 74  1  0  0  0  0
 74 75  1  0  0  0  0
 71 76  1  0  0  0  0
 76 77  1  0  0  0  0
 69 78  1  0  0  0  0
 78 79  2  0  0  0  0
 79 80  1  0  0  0  0
  5  1  2  0  0  0  0
 25 13  2  0  0  0  0
 33 29  2  0  0  0  0
 45 41  2  0  0  0  0
 57 53  2  0  0  0  0
 77 65  2  0  0  0  0
 12  4  1  0  0  0  0
 24 15  2  0  0  0  0
 40 32  1  0  0  0  0
 52 44  1  0  0  0  0
 64 56  1  0  0  0  0
 76 67  2  0  0  0  0
 28 16  1  0  0  0  0
 80 68  1  0  0  0  0
  1 81  1  0  0  0  0
  9 82  1  0  0  0  0
  9 83  1  0  0  0  0
 20 84  1  0  0  0  0
 20 85  1  0  0  0  0
 21 86  1  0  0  0  0
 21 87  1  0  0  0  0
 21 88  1  0  0  0  0
 22 89  1  0  0  0  0
 22 90  1  0  0  0  0
 23 91  1  0  0  0  0
 23 92  1  0  0  0  0
 23 93  1  0  0  0  0
 25 94  1  0  0  0  0
 26 95  1  0  0  0  0
 37 96  1  0  0  0  0
 37 97  1  0  0  0  0
 49 98  1  0  0  0  0
 49 99  1  0  0  0  0
 61100  1  0  0  0  0
 61101  1  0  0  0  0
 72102  1  0  0  0  0
 72103  1  0  0  0  0
 73104  1  0  0  0  0
 73105  1  0  0  0  0
 73106  1  0  0  0  0
 74107  1  0  0  0  0
 74108  1  0  0  0  0
 75109  1  0  0  0  0
 75110  1  0  0  0  0
 75111  1  0  0  0  0
 77112  1  0  0  0  0
 78113  1  0  0  0  0
 79114  1  0  0  0  0
M  END
