
  xtb     02282221033D
 energy: -348.203512309318 gnorm: 0.000268454816 xtb: 6.4.1 (unknown)
198219  0     0  0            999 V2000
   10.8926   -2.3531   16.4970 C   0  0  0  0  0  0  0  0  0  0  0  0
   10.4607   -3.2669   15.1029 S   0  0  0  0  0  0  0  0  0  0  0  0
    9.4076   -1.9984   14.5826 C   0  0  0  0  0  0  0  0  0  0  0  0
    8.6563   -1.9166   13.3825 C   0  0  0  0  0  0  0  0  0  0  0  0
    8.0832   -0.6991   13.0466 C   0  0  0  0  0  0  0  0  0  0  0  0
    8.1881    0.4066   13.8087 O   0  0  0  0  0  0  0  0  0  0  0  0
    8.4946    0.2451   15.2123 C   0  0  0  0  0  0  0  0  0  0  0  0
    7.1402    0.0118   15.9260 C   0  0  0  0  0  0  0  0  0  0  0  0
    7.2244   -0.1803   17.4334 C   0  0  0  0  0  0  0  0  0  0  0  0
    9.1414    1.5734   15.6283 C   0  0  0  0  0  0  0  0  0  0  0  0
   10.4524    1.8282   14.8938 C   0  0  0  0  0  0  0  0  0  0  0  0
    9.4066   -0.9309   15.4548 C   0  0  0  0  0  0  0  0  0  0  0  0
   10.2650   -1.1473   16.5523 C   0  0  0  0  0  0  0  0  0  0  0  0
    7.4439   -0.7243   11.7984 C   0  0  0  0  0  0  0  0  0  0  0  0
    7.5174   -1.9557   11.1881 C   0  0  0  0  0  0  0  0  0  0  0  0
    8.3856   -3.1103   12.1654 S   0  0  0  0  0  0  0  0  0  0  0  0
    6.9881   -2.3413    9.9266 C   0  0  0  0  0  0  0  0  0  0  0  0
    7.0958   -3.5564    9.3143 C   0  0  0  0  0  0  0  0  0  0  0  0
    6.4668   -3.6112    8.0486 C   0  0  0  0  0  0  0  0  0  0  0  0
    6.3852   -4.7044    7.1667 C   0  0  0  0  0  0  0  0  0  0  0  0
    6.8789   -6.0141    7.5549 C   0  0  0  0  0  0  0  0  0  0  0  0
    7.9805   -6.9131    6.5554 S   0  0  0  0  0  0  0  0  0  0  0  0
    8.0414   -8.2329    7.6738 C   0  0  0  0  0  0  0  0  0  0  0  0
    8.8365   -9.4564    7.3785 C   0  0  0  0  0  0  0  0  0  0  0  0
    8.0642  -10.3978    6.4514 C   0  0  0  0  0  0  0  0  0  0  0  0
    7.2388   -7.9824    8.7462 C   0  0  0  0  0  0  0  0  0  0  0  0
    7.0283   -9.0668   10.0595 Cl  0  0  0  0  0  0  0  0  0  0  0  0
    6.5830   -6.7237    8.6861 C   0  0  0  0  0  0  0  0  0  0  0  0
    5.4713   -6.2056    9.8869 Cl  0  0  0  0  0  0  0  0  0  0  0  0
    5.8065   -4.4714    5.9281 C   0  0  0  0  0  0  0  0  0  0  0  0
    5.2489   -3.2233    5.5564 C   0  0  0  0  0  0  0  0  0  0  0  0
    5.2570   -2.1541    6.4715 C   0  0  0  0  0  0  0  0  0  0  0  0
    4.6228   -0.8878    6.1493 C   0  0  0  0  0  0  0  0  0  0  0  0
    5.4664    0.6228    6.3190 S   0  0  0  0  0  0  0  0  0  0  0  0
    4.0994    1.5367    5.7792 C   0  0  0  0  0  0  0  0  0  0  0  0
    4.1718    3.0167    5.6354 C   0  0  0  0  0  0  0  0  0  0  0  0
    4.8120    3.4090    4.3018 C   0  0  0  0  0  0  0  0  0  0  0  0
    3.0604    0.7057    5.4839 C   0  0  0  0  0  0  0  0  0  0  0  0
    3.3510   -0.6685    5.6962 C   0  0  0  0  0  0  0  0  0  0  0  0
    2.1777   -1.9025    5.4793 Cl  0  0  0  0  0  0  0  0  0  0  0  0
    1.5319    1.2460    4.9207 Cl  0  0  0  0  0  0  0  0  0  0  0  0
    5.8950   -2.3676    7.6857 C   0  0  0  0  0  0  0  0  0  0  0  0
    6.0929   -1.1886    8.9529 S   0  0  0  0  0  0  0  0  0  0  0  0
    4.7612   -3.2361    4.2277 C   0  0  0  0  0  0  0  0  0  0  0  0
    4.9032   -4.4419    3.6038 C   0  0  0  0  0  0  0  0  0  0  0  0
    5.6558   -5.6387    4.6459 S   0  0  0  0  0  0  0  0  0  0  0  0
    4.5513   -4.7944    2.2741 C   0  0  0  0  0  0  0  0  0  0  0  0
    3.6941   -3.6820    1.2365 S   0  0  0  0  0  0  0  0  0  0  0  0
    3.7269   -4.8317   -0.0547 C   0  0  0  0  0  0  0  0  0  0  0  0
    3.2455   -4.6879   -1.3752 C   0  0  0  0  0  0  0  0  0  0  0  0
    3.5953   -5.6509   -2.3144 C   0  0  0  0  0  0  0  0  0  0  0  0
    4.3528   -6.7276   -2.0350 O   0  0  0  0  0  0  0  0  0  0  0  0
    4.4586   -7.1577   -0.6636 C   0  0  0  0  0  0  0  0  0  0  0  0
    5.8109   -7.8798   -0.5731 C   0  0  0  0  0  0  0  0  0  0  0  0
    6.9875   -6.9271   -0.7515 C   0  0  0  0  0  0  0  0  0  0  0  0
    3.2708   -8.1005   -0.3511 C   0  0  0  0  0  0  0  0  0  0  0  0
    3.1963   -9.3182   -1.2638 C   0  0  0  0  0  0  0  0  0  0  0  0
    4.3762   -6.0016    0.3023 C   0  0  0  0  0  0  0  0  0  0  0  0
    4.8263   -5.9777    1.6237 C   0  0  0  0  0  0  0  0  0  0  0  0
    3.1302   -5.3547   -3.6011 C   0  0  0  0  0  0  0  0  0  0  0  0
    2.4002   -4.1844   -3.6507 C   0  0  0  0  0  0  0  0  0  0  0  0
    2.2953   -3.4283   -2.0832 S   0  0  0  0  0  0  0  0  0  0  0  0
    1.7756   -3.6141   -4.7917 C   0  0  0  0  0  0  0  0  0  0  0  0
    0.5676   -2.3629   -4.6459 S   0  0  0  0  0  0  0  0  0  0  0  0
    0.3815   -2.3106   -6.3634 C   0  0  0  0  0  0  0  0  0  0  0  0
   -0.5514   -1.5700   -7.1220 C   0  0  0  0  0  0  0  0  0  0  0  0
   -0.6913   -1.8679   -8.4730 C   0  0  0  0  0  0  0  0  0  0  0  0
    0.0416   -2.7983   -9.1124 O   0  0  0  0  0  0  0  0  0  0  0  0
    1.2855   -3.2249   -8.5153 C   0  0  0  0  0  0  0  0  0  0  0  0
    1.5246   -4.6361   -9.0690 C   0  0  0  0  0  0  0  0  0  0  0  0
    0.4400   -5.6147   -8.6340 C   0  0  0  0  0  0  0  0  0  0  0  0
    2.3625   -2.2225   -8.9998 C   0  0  0  0  0  0  0  0  0  0  0  0
    3.7750   -2.4972   -8.5044 C   0  0  0  0  0  0  0  0  0  0  0  0
    1.2228   -3.2034   -7.0092 C   0  0  0  0  0  0  0  0  0  0  0  0
    1.9995   -3.9422   -6.1147 C   0  0  0  0  0  0  0  0  0  0  0  0
   -1.7265   -1.1544   -9.0869 C   0  0  0  0  0  0  0  0  0  0  0  0
   -2.3833   -0.3063   -8.2171 C   0  0  0  0  0  0  0  0  0  0  0  0
   -1.7020   -0.3835   -6.6138 S   0  0  0  0  0  0  0  0  0  0  0  0
   -3.4878    0.5361   -8.5078 C   0  0  0  0  0  0  0  0  0  0  0  0
   -4.2886    1.4514   -7.2576 S   0  0  0  0  0  0  0  0  0  0  0  0
   -5.4141    2.0808   -8.4072 C   0  0  0  0  0  0  0  0  0  0  0  0
   -6.5498    2.8871   -8.1685 C   0  0  0  0  0  0  0  0  0  0  0  0
   -7.4830    3.0288   -9.1893 C   0  0  0  0  0  0  0  0  0  0  0  0
   -7.3389    2.4723  -10.4061 O   0  0  0  0  0  0  0  0  0  0  0  0
   -6.0052    2.1287  -10.8409 C   0  0  0  0  0  0  0  0  0  0  0  0
   -6.1992    1.0437  -11.9110 C   0  0  0  0  0  0  0  0  0  0  0  0
   -7.0682    1.4911  -13.0805 C   0  0  0  0  0  0  0  0  0  0  0  0
   -5.3603    3.4262  -11.3818 C   0  0  0  0  0  0  0  0  0  0  0  0
   -3.9787    3.2395  -11.9921 C   0  0  0  0  0  0  0  0  0  0  0  0
   -5.1739    1.6114   -9.6897 C   0  0  0  0  0  0  0  0  0  0  0  0
   -4.0871    0.7371   -9.7373 C   0  0  0  0  0  0  0  0  0  0  0  0
   -8.6186    3.7464   -8.7929 C   0  0  0  0  0  0  0  0  0  0  0  0
   -8.5529    4.1676   -7.4835 C   0  0  0  0  0  0  0  0  0  0  0  0
   -7.0659    3.6722   -6.7183 S   0  0  0  0  0  0  0  0  0  0  0  0
   -9.5241    4.9116   -6.7602 C   0  0  0  0  0  0  0  0  0  0  0  0
   -9.4491    5.3586   -5.4729 C   0  0  0  0  0  0  0  0  0  0  0  0
  -10.6063    6.0539   -5.0454 C   0  0  0  0  0  0  0  0  0  0  0  0
  -10.8436    6.6647   -3.8029 C   0  0  0  0  0  0  0  0  0  0  0  0
   -9.8598    6.6210   -2.7338 C   0  0  0  0  0  0  0  0  0  0  0  0
   -9.2160    5.1121   -2.1554 S   0  0  0  0  0  0  0  0  0  0  0  0
   -8.2358    5.8953   -0.9646 C   0  0  0  0  0  0  0  0  0  0  0  0
   -7.4007    5.1140   -0.0113 C   0  0  0  0  0  0  0  0  0  0  0  0
   -8.1792    4.8078    1.2706 C   0  0  0  0  0  0  0  0  0  0  0  0
   -8.4118    7.2456   -1.0209 C   0  0  0  0  0  0  0  0  0  0  0  0
   -7.6014    8.3567    0.0048 Cl  0  0  0  0  0  0  0  0  0  0  0  0
   -9.3290    7.6613   -2.0228 C   0  0  0  0  0  0  0  0  0  0  0  0
   -9.6546    9.3126   -2.3444 Cl  0  0  0  0  0  0  0  0  0  0  0  0
  -12.0706    7.2965   -3.6335 C   0  0  0  0  0  0  0  0  0  0  0  0
  -13.0517    7.3598   -4.6511 C   0  0  0  0  0  0  0  0  0  0  0  0
  -12.7957    6.7886   -5.9080 C   0  0  0  0  0  0  0  0  0  0  0  0
  -13.7606    6.8880   -6.9912 C   0  0  0  0  0  0  0  0  0  0  0  0
  -14.3308    5.4820   -7.8386 S   0  0  0  0  0  0  0  0  0  0  0  0
  -15.3484    6.4238   -8.8742 C   0  0  0  0  0  0  0  0  0  0  0  0
  -16.2312    5.7782   -9.8845 C   0  0  0  0  0  0  0  0  0  0  0  0
  -17.5601    5.3515   -9.2563 C   0  0  0  0  0  0  0  0  0  0  0  0
  -15.2439    7.7474   -8.5662 C   0  0  0  0  0  0  0  0  0  0  0  0
  -14.3422    8.0150   -7.5016 C   0  0  0  0  0  0  0  0  0  0  0  0
  -13.9774    9.6076   -6.9747 Cl  0  0  0  0  0  0  0  0  0  0  0  0
  -16.1011    8.9905   -9.3818 Cl  0  0  0  0  0  0  0  0  0  0  0  0
  -11.5840    6.1311   -6.0674 C   0  0  0  0  0  0  0  0  0  0  0  0
  -11.0434    5.3437   -7.5236 S   0  0  0  0  0  0  0  0  0  0  0  0
  -14.2451    7.9892   -4.1918 C   0  0  0  0  0  0  0  0  0  0  0  0
  -14.1653    8.3849   -2.9050 C   0  0  0  0  0  0  0  0  0  0  0  0
  -12.6459    8.0266   -2.1621 S   0  0  0  0  0  0  0  0  0  0  0  0
   11.5879   -2.7689   17.1981 H   0  0  0  0  0  0  0  0  0  0  0  0
    6.6881   -0.8773   15.4769 H   0  0  0  0  0  0  0  0  0  0  0  0
    6.4963    0.8631   15.6946 H   0  0  0  0  0  0  0  0  0  0  0  0
    6.2318   -0.3829   17.8286 H   0  0  0  0  0  0  0  0  0  0  0  0
    7.8677   -1.0210   17.6815 H   0  0  0  0  0  0  0  0  0  0  0  0
    7.6073    0.7107   17.9238 H   0  0  0  0  0  0  0  0  0  0  0  0
    8.4349    2.3717   15.3957 H   0  0  0  0  0  0  0  0  0  0  0  0
    9.3123    1.5670   16.7039 H   0  0  0  0  0  0  0  0  0  0  0  0
   10.2841    1.8241   13.8200 H   0  0  0  0  0  0  0  0  0  0  0  0
   11.1853    1.0603   15.1318 H   0  0  0  0  0  0  0  0  0  0  0  0
   10.8587    2.7957   15.1783 H   0  0  0  0  0  0  0  0  0  0  0  0
   10.4161   -0.4444   17.3510 H   0  0  0  0  0  0  0  0  0  0  0  0
    6.9537    0.1249   11.3593 H   0  0  0  0  0  0  0  0  0  0  0  0
    7.6321   -4.3779    9.7538 H   0  0  0  0  0  0  0  0  0  0  0  0
    9.0571   -9.9656    8.3182 H   0  0  0  0  0  0  0  0  0  0  0  0
    9.7773   -9.1718    6.9041 H   0  0  0  0  0  0  0  0  0  0  0  0
    7.1309  -10.7033    6.9176 H   0  0  0  0  0  0  0  0  0  0  0  0
    7.8368   -9.8978    5.5129 H   0  0  0  0  0  0  0  0  0  0  0  0
    8.6561  -11.2848    6.2419 H   0  0  0  0  0  0  0  0  0  0  0  0
    3.1603    3.4232    5.6899 H   0  0  0  0  0  0  0  0  0  0  0  0
    4.7611    3.4303    6.4557 H   0  0  0  0  0  0  0  0  0  0  0  0
    5.8218    3.0109    4.2376 H   0  0  0  0  0  0  0  0  0  0  0  0
    4.2290    3.0145    3.4734 H   0  0  0  0  0  0  0  0  0  0  0  0
    4.8561    4.4911    4.2129 H   0  0  0  0  0  0  0  0  0  0  0  0
    4.3421   -2.3783    3.7341 H   0  0  0  0  0  0  0  0  0  0  0  0
    5.8392   -8.6272   -1.3656 H   0  0  0  0  0  0  0  0  0  0  0  0
    5.8770   -8.3895    0.3883 H   0  0  0  0  0  0  0  0  0  0  0  0
    6.8997   -6.4029   -1.6999 H   0  0  0  0  0  0  0  0  0  0  0  0
    7.9213   -7.4838   -0.7484 H   0  0  0  0  0  0  0  0  0  0  0  0
    7.0213   -6.1917    0.0489 H   0  0  0  0  0  0  0  0  0  0  0  0
    2.3541   -7.5139   -0.4608 H   0  0  0  0  0  0  0  0  0  0  0  0
    3.3446   -8.4111    0.6924 H   0  0  0  0  0  0  0  0  0  0  0  0
    2.2482   -9.8305   -1.1187 H   0  0  0  0  0  0  0  0  0  0  0  0
    3.9986  -10.0189   -1.0496 H   0  0  0  0  0  0  0  0  0  0  0  0
    3.2682   -9.0100   -2.3039 H   0  0  0  0  0  0  0  0  0  0  0  0
    5.3439   -6.7853    2.1097 H   0  0  0  0  0  0  0  0  0  0  0  0
    3.3107   -5.9858   -4.4502 H   0  0  0  0  0  0  0  0  0  0  0  0
    2.5000   -4.9897   -8.7386 H   0  0  0  0  0  0  0  0  0  0  0  0
    1.5338   -4.5659  -10.1578 H   0  0  0  0  0  0  0  0  0  0  0  0
    0.6163   -6.5906   -9.0796 H   0  0  0  0  0  0  0  0  0  0  0  0
   -0.5347   -5.2571   -8.9555 H   0  0  0  0  0  0  0  0  0  0  0  0
    0.4284   -5.7236   -7.5518 H   0  0  0  0  0  0  0  0  0  0  0  0
    2.3444   -2.2243  -10.0919 H   0  0  0  0  0  0  0  0  0  0  0  0
    2.0521   -1.2287   -8.6645 H   0  0  0  0  0  0  0  0  0  0  0  0
    3.8070   -2.5213   -7.4178 H   0  0  0  0  0  0  0  0  0  0  0  0
    4.4389   -1.7073   -8.8472 H   0  0  0  0  0  0  0  0  0  0  0  0
    4.1501   -3.4426   -8.8870 H   0  0  0  0  0  0  0  0  0  0  0  0
    2.7179   -4.6849   -6.4074 H   0  0  0  0  0  0  0  0  0  0  0  0
   -1.9856   -1.2743  -10.1213 H   0  0  0  0  0  0  0  0  0  0  0  0
   -6.6715    0.1898  -11.4204 H   0  0  0  0  0  0  0  0  0  0  0  0
   -5.2236    0.7264  -12.2762 H   0  0  0  0  0  0  0  0  0  0  0  0
   -8.0052    1.9001  -12.7141 H   0  0  0  0  0  0  0  0  0  0  0  0
   -6.5651    2.2458  -13.6790 H   0  0  0  0  0  0  0  0  0  0  0  0
   -7.2866    0.6398  -13.7208 H   0  0  0  0  0  0  0  0  0  0  0  0
   -6.0409    3.8590  -12.1162 H   0  0  0  0  0  0  0  0  0  0  0  0
   -5.2925    4.1269  -10.5445 H   0  0  0  0  0  0  0  0  0  0  0  0
   -4.0220    2.6148  -12.8802 H   0  0  0  0  0  0  0  0  0  0  0  0
   -3.5733    4.2070  -12.2782 H   0  0  0  0  0  0  0  0  0  0  0  0
   -3.2989    2.7832  -11.2763 H   0  0  0  0  0  0  0  0  0  0  0  0
   -3.7333    0.2578  -10.6303 H   0  0  0  0  0  0  0  0  0  0  0  0
   -9.4562    3.9443   -9.4361 H   0  0  0  0  0  0  0  0  0  0  0  0
   -8.5855    5.1931   -4.8546 H   0  0  0  0  0  0  0  0  0  0  0  0
   -7.0911    4.1803   -0.4831 H   0  0  0  0  0  0  0  0  0  0  0  0
   -6.5100    5.6956    0.2347 H   0  0  0  0  0  0  0  0  0  0  0  0
   -9.0715    4.2298    1.0419 H   0  0  0  0  0  0  0  0  0  0  0  0
   -7.5589    4.2368    1.9560 H   0  0  0  0  0  0  0  0  0  0  0  0
   -8.4791    5.7317    1.7583 H   0  0  0  0  0  0  0  0  0  0  0  0
  -16.4200    6.4896  -10.6906 H   0  0  0  0  0  0  0  0  0  0  0  0
  -15.7274    4.9034  -10.2987 H   0  0  0  0  0  0  0  0  0  0  0  0
  -18.1937    4.8830  -10.0044 H   0  0  0  0  0  0  0  0  0  0  0  0
  -18.0799    6.2161   -8.8514 H   0  0  0  0  0  0  0  0  0  0  0  0
  -17.3854    4.6417   -8.4513 H   0  0  0  0  0  0  0  0  0  0  0  0
  -15.1201    8.1175   -4.8017 H   0  0  0  0  0  0  0  0  0  0  0  0
  -14.9168    8.8781   -2.3200 H   0  0  0  0  0  0  0  0  0  0  0  0
  1  2  1  0  0  0  0
  2  3  1  0  0  0  0
  3  4  1  0  0  0  0
  4  5  2  0  0  0  0
  5  6  1  0  0  0  0
  6  7  1  0  0  0  0
  7  8  1  0  0  0  0
  8  9  1  0  0  0  0
  7 10  1  0  0  0  0
 10 11  1  0  0  0  0
  7 12  1  0  0  0  0
 12 13  1  0  0  0  0
  5 14  1  0  0  0  0
 14 15  2  0  0  0  0
 15 16  1  0  0  0  0
 15 17  1  0  0  0  0
 17 18  2  0  0  0  0
 18 19  1  0  0  0  0
 19 20  2  0  0  0  0
 20 21  1  0  0  0  0
 21 22  1  0  0  0  0
 22 23  1  0  0  0  0
 23 24  1  0  0  0  0
 24 25  1  0  0  0  0
 23 26  2  0  0  0  0
 26 27  1  0  0  0  0
 26 28  1  0  0  0  0
 28 29  1  0  0  0  0
 20 30  1  0  0  0  0
 30 31  2  0  0  0  0
 31 32  1  0  0  0  0
 32 33  1  0  0  0  0
 33 34  1  0  0  0  0
 34 35  1  0  0  0  0
 35 36  1  0  0  0  0
 36 37  1  0  0  0  0
 35 38  2  0  0  0  0
 38 39  1  0  0  0  0
 39 40  1  0  0  0  0
 38 41  1  0  0  0  0
 32 42  2  0  0  0  0
 42 43  1  0  0  0  0
 31 44  1  0  0  0  0
 44 45  2  0  0  0  0
 45 46  1  0  0  0  0
 45 47  1  0  0  0  0
 47 48  1  0  0  0  0
 48 49  1  0  0  0  0
 49 50  1  0  0  0  0
 50 51  2  0  0  0  0
 51 52  1  0  0  0  0
 52 53  1  0  0  0  0
 53 54  1  0  0  0  0
 54 55  1  0  0  0  0
 53 56  1  0  0  0  0
 56 57  1  0  0  0  0
 53 58  1  0  0  0  0
 58 59  1  0  0  0  0
 51 60  1  0  0  0  0
 60 61  2  0  0  0  0
 61 62  1  0  0  0  0
 61 63  1  0  0  0  0
 63 64  1  0  0  0  0
 64 65  1  0  0  0  0
 65 66  1  0  0  0  0
 66 67  2  0  0  0  0
 67 68  1  0  0  0  0
 68 69  1  0  0  0  0
 69 70  1  0  0  0  0
 70 71  1  0  0  0  0
 69 72  1  0  0  0  0
 72 73  1  0  0  0  0
 69 74  1  0  0  0  0
 74 75  1  0  0  0  0
 67 76  1  0  0  0  0
 76 77  2  0  0  0  0
 77 78  1  0  0  0  0
 77 79  1  0  0  0  0
 79 80  1  0  0  0  0
 80 81  1  0  0  0  0
 81 82  1  0  0  0  0
 82 83  2  0  0  0  0
 83 84  1  0  0  0  0
 84 85  1  0  0  0  0
 85 86  1  0  0  0  0
 86 87  1  0  0  0  0
 85 88  1  0  0  0  0
 88 89  1  0  0  0  0
 85 90  1  0  0  0  0
 90 91  1  0  0  0  0
 83 92  1  0  0  0  0
 92 93  2  0  0  0  0
 93 94  1  0  0  0  0
 93 95  1  0  0  0  0
 95 96  2  0  0  0  0
 96 97  1  0  0  0  0
 97 98  2  0  0  0  0
 98 99  1  0  0  0  0
 99100  1  0  0  0  0
100101  1  0  0  0  0
101102  1  0  0  0  0
102103  1  0  0  0  0
101104  2  0  0  0  0
104105  1  0  0  0  0
104106  1  0  0  0  0
106107  1  0  0  0  0
 98108  1  0  0  0  0
108109  2  0  0  0  0
109110  1  0  0  0  0
110111  1  0  0  0  0
111112  1  0  0  0  0
112113  1  0  0  0  0
113114  1  0  0  0  0
114115  1  0  0  0  0
113116  2  0  0  0  0
116117  1  0  0  0  0
117118  1  0  0  0  0
116119  1  0  0  0  0
110120  2  0  0  0  0
120121  1  0  0  0  0
109122  1  0  0  0  0
122123  2  0  0  0  0
123124  1  0  0  0  0
 13  1  2  0  0  0  0
 43 17  1  0  0  0  0
 59 47  2  0  0  0  0
 75 63  2  0  0  0  0
 91 79  2  0  0  0  0
121 95  1  0  0  0  0
 12  3  2  0  0  0  0
 42 19  1  0  0  0  0
 58 49  2  0  0  0  0
 74 65  2  0  0  0  0
 90 81  2  0  0  0  0
120 97  1  0  0  0  0
 16  4  1  0  0  0  0
 28 21  2  0  0  0  0
 46 30  1  0  0  0  0
 62 50  1  0  0  0  0
 78 66  1  0  0  0  0
 94 82  1  0  0  0  0
106 99  2  0  0  0  0
124108  1  0  0  0  0
 39 33  2  0  0  0  0
117111  2  0  0  0  0
  1125  1  0  0  0  0
  8126  1  0  0  0  0
  8127  1  0  0  0  0
  9128  1  0  0  0  0
  9129  1  0  0  0  0
  9130  1  0  0  0  0
 10131  1  0  0  0  0
 10132  1  0  0  0  0
 11133  1  0  0  0  0
 11134  1  0  0  0  0
 11135  1  0  0  0  0
 13136  1  0  0  0  0
 14137  1  0  0  0  0
 18138  1  0  0  0  0
 24139  1  0  0  0  0
 24140  1  0  0  0  0
 25141  1  0  0  0  0
 25142  1  0  0  0  0
 25143  1  0  0  0  0
 36144  1  0  0  0  0
 36145  1  0  0  0  0
 37146  1  0  0  0  0
 37147  1  0  0  0  0
 37148  1  0  0  0  0
 44149  1  0  0  0  0
 54150  1  0  0  0  0
 54151  1  0  0  0  0
 55152  1  0  0  0  0
 55153  1  0  0  0  0
 55154  1  0  0  0  0
 56155  1  0  0  0  0
 56156  1  0  0  0  0
 57157  1  0  0  0  0
 57158  1  0  0  0  0
 57159  1  0  0  0  0
 59160  1  0  0  0  0
 60161  1  0  0  0  0
 70162  1  0  0  0  0
 70163  1  0  0  0  0
 71164  1  0  0  0  0
 71165  1  0  0  0  0
 71166  1  0  0  0  0
 72167  1  0  0  0  0
 72168  1  0  0  0  0
 73169  1  0  0  0  0
 73170  1  0  0  0  0
 73171  1  0  0  0  0
 75172  1  0  0  0  0
 76173  1  0  0  0  0
 86174  1  0  0  0  0
 86175  1  0  0  0  0
 87176  1  0  0  0  0
 87177  1  0  0  0  0
 87178  1  0  0  0  0
 88179  1  0  0  0  0
 88180  1  0  0  0  0
 89181  1  0  0  0  0
 89182  1  0  0  0  0
 89183  1  0  0  0  0
 91184  1  0  0  0  0
 92185  1  0  0  0  0
 96186  1  0  0  0  0
102187  1  0  0  0  0
102188  1  0  0  0  0
103189  1  0  0  0  0
103190  1  0  0  0  0
103191  1  0  0  0  0
114192  1  0  0  0  0
114193  1  0  0  0  0
115194  1  0  0  0  0
115195  1  0  0  0  0
115196  1  0  0  0  0
122197  1  0  0  0  0
123198  1  0  0  0  0
M  END
