105

C          9.03100        1.66490        2.49950
C          8.66240        2.59760        3.48170
N          9.46370        3.46980        4.09610
S          8.59180        4.32410        5.13840
N          7.16240        3.63990        4.86920
C          7.29830        2.69730        3.93850
C          6.29620        1.84570        3.39560
C          6.72090        0.94530        2.43190
C          8.04960        0.85500        1.99410
C          4.91110        1.88270        3.78430
C          4.37190        2.71620        4.69470
C          2.98240        2.76480        5.06560
C          2.55540        3.72730        6.01960
N          3.31570        4.62050        6.65010
S          2.38770        5.50210        7.62100
N          0.97610        4.80210        7.29990
C          1.17280        3.83520        6.40300
C          0.19370        2.96870        5.85860
C          0.64710        2.05340        4.92540
C          1.98580        1.95210        4.54710
C         -1.20300        3.12820        6.21560
C         -2.12430        2.15800        6.25950
C         -1.85980        0.72950        6.15270
C         -2.66340       -0.09230        5.32650
N         -3.69340        0.29190        4.57100
S         -4.27090       -0.99300        3.79480
N         -3.24700       -2.09150        4.36150
C         -2.39290       -1.49910        5.19560
C         -1.33410       -2.10510        5.91950
C         -0.63100       -1.28320        6.77620
C         -0.87080        0.09360        6.87390
C         -1.04210       -3.52430        5.78520
C         -0.96050       -4.19250        4.62310
C         -0.96810       -3.59190        3.32180
S         -1.49190       -4.50920        1.93540
C         -1.21660       -3.15640        0.89810
C         -1.39620       -3.06650       -0.50070
C         -0.95740       -1.91840       -1.15010
O         -0.36600       -0.87670       -0.53100
C         -0.48370       -0.74720        0.89810
C          0.82830       -0.09210        1.35600
C          2.02480       -1.02390        1.20320
C         -1.71070        0.14610        1.21040
C         -1.64440        1.52920        0.57580
C         -0.71580       -2.06760        1.58890
C         -0.57640       -2.32380        2.95580
C         -1.13130       -1.98420       -2.53590
C         -1.71030       -3.16790       -2.95050
S         -2.05070       -4.22080       -1.60630
C         -2.02900       -3.57940       -4.28300
C         -2.65460       -4.83100       -4.51740
N         -3.00500       -5.72680       -3.59920
S         -3.66270       -6.99820       -4.33550
N         -3.54030       -6.47450       -5.85030
C         -2.96990       -5.26960       -5.84830
C         -2.69040       -4.45500       -6.97530
C         -2.05910       -3.25050       -6.70530
C         -1.74190       -2.82760       -5.41610
C         -2.97930       -4.96870       -8.29500
C         -3.22740       -4.30350       -9.43650
C         -3.46830       -2.89140       -9.64250
C         -3.14730       -2.31750      -10.89940
N         -2.57790       -2.93190      -11.93610
S         -2.39870       -1.87130      -13.13070
N         -3.02500       -0.58370      -12.40060
C         -3.41190       -0.93090      -11.17260
C         -4.02600       -0.09690      -10.20410
C         -4.35490       -0.70550       -9.00630
C         -4.08780       -2.05040       -8.73550
C         -4.27270        1.29380      -10.53430
C         -4.79820        2.21460       -9.73170
H         10.05600        1.60830        2.17220
H          5.99210        0.27830        1.99320
H          8.29560        0.12480        1.23720
H          4.28670        1.16410        3.26830
H          5.00720        3.42860        5.20060
H         -0.07500        1.40490        4.45110
H          2.24800        1.21000        3.80920
H         -1.49490        4.14590        6.43850
H         -3.16520        2.41930        6.39760
H          0.16480       -1.71110        7.36880
H         -0.25700        0.68200        7.53990
H         -0.89100       -4.06190        6.71200
H         -0.85500       -5.26930        4.64130
H          0.98820        0.79490        0.74310
H          0.71740        0.21900        2.39450
H          1.93440       -1.88850        1.85730
H          2.09460       -1.37280        0.17580
H          2.94410       -0.49700        1.44940
H         -2.59590       -0.37890        0.83940
H         -1.80570        0.23530        2.29430
H         -2.60490        2.02800        0.67990
H         -0.88820        2.14490        1.05550
H         -1.40880        1.44270       -0.48210
H         -0.17860       -1.61740        3.66200
H         -0.83700       -1.19040       -3.19610
H         -1.78060       -2.61680       -7.53370
H         -1.24410       -1.87780       -5.30040
H         -2.97080       -6.05090       -8.33840
H         -3.27550       -4.88010      -10.35200
H         -4.84640       -0.12560       -8.24040
H         -4.39490       -2.45390       -7.78220
H         -3.97880        1.56050      -11.54080
H         -5.10100        2.00340       -8.72020
H         -4.94360        3.22700      -10.06630
