
  xtb     02282222143D
 energy: -265.396186464456 gnorm: 0.000458083641 xtb: 6.4.1 (unknown)
166183  0     0  0            999 V2000
   -2.6929   10.5459   10.6101 C   0  0  0  0  0  0  0  0  0  0  0  0
   -2.6411    9.1565    9.5980 S   0  0  0  0  0  0  0  0  0  0  0  0
   -2.4185    8.1471   10.9827 C   0  0  0  0  0  0  0  0  0  0  0  0
   -2.2445    6.7422   10.9856 C   0  0  0  0  0  0  0  0  0  0  0  0
   -2.1889    6.0878   12.2035 C   0  0  0  0  0  0  0  0  0  0  0  0
   -2.3296    6.7164   13.3852 O   0  0  0  0  0  0  0  0  0  0  0  0
   -2.1318    8.1550   13.4777 C   0  0  0  0  0  0  0  0  0  0  0  0
   -0.6336    8.3229   13.8342 C   0  0  0  0  0  0  0  0  0  0  0  0
   -0.1764    9.7317   14.1785 C   0  0  0  0  0  0  0  0  0  0  0  0
   -3.0758    8.5040   14.6544 C   0  0  0  0  0  0  0  0  0  0  0  0
   -3.6341    9.9141   14.7811 C   0  0  0  0  0  0  0  0  0  0  0  0
   -2.4128    8.8579   12.1678 C   0  0  0  0  0  0  0  0  0  0  0  0
   -2.5532   10.2429   11.9286 C   0  0  0  0  0  0  0  0  0  0  0  0
   -2.0370    4.7001   12.0762 C   0  0  0  0  0  0  0  0  0  0  0  0
   -1.9587    4.2915   10.7604 C   0  0  0  0  0  0  0  0  0  0  0  0
   -2.0818    5.6428    9.6641 S   0  0  0  0  0  0  0  0  0  0  0  0
   -1.7721    2.9748   10.2615 C   0  0  0  0  0  0  0  0  0  0  0  0
   -1.5789    2.7017    8.5416 S   0  0  0  0  0  0  0  0  0  0  0  0
   -1.6924    1.8000   10.9882 C   0  0  0  0  0  0  0  0  0  0  0  0
   -1.4838    0.6780   10.1824 C   0  0  0  0  0  0  0  0  0  0  0  0
   -1.2471   -0.7664   10.3204 C   0  0  0  0  0  0  0  0  0  0  0  0
   -1.2858   -1.5046   11.4460 C   0  0  0  0  0  0  0  0  0  0  0  0
   -0.9064   -2.9578   11.4826 C   0  0  0  0  0  0  0  0  0  0  0  0
   -2.1024   -3.7725   11.2797 N   0  0  0  0  0  0  0  0  0  0  0  0
   -1.7207   -0.9493   12.7721 C   0  0  0  0  0  0  0  0  0  0  0  0
   -0.5408   -0.5517   13.5375 N   0  0  0  0  0  0  0  0  0  0  0  0
   -1.3817    1.0257    8.8281 C   0  0  0  0  0  0  0  0  0  0  0  0
   -1.0819   -0.1292    8.0800 C   0  0  0  0  0  0  0  0  0  0  0  0
   -0.8094   -0.5370    6.4400 S   0  0  0  0  0  0  0  0  0  0  0  0
   -0.9738   -1.2233    8.9497 C   0  0  0  0  0  0  0  0  0  0  0  0
   -0.6785   -2.4027    8.2607 C   0  0  0  0  0  0  0  0  0  0  0  0
   -0.5397   -2.2069    6.8977 C   0  0  0  0  0  0  0  0  0  0  0  0
   -0.1726   -3.1618    5.9132 C   0  0  0  0  0  0  0  0  0  0  0  0
   -0.0690   -2.7037    4.2315 S   0  0  0  0  0  0  0  0  0  0  0  0
    0.4623   -4.2909    3.8072 C   0  0  0  0  0  0  0  0  0  0  0  0
    0.9345   -4.7422    2.5553 C   0  0  0  0  0  0  0  0  0  0  0  0
    1.6608   -5.9264    2.5152 C   0  0  0  0  0  0  0  0  0  0  0  0
    1.8595   -6.7052    3.5978 O   0  0  0  0  0  0  0  0  0  0  0  0
    0.9327   -6.5752    4.6988 C   0  0  0  0  0  0  0  0  0  0  0  0
    1.6819   -7.1261    5.9214 C   0  0  0  0  0  0  0  0  0  0  0  0
    2.1513   -8.5661    5.7511 C   0  0  0  0  0  0  0  0  0  0  0  0
   -0.3296   -7.3885    4.3294 C   0  0  0  0  0  0  0  0  0  0  0  0
   -1.3830   -7.4459    5.4263 C   0  0  0  0  0  0  0  0  0  0  0  0
    0.5436   -5.1298    4.9073 C   0  0  0  0  0  0  0  0  0  0  0  0
    0.1819   -4.4852    6.0930 C   0  0  0  0  0  0  0  0  0  0  0  0
    2.2260   -6.1790    1.2596 C   0  0  0  0  0  0  0  0  0  0  0  0
    1.9159   -5.2078    0.3290 C   0  0  0  0  0  0  0  0  0  0  0  0
    0.9069   -3.9611    1.0146 S   0  0  0  0  0  0  0  0  0  0  0  0
    2.3448   -5.1260   -1.0221 C   0  0  0  0  0  0  0  0  0  0  0  0
    1.6025   -4.0054   -2.1359 S   0  0  0  0  0  0  0  0  0  0  0  0
    2.6825   -4.5008   -3.3901 C   0  0  0  0  0  0  0  0  0  0  0  0
    2.7847   -4.0037   -4.7080 C   0  0  0  0  0  0  0  0  0  0  0  0
    3.8941   -4.3578   -5.4651 C   0  0  0  0  0  0  0  0  0  0  0  0
    4.8716   -5.1689   -5.0161 O   0  0  0  0  0  0  0  0  0  0  0  0
    4.5751   -6.0609   -3.9237 C   0  0  0  0  0  0  0  0  0  0  0  0
    3.9463   -7.3527   -4.5014 C   0  0  0  0  0  0  0  0  0  0  0  0
    4.8245   -8.0567   -5.5285 C   0  0  0  0  0  0  0  0  0  0  0  0
    5.9289   -6.3262   -3.2491 C   0  0  0  0  0  0  0  0  0  0  0  0
    6.4899   -5.0803   -2.5731 C   0  0  0  0  0  0  0  0  0  0  0  0
    3.5754   -5.4678   -2.9600 C   0  0  0  0  0  0  0  0  0  0  0  0
    3.3669   -5.8301   -1.6273 C   0  0  0  0  0  0  0  0  0  0  0  0
    3.9225   -3.7351   -6.7190 C   0  0  0  0  0  0  0  0  0  0  0  0
    2.8233   -2.9309   -6.9405 C   0  0  0  0  0  0  0  0  0  0  0  0
    1.7422   -2.9300   -5.5723 S   0  0  0  0  0  0  0  0  0  0  0  0
    2.5253   -2.1794   -8.1084 C   0  0  0  0  0  0  0  0  0  0  0  0
    0.9094   -1.5976   -8.4203 S   0  0  0  0  0  0  0  0  0  0  0  0
    1.4287   -0.8876   -9.9076 C   0  0  0  0  0  0  0  0  0  0  0  0
    0.6437   -0.2596  -10.8988 C   0  0  0  0  0  0  0  0  0  0  0  0
    1.2243    0.0162  -12.1304 C   0  0  0  0  0  0  0  0  0  0  0  0
    2.5122   -0.2453  -12.4202 O   0  0  0  0  0  0  0  0  0  0  0  0
    3.4393   -0.4291  -11.3278 C   0  0  0  0  0  0  0  0  0  0  0  0
    4.5700   -1.2872  -11.9103 C   0  0  0  0  0  0  0  0  0  0  0  0
    4.0815   -2.6654  -12.3405 C   0  0  0  0  0  0  0  0  0  0  0  0
    3.9302    0.9867  -10.9357 C   0  0  0  0  0  0  0  0  0  0  0  0
    4.9411    1.0316   -9.7990 C   0  0  0  0  0  0  0  0  0  0  0  0
    2.7820   -1.0784  -10.1362 C   0  0  0  0  0  0  0  0  0  0  0  0
    3.3921   -1.8184   -9.1204 C   0  0  0  0  0  0  0  0  0  0  0  0
    0.3129    0.5260  -13.0642 C   0  0  0  0  0  0  0  0  0  0  0  0
   -0.9628    0.6452  -12.5577 C   0  0  0  0  0  0  0  0  0  0  0  0
   -1.0421    0.1281  -10.8910 S   0  0  0  0  0  0  0  0  0  0  0  0
   -2.1255    1.1093  -13.2231 C   0  0  0  0  0  0  0  0  0  0  0  0
   -2.0215    1.7195  -14.8635 S   0  0  0  0  0  0  0  0  0  0  0  0
   -3.4166    1.1424  -12.7338 C   0  0  0  0  0  0  0  0  0  0  0  0
   -4.3345    1.6444  -13.6614 C   0  0  0  0  0  0  0  0  0  0  0  0
   -5.7757    1.9093  -13.7794 C   0  0  0  0  0  0  0  0  0  0  0  0
   -6.7420    1.6100  -12.8852 C   0  0  0  0  0  0  0  0  0  0  0  0
   -6.4156    1.0582  -11.5232 C   0  0  0  0  0  0  0  0  0  0  0  0
   -5.9905    2.1591  -10.6594 N   0  0  0  0  0  0  0  0  0  0  0  0
   -8.1830    1.9923  -13.0917 C   0  0  0  0  0  0  0  0  0  0  0  0
   -8.4290    3.3533  -12.6291 N   0  0  0  0  0  0  0  0  0  0  0  0
   -3.7096    2.0074  -14.8606 C   0  0  0  0  0  0  0  0  0  0  0  0
   -4.6813    2.5379  -15.7390 C   0  0  0  0  0  0  0  0  0  0  0  0
   -4.7323    3.2262  -17.3078 S   0  0  0  0  0  0  0  0  0  0  0  0
   -5.9283    2.5090  -15.1101 C   0  0  0  0  0  0  0  0  0  0  0  0
   -6.9259    3.0812  -15.9256 C   0  0  0  0  0  0  0  0  0  0  0  0
   -6.4292    3.4996  -17.1230 C   0  0  0  0  0  0  0  0  0  0  0  0
   -2.8195   11.5130   10.1669 H   0  0  0  0  0  0  0  0  0  0  0  0
   -0.0570    7.9567   12.9792 H   0  0  0  0  0  0  0  0  0  0  0  0
   -0.4309    7.6559   14.6759 H   0  0  0  0  0  0  0  0  0  0  0  0
    0.8925    9.7231   14.3807 H   0  0  0  0  0  0  0  0  0  0  0  0
   -0.3582   10.4128   13.3516 H   0  0  0  0  0  0  0  0  0  0  0  0
   -0.6839   10.1021   15.0645 H   0  0  0  0  0  0  0  0  0  0  0  0
   -3.9213    7.8171   14.5667 H   0  0  0  0  0  0  0  0  0  0  0  0
   -2.5470    8.2419   15.5729 H   0  0  0  0  0  0  0  0  0  0  0  0
   -4.2610   10.1647   13.9299 H   0  0  0  0  0  0  0  0  0  0  0  0
   -2.8494   10.6581   14.8804 H   0  0  0  0  0  0  0  0  0  0  0  0
   -4.2518    9.9591   15.6763 H   0  0  0  0  0  0  0  0  0  0  0  0
   -2.5431   11.0026   12.6852 H   0  0  0  0  0  0  0  0  0  0  0  0
   -1.9840    4.0372   12.9186 H   0  0  0  0  0  0  0  0  0  0  0  0
   -1.7784    1.8044   12.0581 H   0  0  0  0  0  0  0  0  0  0  0  0
   -0.1056   -3.1546   10.7542 H   0  0  0  0  0  0  0  0  0  0  0  0
   -0.5182   -3.1831   12.4797 H   0  0  0  0  0  0  0  0  0  0  0  0
   -1.8666   -4.7583   11.3167 H   0  0  0  0  0  0  0  0  0  0  0  0
   -2.5034   -3.5775   10.3678 H   0  0  0  0  0  0  0  0  0  0  0  0
   -2.2186   -1.7498   13.3269 H   0  0  0  0  0  0  0  0  0  0  0  0
   -2.4473   -0.1376   12.6212 H   0  0  0  0  0  0  0  0  0  0  0  0
   -0.0426    0.1846   13.0473 H   0  0  0  0  0  0  0  0  0  0  0  0
   -0.8166   -0.1942   14.4458 H   0  0  0  0  0  0  0  0  0  0  0  0
   -0.5571   -3.3765    8.6962 H   0  0  0  0  0  0  0  0  0  0  0  0
    2.5504   -6.4835    6.0823 H   0  0  0  0  0  0  0  0  0  0  0  0
    1.0373   -7.0493    6.7959 H   0  0  0  0  0  0  0  0  0  0  0  0
    1.3104   -9.2542    5.7280 H   0  0  0  0  0  0  0  0  0  0  0  0
    2.7944   -8.8429    6.5833 H   0  0  0  0  0  0  0  0  0  0  0  0
    2.7139   -8.6678    4.8278 H   0  0  0  0  0  0  0  0  0  0  0  0
   -0.7629   -6.9254    3.4383 H   0  0  0  0  0  0  0  0  0  0  0  0
   -0.0156   -8.3965    4.0546 H   0  0  0  0  0  0  0  0  0  0  0  0
   -1.0185   -7.9898    6.2938 H   0  0  0  0  0  0  0  0  0  0  0  0
   -2.2697   -7.9547    5.0557 H   0  0  0  0  0  0  0  0  0  0  0  0
   -1.6695   -6.4436    5.7368 H   0  0  0  0  0  0  0  0  0  0  0  0
    0.1850   -4.9531    7.0597 H   0  0  0  0  0  0  0  0  0  0  0  0
    2.8310   -7.0400    1.0482 H   0  0  0  0  0  0  0  0  0  0  0  0
    3.7167   -8.0240   -3.6723 H   0  0  0  0  0  0  0  0  0  0  0  0
    3.0010   -7.0691   -4.9729 H   0  0  0  0  0  0  0  0  0  0  0  0
    4.2561   -8.8382   -6.0270 H   0  0  0  0  0  0  0  0  0  0  0  0
    5.6912   -8.5127   -5.0577 H   0  0  0  0  0  0  0  0  0  0  0  0
    5.1661   -7.3455   -6.2765 H   0  0  0  0  0  0  0  0  0  0  0  0
    6.6249   -6.6508   -4.0223 H   0  0  0  0  0  0  0  0  0  0  0  0
    5.8131   -7.1331   -2.5253 H   0  0  0  0  0  0  0  0  0  0  0  0
    7.4768   -5.2882   -2.1670 H   0  0  0  0  0  0  0  0  0  0  0  0
    5.8445   -4.7499   -1.7626 H   0  0  0  0  0  0  0  0  0  0  0  0
    6.5756   -4.2737   -3.2970 H   0  0  0  0  0  0  0  0  0  0  0  0
    3.9478   -6.5658   -1.1028 H   0  0  0  0  0  0  0  0  0  0  0  0
    4.7076   -3.8868   -7.4351 H   0  0  0  0  0  0  0  0  0  0  0  0
    5.3614   -1.3866  -11.1688 H   0  0  0  0  0  0  0  0  0  0  0  0
    4.9725   -0.7590  -12.7760 H   0  0  0  0  0  0  0  0  0  0  0  0
    3.6959   -3.2223  -11.4894 H   0  0  0  0  0  0  0  0  0  0  0  0
    4.8978   -3.2299  -12.7843 H   0  0  0  0  0  0  0  0  0  0  0  0
    3.2878   -2.5656  -13.0764 H   0  0  0  0  0  0  0  0  0  0  0  0
    4.3553    1.4464  -11.8306 H   0  0  0  0  0  0  0  0  0  0  0  0
    3.0474    1.5672  -10.6525 H   0  0  0  0  0  0  0  0  0  0  0  0
    5.8675    0.5353  -10.0755 H   0  0  0  0  0  0  0  0  0  0  0  0
    4.5420    0.5563   -8.9062 H   0  0  0  0  0  0  0  0  0  0  0  0
    5.1714    2.0670   -9.5597 H   0  0  0  0  0  0  0  0  0  0  0  0
    4.4350   -2.0745   -9.0996 H   0  0  0  0  0  0  0  0  0  0  0  0
    0.5755    0.7856  -14.0730 H   0  0  0  0  0  0  0  0  0  0  0  0
   -3.6243    0.8041  -11.7350 H   0  0  0  0  0  0  0  0  0  0  0  0
   -7.3157    0.6276  -11.0747 H   0  0  0  0  0  0  0  0  0  0  0  0
   -5.6710    0.2528  -11.6178 H   0  0  0  0  0  0  0  0  0  0  0  0
   -5.7782    1.8126   -9.7296 H   0  0  0  0  0  0  0  0  0  0  0  0
   -5.1474    2.5854  -11.0316 H   0  0  0  0  0  0  0  0  0  0  0  0
   -8.4680    1.9200  -14.1413 H   0  0  0  0  0  0  0  0  0  0  0  0
   -8.8340    1.3286  -12.5172 H   0  0  0  0  0  0  0  0  0  0  0  0
   -7.8612    4.0048  -13.1625 H   0  0  0  0  0  0  0  0  0  0  0  0
   -8.1411    3.4290  -11.6575 H   0  0  0  0  0  0  0  0  0  0  0  0
   -7.9606    3.2087  -15.6661 H   0  0  0  0  0  0  0  0  0  0  0  0
   -6.9645    3.9655  -17.9264 H   0  0  0  0  0  0  0  0  0  0  0  0
  1  2  1  0  0  0  0
  2  3  1  0  0  0  0
  3  4  1  0  0  0  0
  4  5  2  0  0  0  0
  5  6  1  0  0  0  0
  6  7  1  0  0  0  0
  7  8  1  0  0  0  0
  8  9  1  0  0  0  0
  7 10  1  0  0  0  0
 10 11  1  0  0  0  0
  7 12  1  0  0  0  0
 12 13  1  0  0  0  0
  5 14  1  0  0  0  0
 14 15  2  0  0  0  0
 15 16  1  0  0  0  0
 15 17  1  0  0  0  0
 17 18  1  0  0  0  0
 17 19  2  0  0  0  0
 19 20  1  0  0  0  0
 20 21  1  0  0  0  0
 21 22  2  0  0  0  0
 22 23  1  0  0  0  0
 23 24  1  0  0  0  0
 22 25  1  0  0  0  0
 25 26  1  0  0  0  0
 20 27  2  0  0  0  0
 27 28  1  0  0  0  0
 28 29  1  0  0  0  0
 28 30  2  0  0  0  0
 30 31  1  0  0  0  0
 31 32  2  0  0  0  0
 32 33  1  0  0  0  0
 33 34  1  0  0  0  0
 34 35  1  0  0  0  0
 35 36  1  0  0  0  0
 36 37  2  0  0  0  0
 37 38  1  0  0  0  0
 38 39  1  0  0  0  0
 39 40  1  0  0  0  0
 40 41  1  0  0  0  0
 39 42  1  0  0  0  0
 42 43  1  0  0  0  0
 39 44  1  0  0  0  0
 44 45  1  0  0  0  0
 37 46  1  0  0  0  0
 46 47  2  0  0  0  0
 47 48  1  0  0  0  0
 47 49  1  0  0  0  0
 49 50  1  0  0  0  0
 50 51  1  0  0  0  0
 51 52  1  0  0  0  0
 52 53  2  0  0  0  0
 53 54  1  0  0  0  0
 54 55  1  0  0  0  0
 55 56  1  0  0  0  0
 56 57  1  0  0  0  0
 55 58  1  0  0  0  0
 58 59  1  0  0  0  0
 55 60  1  0  0  0  0
 60 61  1  0  0  0  0
 53 62  1  0  0  0  0
 62 63  2  0  0  0  0
 63 64  1  0  0  0  0
 63 65  1  0  0  0  0
 65 66  1  0  0  0  0
 66 67  1  0  0  0  0
 67 68  1  0  0  0  0
 68 69  2  0  0  0  0
 69 70  1  0  0  0  0
 70 71  1  0  0  0  0
 71 72  1  0  0  0  0
 72 73  1  0  0  0  0
 71 74  1  0  0  0  0
 74 75  1  0  0  0  0
 71 76  1  0  0  0  0
 76 77  1  0  0  0  0
 69 78  1  0  0  0  0
 78 79  2  0  0  0  0
 79 80  1  0  0  0  0
 79 81  1  0  0  0  0
 81 82  1  0  0  0  0
 81 83  2  0  0  0  0
 83 84  1  0  0  0  0
 84 85  1  0  0  0  0
 85 86  2  0  0  0  0
 86 87  1  0  0  0  0
 87 88  1  0  0  0  0
 86 89  1  0  0  0  0
 89 90  1  0  0  0  0
 84 91  2  0  0  0  0
 91 92  1  0  0  0  0
 92 93  1  0  0  0  0
 92 94  2  0  0  0  0
 94 95  1  0  0  0  0
 95 96  2  0  0  0  0
 13  1  2  0  0  0  0
 27 18  1  0  0  0  0
 45 33  2  0  0  0  0
 61 49  2  0  0  0  0
 77 65  2  0  0  0  0
 91 82  1  0  0  0  0
 12  3  2  0  0  0  0
 30 21  1  0  0  0  0
 44 35  2  0  0  0  0
 60 51  2  0  0  0  0
 76 67  2  0  0  0  0
 94 85  1  0  0  0  0
 16  4  1  0  0  0  0
 32 29  1  0  0  0  0
 48 36  1  0  0  0  0
 64 52  1  0  0  0  0
 80 68  1  0  0  0  0
 96 93  1  0  0  0  0
  1 97  1  0  0  0  0
  8 98  1  0  0  0  0
  8 99  1  0  0  0  0
  9100  1  0  0  0  0
  9101  1  0  0  0  0
  9102  1  0  0  0  0
 10103  1  0  0  0  0
 10104  1  0  0  0  0
 11105  1  0  0  0  0
 11106  1  0  0  0  0
 11107  1  0  0  0  0
 13108  1  0  0  0  0
 14109  1  0  0  0  0
 19110  1  0  0  0  0
 23111  1  0  0  0  0
 23112  1  0  0  0  0
 24113  1  0  0  0  0
 24114  1  0  0  0  0
 25115  1  0  0  0  0
 25116  1  0  0  0  0
 26117  1  0  0  0  0
 26118  1  0  0  0  0
 31119  1  0  0  0  0
 40120  1  0  0  0  0
 40121  1  0  0  0  0
 41122  1  0  0  0  0
 41123  1  0  0  0  0
 41124  1  0  0  0  0
 42125  1  0  0  0  0
 42126  1  0  0  0  0
 43127  1  0  0  0  0
 43128  1  0  0  0  0
 43129  1  0  0  0  0
 45130  1  0  0  0  0
 46131  1  0  0  0  0
 56132  1  0  0  0  0
 56133  1  0  0  0  0
 57134  1  0  0  0  0
 57135  1  0  0  0  0
 57136  1  0  0  0  0
 58137  1  0  0  0  0
 58138  1  0  0  0  0
 59139  1  0  0  0  0
 59140  1  0  0  0  0
 59141  1  0  0  0  0
 61142  1  0  0  0  0
 62143  1  0  0  0  0
 72144  1  0  0  0  0
 72145  1  0  0  0  0
 73146  1  0  0  0  0
 73147  1  0  0  0  0
 73148  1  0  0  0  0
 74149  1  0  0  0  0
 74150  1  0  0  0  0
 75151  1  0  0  0  0
 75152  1  0  0  0  0
 75153  1  0  0  0  0
 77154  1  0  0  0  0
 78155  1  0  0  0  0
 83156  1  0  0  0  0
 87157  1  0  0  0  0
 87158  1  0  0  0  0
 88159  1  0  0  0  0
 88160  1  0  0  0  0
 89161  1  0  0  0  0
 89162  1  0  0  0  0
 90163  1  0  0  0  0
 90164  1  0  0  0  0
 95165  1  0  0  0  0
 96166  1  0  0  0  0
M  END
