
  xtb     03022208593D
 energy: -272.125436673767 gnorm: 0.000605798458 xtb: 6.4.1 (unknown)
130142  0     0  0            999 V2000
    8.4476   -8.6125    4.0055 C   0  0  0  0  0  0  0  0  0  0  0  0
    8.7711   -9.3790    2.9382 C   0  0  0  0  0  0  0  0  0  0  0  0
    9.8865  -10.2566    2.8391 N   0  0  0  0  0  4  0  0  0  0  0  0
   10.0318  -10.8563    1.7948 O   0  0  0  0  0  1  0  0  0  0  0  0
   10.6171  -10.3385    3.8042 O   0  0  0  0  0  0  0  0  0  0  0  0
    7.8055   -9.1624    1.8612 C   0  0  0  0  0  0  0  0  0  0  0  0
    6.8894   -8.2799    2.2984 C   0  0  0  0  0  0  0  0  0  0  0  0
    7.2230   -7.8989    3.6642 C   0  0  0  0  0  0  0  0  0  0  0  0
    6.5511   -7.0616    4.5049 C   0  0  0  0  0  0  0  0  0  0  0  0
    7.0231   -6.5626    5.7806 C   0  0  0  0  0  0  0  0  0  0  0  0
    6.1653   -5.6269    6.2327 C   0  0  0  0  0  0  0  0  0  0  0  0
    5.0726   -5.5103    5.2814 C   0  0  0  0  0  0  0  0  0  0  0  0
    3.9372   -4.7108    5.4944 N   0  0  0  0  0  4  0  0  0  0  0  0
    3.9450   -3.9496    6.4397 O   0  0  0  0  0  1  0  0  0  0  0  0
    2.9940   -4.8256    4.7193 O   0  0  0  0  0  0  0  0  0  0  0  0
    5.2720   -6.3784    4.2363 C   0  0  0  0  0  0  0  0  0  0  0  0
    4.3658   -6.6069    3.1464 C   0  0  0  0  0  0  0  0  0  0  0  0
    3.6454   -7.7610    2.9083 C   0  0  0  0  0  0  0  0  0  0  0  0
    3.7469   -8.9457    3.6615 N   0  0  0  0  0  4  0  0  0  0  0  0
    3.1049   -9.9071    3.2907 O   0  0  0  0  0  1  0  0  0  0  0  0
    4.4765   -8.9295    4.6416 O   0  0  0  0  0  0  0  0  0  0  0  0
    2.7073   -7.5316    1.8405 C   0  0  0  0  0  0  0  0  0  0  0  0
    2.8139   -6.2345    1.4570 C   0  0  0  0  0  0  0  0  0  0  0  0
    3.8499   -5.5994    2.2310 C   0  0  0  0  0  0  0  0  0  0  0  0
    4.3957   -4.3410    2.0516 C   0  0  0  0  0  0  0  0  0  0  0  0
    5.7545   -3.9842    2.2743 C   0  0  0  0  0  0  0  0  0  0  0  0
    6.0052   -2.7966    1.6451 C   0  0  0  0  0  0  0  0  0  0  0  0
    4.7976   -2.3141    1.0593 C   0  0  0  0  0  0  0  0  0  0  0  0
    4.7111   -1.1079    0.3741 N   0  0  0  0  0  4  0  0  0  0  0  0
    5.6788   -0.3739    0.3606 O   0  0  0  0  0  1  0  0  0  0  0  0
    3.6515   -0.8527   -0.2036 O   0  0  0  0  0  0  0  0  0  0  0  0
    3.7541   -3.2039    1.3607 C   0  0  0  0  0  0  0  0  0  0  0  0
    2.3682   -3.0221    1.3156 C   0  0  0  0  0  0  0  0  0  0  0  0
    1.5522   -1.8705    0.2873 S   0  0  0  0  0  0  0  0  0  0  0  0
    0.0294   -2.3774    0.9293 C   0  0  0  0  0  0  0  0  0  0  0  0
   -1.2413   -1.9513    0.5558 C   0  0  0  0  0  0  0  0  0  0  0  0
   -2.3694   -2.6219    1.1160 C   0  0  0  0  0  0  0  0  0  0  0  0
   -2.2777   -3.5807    2.0153 O   0  0  0  0  0  0  0  0  0  0  0  0
   -1.0445   -3.7984    2.7380 C   0  0  0  0  0  0  0  0  0  0  0  0
   -1.1627   -2.9408    4.0244 C   0  0  0  0  0  0  0  0  0  0  0  0
   -0.0480   -3.1452    5.0375 C   0  0  0  0  0  0  0  0  0  0  0  0
   -0.9802   -5.3118    3.0080 C   0  0  0  0  0  0  0  0  0  0  0  0
   -2.1782   -5.8429    3.7856 C   0  0  0  0  0  0  0  0  0  0  0  0
    0.1534   -3.3471    1.9537 C   0  0  0  0  0  0  0  0  0  0  0  0
    1.4606   -3.7082    2.1520 C   0  0  0  0  0  0  0  0  0  0  0  0
   -3.5686   -2.1860    0.5669 C   0  0  0  0  0  0  0  0  0  0  0  0
   -3.4035   -1.1717   -0.3663 C   0  0  0  0  0  0  0  0  0  0  0  0
   -1.6955   -0.7769   -0.6060 S   0  0  0  0  0  0  0  0  0  0  0  0
   -4.3651   -0.5047   -1.1553 C   0  0  0  0  0  0  0  0  0  0  0  0
   -5.5627   -0.9603   -1.7184 C   0  0  0  0  0  0  0  0  0  0  0  0
   -6.3063   -2.1341   -1.4725 N   0  0  0  0  0  4  0  0  0  0  0  0
   -6.1363   -2.7350   -0.4257 O   0  0  0  0  0  1  0  0  0  0  0  0
   -7.1046   -2.4642   -2.3270 O   0  0  0  0  0  0  0  0  0  0  0  0
   -5.9741   -0.0476   -2.7379 C   0  0  0  0  0  0  0  0  0  0  0  0
   -5.0743    0.9761   -2.8192 C   0  0  0  0  0  0  0  0  0  0  0  0
   -4.0833    0.7853   -1.8166 C   0  0  0  0  0  0  0  0  0  0  0  0
   -3.1596    1.7215   -1.3820 C   0  0  0  0  0  0  0  0  0  0  0  0
   -2.7241    1.9224   -0.0353 C   0  0  0  0  0  0  0  0  0  0  0  0
   -2.0407    3.0964    0.0283 C   0  0  0  0  0  0  0  0  0  0  0  0
   -1.9920    3.6877   -1.2810 C   0  0  0  0  0  0  0  0  0  0  0  0
   -1.2447    4.8601   -1.4851 N   0  0  0  0  0  4  0  0  0  0  0  0
   -0.4923    5.1945   -0.5903 O   0  0  0  0  0  1  0  0  0  0  0  0
   -1.3824    5.5138   -2.5139 O   0  0  0  0  0  0  0  0  0  0  0  0
   -2.6570    2.8527   -2.1783 C   0  0  0  0  0  0  0  0  0  0  0  0
   -2.7432    2.8732   -3.5952 C   0  0  0  0  0  0  0  0  0  0  0  0
   -2.5684    1.8018   -4.4717 C   0  0  0  0  0  0  0  0  0  0  0  0
   -2.1600    0.4901   -4.1692 N   0  0  0  0  0  4  0  0  0  0  0  0
   -1.6240    0.2760   -3.0902 O   0  0  0  0  0  1  0  0  0  0  0  0
   -2.3591   -0.3651   -5.0087 O   0  0  0  0  0  0  0  0  0  0  0  0
   -2.7217    2.2590   -5.8198 C   0  0  0  0  0  0  0  0  0  0  0  0
   -2.9101    3.6112   -5.8007 C   0  0  0  0  0  0  0  0  0  0  0  0
   -2.9456    4.0491   -4.4431 C   0  0  0  0  0  0  0  0  0  0  0  0
   -3.2722    5.3003   -3.9608 C   0  0  0  0  0  0  0  0  0  0  0  0
   -4.2128    5.4769   -2.8805 C   0  0  0  0  0  0  0  0  0  0  0  0
   -4.7287    6.7318   -2.9514 C   0  0  0  0  0  0  0  0  0  0  0  0
   -4.0337    7.4527   -3.9749 C   0  0  0  0  0  0  0  0  0  0  0  0
   -4.4536    8.7286   -4.4092 N   0  0  0  0  0  4  0  0  0  0  0  0
   -5.1499    9.3736   -3.6508 O   0  0  0  0  0  1  0  0  0  0  0  0
   -4.1319    9.0869   -5.5302 O   0  0  0  0  0  0  0  0  0  0  0  0
   -3.0631    6.6247   -4.5627 C   0  0  0  0  0  0  0  0  0  0  0  0
   -1.9557    7.1429   -5.2722 C   0  0  0  0  0  0  0  0  0  0  0  0
   -1.0983    6.6866   -6.2677 C   0  0  0  0  0  0  0  0  0  0  0  0
   -0.7389    5.3804   -6.6818 N   0  0  0  0  0  4  0  0  0  0  0  0
   -0.4647    5.2295   -7.8568 O   0  0  0  0  0  1  0  0  0  0  0  0
   -0.6754    4.5057   -5.8379 O   0  0  0  0  0  0  0  0  0  0  0  0
   -0.4642    7.8088   -6.9048 C   0  0  0  0  0  0  0  0  0  0  0  0
   -0.8354    8.9587   -6.2815 C   0  0  0  0  0  0  0  0  0  0  0  0
   -1.6381    8.5926   -5.1507 C   0  0  0  0  0  0  0  0  0  0  0  0
   -1.7164    9.3230   -3.9951 C   0  0  0  0  0  0  0  0  0  0  0  0
   -2.0011    8.8453   -2.6409 C   0  0  0  0  0  0  0  0  0  0  0  0
   -2.0245    9.9052   -1.8130 C   0  0  0  0  0  0  0  0  0  0  0  0
   -1.7698   11.1006   -2.6085 C   0  0  0  0  0  0  0  0  0  0  0  0
   -1.7475   12.4191   -2.0769 N   0  0  0  0  0  4  0  0  0  0  0  0
   -1.9660   12.5458   -0.8902 O   0  0  0  0  0  1  0  0  0  0  0  0
   -1.5021   13.3264   -2.8447 O   0  0  0  0  0  0  0  0  0  0  0  0
   -1.5291   10.7564   -3.9003 C   0  0  0  0  0  0  0  0  0  0  0  0
    8.9625   -8.5719    4.9445 H   0  0  0  0  0  0  0  0  0  0  0  0
    7.8676   -9.6476    0.9062 H   0  0  0  0  0  0  0  0  0  0  0  0
    6.0629   -7.8849    1.7415 H   0  0  0  0  0  0  0  0  0  0  0  0
    7.9323   -6.8787    6.2512 H   0  0  0  0  0  0  0  0  0  0  0  0
    6.2186   -5.0527    7.1378 H   0  0  0  0  0  0  0  0  0  0  0  0
    2.0503   -8.2868    1.4547 H   0  0  0  0  0  0  0  0  0  0  0  0
    2.2903   -5.7611    0.6499 H   0  0  0  0  0  0  0  0  0  0  0  0
    6.4822   -4.6127    2.7508 H   0  0  0  0  0  0  0  0  0  0  0  0
    6.9449   -2.2824    1.5703 H   0  0  0  0  0  0  0  0  0  0  0  0
   -1.1879   -1.8917    3.7146 H   0  0  0  0  0  0  0  0  0  0  0  0
   -2.1267   -3.1741    4.4778 H   0  0  0  0  0  0  0  0  0  0  0  0
    0.9249   -2.9181    4.6118 H   0  0  0  0  0  0  0  0  0  0  0  0
   -0.2097   -2.4814    5.8831 H   0  0  0  0  0  0  0  0  0  0  0  0
   -0.0295   -4.1649    5.4086 H   0  0  0  0  0  0  0  0  0  0  0  0
   -0.0582   -5.5295    3.5446 H   0  0  0  0  0  0  0  0  0  0  0  0
   -0.9320   -5.8115    2.0381 H   0  0  0  0  0  0  0  0  0  0  0  0
   -2.1302   -6.9278    3.8230 H   0  0  0  0  0  0  0  0  0  0  0  0
   -2.1840   -5.4702    4.8056 H   0  0  0  0  0  0  0  0  0  0  0  0
   -3.1059   -5.5554    3.2992 H   0  0  0  0  0  0  0  0  0  0  0  0
    1.7994   -4.3824    2.9156 H   0  0  0  0  0  0  0  0  0  0  0  0
   -4.5282   -2.5828    0.8426 H   0  0  0  0  0  0  0  0  0  0  0  0
   -6.8653   -0.1806   -3.3217 H   0  0  0  0  0  0  0  0  0  0  0  0
   -5.1598    1.8433   -3.4451 H   0  0  0  0  0  0  0  0  0  0  0  0
   -3.0084    1.3067    0.7957 H   0  0  0  0  0  0  0  0  0  0  0  0
   -1.6019    3.5530    0.8951 H   0  0  0  0  0  0  0  0  0  0  0  0
   -2.6561    1.6180   -6.6783 H   0  0  0  0  0  0  0  0  0  0  0  0
   -3.1290    4.2352   -6.6464 H   0  0  0  0  0  0  0  0  0  0  0  0
   -4.5600    4.6789   -2.2523 H   0  0  0  0  0  0  0  0  0  0  0  0
   -5.5345    7.1462   -2.3754 H   0  0  0  0  0  0  0  0  0  0  0  0
    0.2092    7.6999   -7.7351 H   0  0  0  0  0  0  0  0  0  0  0  0
   -0.4856    9.9488   -6.4957 H   0  0  0  0  0  0  0  0  0  0  0  0
   -2.0526    7.8097   -2.3712 H   0  0  0  0  0  0  0  0  0  0  0  0
   -2.1835    9.9236   -0.7526 H   0  0  0  0  0  0  0  0  0  0  0  0
   -1.3424   11.4239   -4.7178 H   0  0  0  0  0  0  0  0  0  0  0  0
  1  2  2  0  0  0  0
  2  3  1  0  0  0  0
  3  4  1  0  0  0  0
  3  5  2  0  0  0  0
  2  6  1  0  0  0  0
  6  7  2  0  0  0  0
  7  8  1  0  0  0  0
  8  9  2  0  0  0  0
  9 10  1  0  0  0  0
 10 11  2  0  0  0  0
 11 12  1  0  0  0  0
 12 13  1  0  0  0  0
 13 14  1  0  0  0  0
 13 15  2  0  0  0  0
 12 16  2  0  0  0  0
 16 17  1  0  0  0  0
 17 18  2  0  0  0  0
 18 19  1  0  0  0  0
 19 20  1  0  0  0  0
 19 21  2  0  0  0  0
 18 22  1  0  0  0  0
 22 23  2  0  0  0  0
 23 24  1  0  0  0  0
 24 25  2  0  0  0  0
 25 26  1  0  0  0  0
 26 27  2  0  0  0  0
 27 28  1  0  0  0  0
 28 29  1  0  0  0  0
 29 30  1  0  0  0  0
 29 31  2  0  0  0  0
 28 32  2  0  0  0  0
 32 33  1  0  0  0  0
 33 34  1  0  0  0  0
 34 35  1  0  0  0  0
 35 36  1  0  0  0  0
 36 37  2  0  0  0  0
 37 38  1  0  0  0  0
 38 39  1  0  0  0  0
 39 40  1  0  0  0  0
 40 41  1  0  0  0  0
 39 42  1  0  0  0  0
 42 43  1  0  0  0  0
 39 44  1  0  0  0  0
 44 45  1  0  0  0  0
 37 46  1  0  0  0  0
 46 47  2  0  0  0  0
 47 48  1  0  0  0  0
 47 49  1  0  0  0  0
 49 50  2  0  0  0  0
 50 51  1  0  0  0  0
 51 52  1  0  0  0  0
 51 53  2  0  0  0  0
 50 54  1  0  0  0  0
 54 55  2  0  0  0  0
 55 56  1  0  0  0  0
 56 57  2  0  0  0  0
 57 58  1  0  0  0  0
 58 59  2  0  0  0  0
 59 60  1  0  0  0  0
 60 61  1  0  0  0  0
 61 62  1  0  0  0  0
 61 63  2  0  0  0  0
 60 64  2  0  0  0  0
 64 65  1  0  0  0  0
 65 66  2  0  0  0  0
 66 67  1  0  0  0  0
 67 68  1  0  0  0  0
 67 69  2  0  0  0  0
 66 70  1  0  0  0  0
 70 71  2  0  0  0  0
 71 72  1  0  0  0  0
 72 73  2  0  0  0  0
 73 74  1  0  0  0  0
 74 75  2  0  0  0  0
 75 76  1  0  0  0  0
 76 77  1  0  0  0  0
 77 78  1  0  0  0  0
 77 79  2  0  0  0  0
 76 80  2  0  0  0  0
 80 81  1  0  0  0  0
 81 82  2  0  0  0  0
 82 83  1  0  0  0  0
 83 84  1  0  0  0  0
 83 85  2  0  0  0  0
 82 86  1  0  0  0  0
 86 87  2  0  0  0  0
 87 88  1  0  0  0  0
 88 89  2  0  0  0  0
 89 90  1  0  0  0  0
 90 91  2  0  0  0  0
 91 92  1  0  0  0  0
 92 93  1  0  0  0  0
 93 94  1  0  0  0  0
 93 95  2  0  0  0  0
 92 96  2  0  0  0  0
  8  1  1  0  0  0  0
 16  9  1  0  0  0  0
 24 17  1  0  0  0  0
 32 25  1  0  0  0  0
 45 33  2  0  0  0  0
 56 49  1  0  0  0  0
 64 57  1  0  0  0  0
 72 65  1  0  0  0  0
 80 73  1  0  0  0  0
 88 81  1  0  0  0  0
 96 89  1  0  0  0  0
 44 35  2  0  0  0  0
 48 36  1  0  0  0  0
  1 97  1  0  0  0  0
  6 98  1  0  0  0  0
  7 99  1  0  0  0  0
 10100  1  0  0  0  0
 11101  1  0  0  0  0
 22102  1  0  0  0  0
 23103  1  0  0  0  0
 26104  1  0  0  0  0
 27105  1  0  0  0  0
 40106  1  0  0  0  0
 40107  1  0  0  0  0
 41108  1  0  0  0  0
 41109  1  0  0  0  0
 41110  1  0  0  0  0
 42111  1  0  0  0  0
 42112  1  0  0  0  0
 43113  1  0  0  0  0
 43114  1  0  0  0  0
 43115  1  0  0  0  0
 45116  1  0  0  0  0
 46117  1  0  0  0  0
 54118  1  0  0  0  0
 55119  1  0  0  0  0
 58120  1  0  0  0  0
 59121  1  0  0  0  0
 70122  1  0  0  0  0
 71123  1  0  0  0  0
 74124  1  0  0  0  0
 75125  1  0  0  0  0
 86126  1  0  0  0  0
 87127  1  0  0  0  0
 90128  1  0  0  0  0
 91129  1  0  0  0  0
 96130  1  0  0  0  0
M  CHG  1   3   1
M  CHG  1   4  -1
M  CHG  1  13   1
M  CHG  1  14  -1
M  CHG  1  19   1
M  CHG  1  20  -1
M  CHG  1  29   1
M  CHG  1  30  -1
M  CHG  1  51   1
M  CHG  1  52  -1
M  CHG  1  61   1
M  CHG  1  62  -1
M  CHG  1  67   1
M  CHG  1  68  -1
M  CHG  1  77   1
M  CHG  1  78  -1
M  CHG  1  83   1
M  CHG  1  84  -1
M  CHG  1  93   1
M  CHG  1  94  -1
M  END
