100

C          4.78910        6.73790        8.17310
S          5.07040        6.85800        6.46870
C          4.02510        5.48460        6.13760
C          3.51960        5.00060        7.31210
C          3.95280        5.71290        8.45730
C          3.34620        5.13390        9.69400
C          2.84730        3.75630        9.21420
C          2.60680        3.88500        7.69660
C          3.82210        5.04100        4.80140
S          2.72130        3.73260        4.44440
C          3.08690        3.85700        2.75840
C          2.56650        3.09250        1.68950
C          2.90630        3.44620        0.39250
O          3.68150        4.50340        0.08070
C          4.51710        5.09390        1.09670
C          4.56220        6.59320        0.76130
C          3.22010        7.27540        1.00100
C          5.91570        4.43480        1.01070
C          6.57490        4.57580       -0.35570
C          3.99790        4.86070        2.49430
C          4.41150        5.52360        3.65570
C          2.30410        2.62860       -0.57480
C          1.50690        1.64830       -0.02390
S          1.49860        1.73360        1.71820
C          0.75780        0.64630       -0.69760
S         -0.43880       -0.30030        0.16700
C         -0.85800       -1.21740       -1.26830
C         -0.09180       -0.79210       -2.32490
C          0.80350        0.24510       -2.01070
C          1.59330        0.64380       -3.21430
C          1.34480       -0.52270       -4.19150
C          0.01670       -1.17690       -3.76310
C         -1.86880       -2.21340       -1.22430
S         -2.33860       -3.08740       -2.67090
C         -3.54830       -4.01860       -1.80460
C         -3.55720       -3.65000       -0.48560
C         -2.62040       -2.64860       -0.16300
C         -2.66180       -2.32740        1.29380
C         -3.42140       -3.53200        1.88130
C         -4.29240       -4.09110        0.73930
C         -4.31100       -5.00250       -2.50560
S         -3.58960       -5.83090       -3.87540
C         -5.03570       -6.78100       -4.15610
C         -5.99140       -6.44320       -3.23600
C         -5.58900       -5.45420       -2.31440
C         -6.71370       -5.11870       -1.38780
C         -7.93910       -5.71260       -2.10930
C         -7.40450       -6.85710       -2.99070
C         -5.08230       -7.73810       -5.20930
S         -6.46970       -8.79820       -5.40610
C         -5.75510       -9.58090       -6.77500
C         -4.53880       -9.05780       -7.05430
C         -4.15450       -8.01720       -6.17380
C         -2.80680       -7.48910       -6.53610
C         -2.59590       -8.04450       -7.95860
C         -3.46660       -9.31210       -8.06340
H          5.26830        7.43610        8.82940
H          2.51170        5.75910       10.02290
H          4.05420        5.05570       10.51860
H          1.95150        3.43730        9.74490
H          3.62680        3.01330        9.38960
H          1.57020        4.15830        7.48010
H          2.82190        2.95880        7.16310
H          4.82560        6.68900       -0.29200
H          5.33980        7.06820        1.35990
H          2.95290        7.25030        2.05500
H          2.44050        6.77180        0.43410
H          3.26570        8.31350        0.68080
H          6.55040        4.86790        1.78540
H          5.78640        3.37290        1.23930
H          5.87930        4.27740       -1.13630
H          6.88570        5.60120       -0.53680
H          7.45370        3.93760       -0.41040
H          5.12140        6.33100        3.67870
H          2.43520        2.77240       -1.62960
H          2.65310        0.77800       -2.99670
H          1.20670        1.58360       -3.61880
H          1.32060       -0.18920       -5.22770
H          2.15040       -1.25110       -4.09010
H          0.02080       -2.25680       -3.91150
H         -0.82920       -0.76930       -4.32320
H         -3.20710       -1.39370        1.45610
H         -1.66970       -2.21060        1.72950
H         -4.01480       -3.25810        2.75210
H         -2.70130       -4.29210        2.18770
H         -5.28990       -3.64570        0.76140
H         -4.40060       -5.17380        0.79430
H         -6.56380       -5.60530       -0.42090
H         -6.81210       -4.04690       -1.21920
H         -8.38340       -4.94840       -2.74870
H         -8.70090       -6.05330       -1.40990
H         -7.42870       -7.81320       -2.46070
H         -7.97590       -6.97410       -3.91140
H         -6.29580      -10.36440       -7.26650
H         -2.75480       -6.40060       -6.50350
H         -2.05580       -7.87680       -5.84210
H         -2.94820       -7.30910       -8.68330
H         -1.54710       -8.24880       -8.16740
H         -3.85630       -9.46740       -9.06930
H         -2.89780      -10.20210       -7.78010
