150

C         -0.44780       10.90340       -6.63300
C          0.14380       11.02200       -5.38280
C         -0.04590       10.06200       -4.40260
O          0.51220       10.11470       -3.15570
C          1.44760       11.12950       -2.86480
C          1.97180       10.87830       -1.45870
C         -0.85000        8.94190       -4.69100
C         -1.43560        8.83930       -5.93900
C         -1.24710        9.80880       -6.92290
O         -1.90860        9.58740       -8.09900
C         -1.65410       10.42150       -9.20800
C         -0.30490       10.13750       -9.86350
C         -1.05780        7.89020       -3.68110
C         -1.44760        8.23150       -2.39410
C         -1.63750        7.28830       -1.39620
O         -1.97550        7.60060       -0.10830
C         -2.11350        8.95130        0.27940
C         -3.47530        9.53540       -0.08880
C         -1.44210        5.92650       -1.70440
C         -1.05420        5.59110       -3.00480
C         -0.85400        6.53600       -3.99440
O         -0.42310        6.26080       -5.25900
C         -0.26460        4.92140       -5.67450
C         -1.59380        4.23720       -5.98420
C         -1.59160        4.87080       -0.73040
S         -0.97620        3.27010       -1.09240
C         -1.45410        2.69440        0.46160
C         -1.33270        1.38790        0.99110
C         -1.97200        1.09440        2.18240
O         -2.72870        1.98940        2.85600
C         -2.47040        3.39430        2.64110
C         -3.79070        4.10290        2.98220
C         -4.27230        3.84300        4.40460
C         -1.29940        3.77880        3.57660
C         -0.96300        5.26280        3.60240
C         -2.06820        3.67690        1.21180
C         -2.14480        4.89840        0.52700
C         -1.80880       -0.24300        2.58110
C         -1.04570       -0.97850        1.70850
S         -0.51970        0.00320        0.35860
C         -0.63250       -2.36120        1.77210
C         -0.17600       -2.98010        0.60520
C          0.26800       -4.28910        0.58080
O          0.75020       -4.92940       -0.52510
C          0.75820       -4.26960       -1.77270
C         -0.61760       -4.24120       -2.43540
C          0.26740       -5.02190        1.77950
C         -0.19100       -4.41570        2.94010
C         -0.64230       -3.10480        2.96910
O         -1.07000       -2.46830        4.09760
C         -0.98580       -3.11740        5.34930
C         -2.16190       -4.05580        5.61030
C          0.74840       -6.41280        1.81900
C          0.25000       -7.34340        0.91590
C          0.67640       -8.66270        0.91510
O          0.19810       -9.62130        0.06660
C         -0.81720       -9.27730       -0.85010
C         -1.15670      -10.52970       -1.64450
C          1.64570       -9.06430        1.84650
C          2.14880       -8.13050        2.74180
C          1.70800       -6.81610        2.75840
O          2.17900       -5.85180        3.61050
C          2.98750       -6.22800        4.70290
C          2.21010       -6.97490        5.78520
C          2.14420      -10.45080        1.88310
C          2.56780      -11.05620        0.70690
C          3.04880      -12.35800        0.70080
O          3.48240      -13.02840       -0.40620
C          3.37710      -12.39380       -1.66340
C          3.85160      -13.37990       -2.71970
C          3.10920      -13.05390        1.90380
C          2.69310      -12.46310        3.08080
C          2.20530      -11.16170        3.09220
O          1.73130      -10.51530        4.20540
C          1.85410      -11.11920        5.47360
C          3.27520      -11.04570        6.02870
H         -0.26820       11.68320       -7.35620
H          0.76070       11.88670       -5.19360
H          0.96930       12.11880       -2.91760
H          2.27530       11.10230       -3.58760
H          1.15880       10.93970       -0.74020
H          2.40770        9.88480       -1.40130
H          2.72650       11.61770       -1.20580
H         -2.06050        7.99320       -6.17110
H         -1.73500       11.47960       -8.92730
H         -2.46160       10.19260       -9.90960
H         -0.17970       10.77000      -10.73830
H          0.50950       10.32680       -9.16860
H         -0.25780        9.09540      -10.16920
H         -1.59490        9.27830       -2.19170
H         -1.30010        9.55840       -0.13480
H         -2.00580        8.93140        1.36900
H         -4.26550        8.93470        0.35510
H         -3.55170       10.55240        0.28680
H         -3.61720        9.54370       -1.16630
H         -0.89940        4.54410       -3.21260
H          0.33310        4.99520       -6.58780
H          0.30680        4.34600       -4.93540
H         -1.41140        3.22870       -6.34550
H         -2.12560        4.79680       -6.74970
H         -2.22030        4.18600       -5.09740
H         -3.67120        5.17310        2.81900
H         -4.54130        3.73610        2.27830
H         -4.29810        2.77460        4.59860
H         -5.27490        4.24510        4.53280
H         -3.62010        4.31640        5.13390
H         -1.54480        3.43040        4.58140
H         -0.42310        3.21600        3.24100
H         -0.74500        5.62680        2.60130
H         -1.78400        5.84440        4.01360
H         -0.08590        5.42710        4.22480
H         -2.59610        5.78350        0.92820
H         -2.24690       -0.64620        3.47200
H         -0.17460       -2.38360       -0.29340
H          1.44890       -4.85920       -2.38320
H          1.16450       -3.25540       -1.67760
H         -0.98590       -5.25580       -2.56720
H         -0.54580       -3.76310       -3.40840
H         -1.33110       -3.69330       -1.82530
H         -0.17990       -5.01080        3.83700
H         -1.00220       -2.30080        6.07840
H         -0.03040       -3.64650        5.44690
H         -2.07930       -4.47770        6.60860
H         -2.18600       -4.86470        4.88470
H         -3.09560       -3.50360        5.53730
H         -0.49450       -7.00590        0.21460
H         -1.70720       -8.91590       -0.31550
H         -0.46800       -8.48270       -1.52540
H         -1.46910      -11.32050       -0.96810
H         -1.95870      -10.31970       -2.34660
H         -0.28300      -10.87110       -2.19330
H          2.91220       -8.46450        3.42390
H          3.35990       -5.27810        5.09850
H          3.84990       -6.81890        4.36880
H          1.80120       -7.90240        5.39190
H          2.86760       -7.19900        6.62140
H          1.38750       -6.35940        6.14230
H          2.51550      -10.47780       -0.19980
H          3.99970      -11.48790       -1.68480
H          2.33360      -12.10520       -1.85260
H          4.88240      -13.66320       -2.52490
H          3.78510      -12.92870       -3.70570
H          3.23680      -14.27530       -2.69320
H          3.48560      -14.06460        1.90180
H          2.74940      -13.04350        3.98810
H          1.49860      -12.15680        5.45150
H          1.17830      -10.54330        6.11360
H          3.30650      -11.49110        7.01940
H          3.97090      -11.57330        5.38090
H          3.59160      -10.00780        6.09890
