118

C          2.72030       -6.19760        2.19540
S          2.94440       -6.29450        0.49400
C          1.99610       -4.92010        0.22880
C          1.51210       -4.39230        1.40450
N          0.70700       -3.24300        1.42530
O          0.23770       -2.87630        2.49660
O          0.51360       -2.66580        0.36670
C          1.93150       -5.13640        2.56670
N          1.56540       -4.78390        3.82850
C          2.05820       -5.30330        4.99170
C          1.68560       -4.84110        6.19950
C          2.19750       -5.32980        7.44450
S          2.80600       -6.96580        7.55880
C          3.08370       -6.83150        9.22420
C          2.74600       -5.58730        9.70140
N          2.89590       -5.25950       11.06230
O          2.47830       -4.17040       11.44680
O          3.42820       -6.07630       11.78980
C          2.25620       -4.69730        8.68330
N          1.95380       -3.39540        8.95560
C          1.85240       -2.39780        8.03420
C          1.42300       -1.14180        8.26690
C          1.25190       -0.21990        7.19370
S          1.35500       -0.77760        5.53500
C          0.93840        0.79210        4.95530
C          0.82460        1.20920        3.61410
C          0.70470        2.56780        3.34830
O          0.70690        3.50390        4.31900
C          0.31130        3.10680        5.65290
C         -1.23500        3.18990        5.68320
C         -1.88390        2.82480        7.01040
C          0.96140        4.14290        6.57950
C          2.48360        4.08470        6.52560
C          0.75040        1.70070        5.98010
C          0.92360        1.11760        7.24280
C          0.64550        2.84780        1.97740
C          0.69440        1.70850        1.20080
S          0.83340        0.26600        2.17160
C          0.62000        1.57820       -0.20750
S          0.59830        2.96260       -1.27060
C          0.51490        1.92030       -2.65070
C          0.39950        2.27370       -4.01390
C          0.12820        1.26980       -4.93460
O         -0.04230       -0.02380       -4.60630
C          0.50270       -0.49850       -3.35230
C         -0.41100       -1.66000       -2.92810
C         -0.44420       -2.81070       -3.92690
C          1.96150       -0.92260       -3.63650
C          2.68130       -1.54440       -2.44890
C          0.49760        0.58060       -2.29770
C          0.55720        0.39630       -0.91650
C         -0.02630        1.75190       -6.24080
C          0.11100        3.12080       -6.32520
S          0.47740        3.82530       -4.77100
C          0.00610        3.92500       -7.50090
S          0.99610        5.35040       -7.70260
C          0.47180        5.57240       -9.29920
C         -0.43570        4.61280       -9.68350
N         -1.00330        4.59430      -10.97310
O         -1.69150        3.62830      -11.28310
O         -0.77790        5.53400      -11.70940
C         -0.74190        3.67260       -8.64500
N         -1.68760        2.69670       -8.77680
C         -2.45650        2.24230       -7.73330
C         -3.12930        1.07740       -7.68650
C         -3.18600        0.03980       -8.66910
S         -2.74460        0.29200      -10.34380
C         -3.25670       -1.25550      -10.79480
C         -3.73290       -1.97310       -9.72160
N         -4.20960       -3.28830       -9.87680
O         -4.75880       -3.82530       -8.92070
O         -4.05420       -3.82620      -10.95650
C         -3.67030       -1.25230       -8.47960
N         -4.02820       -1.82610       -7.29770
C         -3.54160       -1.54260       -6.03970
C         -4.00940       -2.13180       -4.94520
H          3.17650       -6.93590        2.82070
H          1.81320       -4.54520       -0.75810
H          0.93670       -3.98300        3.88600
H          2.79190       -6.08960        4.89560
H          0.94180       -4.05840        6.24680
H          3.47530       -7.64710        9.79830
H          1.90350       -3.16470        9.94760
H          2.16320       -2.66240        7.03550
H          1.15940       -0.80820        9.25990
H         -1.60890        2.51700        4.90570
H         -1.51280        4.20780        5.40110
H         -1.61980        1.81220        7.30550
H         -1.58270        3.50990        7.79830
H         -2.96540        2.87930        6.91100
H          0.61900        3.97480        7.59960
H          0.62440        5.13000        6.25940
H          2.82590        4.23930        5.50560
H          2.91000        4.86030        7.15680
H          2.84610        3.11860        6.87010
H          0.81550        1.64510        8.17320
H          0.56320        3.83820        1.56950
H         -1.41670       -1.24620       -2.82660
H         -0.10110       -2.02210       -1.94960
H         -1.21830       -3.51910       -3.64260
H          0.50570       -3.33810       -3.95270
H         -0.66760       -2.43980       -4.92320
H          1.94730       -1.61950       -4.47570
H          2.50380       -0.02950       -3.96160
H          2.76620       -0.83300       -1.63170
H          2.14780       -2.41710       -2.08490
H          3.68270       -1.84800       -2.74550
H          0.54570       -0.55970       -0.42620
H         -0.20680        1.11330       -7.08360
H          0.83670        6.37760       -9.90500
H         -1.96590        2.49840       -9.73460
H         -2.48650        2.89740       -6.87370
H         -3.71710        0.89470       -6.79980
H         -3.20310       -1.59110      -11.81100
H         -4.56140       -2.68830       -7.39340
H         -2.72610       -0.83520       -5.99870
H         -3.59450       -1.91510       -3.98030
H         -4.81470       -2.84460       -4.98650
