198

C         11.64060      -13.55450       11.33630
S         10.03750      -12.93290       11.43240
C         10.43320      -11.70320       10.28350
C          9.62660      -10.62070        9.85130
C         10.24370       -9.57260        9.18590
O         11.56370       -9.55750        8.90690
C         12.24690      -10.83280        8.80040
C         13.72070      -10.42870        9.00660
C         14.79520      -11.31870        8.39700
C         11.92910      -11.37850        7.38500
C         12.10850      -12.87970        7.19500
C         11.74320      -11.78710        9.85680
C         12.42610      -12.85360       10.47530
C          9.36900       -8.51710        8.89470
C          8.08240       -8.75790        9.32400
S          7.94590      -10.31360       10.10580
C          6.94140       -7.93050        9.16780
S          7.05820       -6.39960        8.33640
C          5.36810       -6.12180        8.57360
C          4.58020       -5.06650        8.06320
C          3.19650       -5.18400        8.12770
O          2.56400       -6.22250        8.70170
C          3.29700       -7.05530        9.62830
C          3.15810       -6.38420       11.01680
C          3.84520       -7.11650       12.16050
C          2.59170       -8.41750        9.57500
C          2.68640       -9.06000        8.19600
C          4.75570       -7.15570        9.26170
C          5.65240       -8.17500        9.59330
C          2.53230       -4.14900        7.45650
C          3.39690       -3.23650        6.89370
S          5.06360       -3.64980        7.20080
C          3.07560       -2.11600        6.08240
C          3.93510       -1.21170        5.52610
C          3.30490       -0.29620        4.65220
C          3.90220        0.68800        3.84440
C          5.34140        0.89810        3.84620
S          6.01920        2.46660        4.16440
C          7.64030        1.88640        3.99320
C          8.80510        2.80690        4.10670
C          9.11070        3.46550        2.75940
C          7.63850        0.55740        3.69180
Cl         9.06130       -0.36670        3.43500
C          6.33730       -0.00820        3.61270
Cl         6.06700       -1.64940        3.18690
C          3.06480        1.41580        3.01320
C          1.66440        1.21320        2.95380
C          1.06070        0.25520        3.78850
C         -0.37540        0.02870        3.77320
S         -1.23170       -0.32480        2.30100
C         -2.74880       -0.46250        3.12080
C         -3.99530       -0.82140        2.39010
C         -4.19040       -2.33920        2.35360
C         -2.58370       -0.25420        4.45730
C         -1.24220        0.02640        4.83070
Cl        -0.79730        0.40560        6.44140
Cl        -3.86570       -0.30510        5.59640
C          1.90130       -0.49050        4.60310
S          1.41360       -1.82650        5.60600
C          1.05490        2.02540        1.97020
C          1.93850        2.79540        1.26930
S          3.58480        2.60010        1.84540
C          1.66320        3.59540        0.12900
S          0.06370        3.59380       -0.56990
C          0.62530        4.54930       -1.89300
C         -0.11080        4.99660       -3.01060
C          0.49430        5.87710       -3.89820
O          1.73060        6.37720       -3.70480
C          2.66140        5.60580       -2.91060
C          3.66170        6.63050       -2.35330
C          4.39680        7.41540       -3.43320
C          3.29550        4.56960       -3.86900
C          4.41660        3.73340       -3.26990
C          1.96790        4.87310       -1.78460
C          2.54520        4.33340       -0.63120
C         -0.33520        6.22430       -4.97230
C         -1.56870        5.60730       -4.91370
S         -1.71480        4.59340       -3.50300
C         -2.62690        5.66020       -5.85980
S         -4.19020        4.98760       -5.47810
C         -4.76490        5.37570       -7.05850
C         -5.99460        5.00120       -7.64500
C         -6.10180        5.05420       -9.02920
O         -5.11580        5.52140       -9.81970
C         -4.15780        6.44100       -9.23400
C         -2.97340        6.34680      -10.21620
C         -2.03080        7.53920      -10.30660
C         -4.84590        7.82850       -9.19850
C         -4.27090        8.82440       -8.19850
C         -3.80000        5.99920       -7.83470
C         -2.59380        6.15700       -7.14760
C         -7.30280        4.50830       -9.50270
C         -8.12110        4.06510       -8.48780
S         -7.40200        4.31580       -6.91830
C         -9.40760        3.46870       -8.58900
C        -10.25460        3.15280       -7.56670
C        -11.46590        2.55940       -7.99580
C        -12.54980        2.13540       -7.20910
C        -12.54710        2.32070       -5.76690
S        -12.29680        3.89420       -5.06810
C        -12.45330        3.29050       -3.45370
C        -12.27830        4.18670       -2.27780
C        -10.79410        4.41860       -1.98420
C        -12.67600        1.94650       -3.47210
Cl       -12.87200        0.98880       -2.06190
C        -12.73660        1.39410       -4.78050
Cl       -12.93920       -0.28410       -5.05960
C        -13.62280        1.55380       -7.87390
C        -13.65270        1.37580       -9.27800
C        -12.57910        1.82140      -10.06540
C        -12.60140        1.69450      -11.51440
S        -11.32300        0.88890      -12.37280
C        -12.07600        1.16230      -13.90660
C        -11.47970        0.63410      -15.16440
C        -11.91260       -0.81350      -15.40950
C        -13.24950        1.83660      -13.74550
C        -13.54880        2.14360      -12.39100
Cl       -14.92920        3.05470      -11.93090
Cl       -14.27820        2.29110      -15.04210
C        -11.50430        2.39570       -9.40170
S        -10.06810        3.03380      -10.15430
C        -14.85130        0.72980       -9.69930
C        -15.69580        0.47800       -8.67860
S        -15.09410        0.98470       -7.13910
H         11.90410      -14.40980       11.92520
H         13.89060      -10.33630       10.08170
H         13.81440       -9.42900        8.57600
H         14.77010      -12.32550        8.80350
H         14.69640      -11.37620        7.31700
H         15.77050      -10.89210        8.62220
H         10.88150      -11.13510        7.18460
H         12.53250      -10.82760        6.66190
H         11.44760      -13.43410        7.85680
H         13.12880      -13.19270        7.38900
H         11.85960      -13.14270        6.16920
H         13.45520      -13.10180       10.29710
H          9.66610       -7.61490        8.39280
H          2.09130       -6.28260       11.22700
H          3.57680       -5.37710       10.93240
H          3.39970       -8.09340       12.32710
H          3.74150       -6.53770       13.07510
H          4.90550       -7.24590       11.95750
H          3.02940       -9.07670       10.32300
H          1.54270       -8.25530        9.82760
H          2.25720       -8.40000        7.44640
H          2.14090      -10.00020        8.18420
H          3.72280       -9.25760        7.93110
H          5.39280       -9.07370       10.12310
H          1.46330       -4.07830        7.37490
H          4.99020       -1.21980        5.73010
H          9.67370        2.23600        4.44020
H          8.58590        3.57790        4.84710
H          9.95370        4.14410        2.85800
H          8.24710        4.02720        2.41100
H          9.35580        2.70910        2.01820
H         -4.84440       -0.35770        2.89640
H         -3.94080       -0.43560        1.37090
H         -4.25550       -2.73450        3.36410
H         -3.35440       -2.81540        1.84700
H         -5.10640       -2.58460        1.82320
H          0.00110        2.02510        1.75920
H          4.37810        6.11570       -1.71480
H          3.09370        7.32530       -1.73050
H          3.68420        7.85170       -4.12720
H          4.97230        8.21650       -2.97570
H          5.08150        6.77810       -3.98630
H          3.65880        5.10960       -4.74480
H          2.49140        3.90710       -4.20360
H          5.25620        4.35550       -2.97190
H          4.06710        3.17850       -2.40290
H          4.77000        3.01880       -4.00960
H          3.57420        4.44970       -0.34250
H         -0.04030        6.90290       -5.74980
H         -3.41830        6.18130      -11.20000
H         -2.40420        5.44990       -9.96210
H         -1.54120        7.74460       -9.35930
H         -2.55390        8.43460      -10.62920
H         -1.25900        7.31880      -11.04100
H         -4.82800        8.24620      -10.20610
H         -5.89390        7.65390       -8.93860
H         -4.81590        9.76250       -8.27410
H         -3.22110        9.02380       -8.38530
H         -4.37360        8.45380       -7.18160
H         -1.70820        6.59630       -7.56400
H         -7.56070        4.43830      -10.54320
H        -10.00980        3.34040       -6.53700
H        -12.75670        3.72480       -1.41260
H        -12.76220        5.14490       -2.47580
H        -10.30830        4.88390       -2.83860
H        -10.68170        5.06920       -1.12120
H        -10.29890        3.47380       -1.77500
H        -11.80710        1.25920      -15.99720
H        -10.39170        0.68120      -15.09620
H        -11.47370       -1.18340      -16.33220
H        -12.99490       -0.87450      -15.48960
H        -11.58780       -1.44810      -14.58850
H        -15.05480        0.46530      -10.72030
H        -16.65930        0.00880       -8.72160
