75

C          0.01940      -12.46590       -6.85920
C         -1.05750      -12.41430       -5.98700
C         -1.22740      -11.27930       -5.21360
C         -0.31940      -10.22960       -5.34270
C          0.72800      -10.39990       -6.25400
N          0.89310      -11.48050       -6.98840
C         -0.41980       -8.98720       -4.57190
C         -1.63470       -8.51100       -4.07050
C         -1.64830       -7.32330       -3.37080
C         -0.45590       -6.62080       -3.17590
C          0.70190       -7.19080       -3.71230
N          0.71880       -8.31920       -4.38520
C         -0.46130       -5.36260       -2.43180
C          0.57500       -4.42640       -2.51080
C          0.48820       -3.26780       -1.77170
C         -0.62660       -3.03890       -0.95600
C         -1.61220       -4.03830       -0.96340
N         -1.53310       -5.14050       -1.66660
C         -0.75200       -1.84530       -0.16540
S          0.49870       -0.62300       -0.19650
C         -0.38710        0.35300        0.91480
C         -0.02560        1.60410        1.46620
C         -0.82260        2.14380        2.46680
O         -1.91750        1.53880        2.96000
C         -2.54270        0.47960        2.20760
C         -3.12960       -0.46990        3.26390
C         -2.04490       -1.21060        4.03750
C         -3.63840        1.10770        1.31200
C         -4.69960        1.87560        2.09000
C         -1.57650       -0.23720        1.29620
C         -1.77670       -1.47560        0.67590
C         -0.32510        3.36080        2.95620
C          0.83520        3.75230        2.33180
S          1.33310        2.61000        1.11780
C          1.59240        4.94740        2.60350
C          2.79000        5.23660        1.93990
C          3.47360        6.38910        2.26350
C          2.95220        7.24440        3.23600
C          1.74680        6.85870        3.83600
N          1.09130        5.76260        3.53900
C          3.60320        8.48940        3.64880
C          4.52580        9.15790        2.83950
C          5.09810       10.32820        3.30400
C          4.73640       10.80450        4.55450
C          3.79960       10.07920        5.27720
N          3.25070        8.96360        4.84430
H          0.19760      -13.33420       -7.48000
H         -1.74130      -13.24560       -5.90780
H         -2.04070      -11.22240       -4.50440
H          1.45710       -9.61230       -6.38290
H         -2.55240       -9.05040       -4.24670
H         -2.56370       -6.91570       -2.97010
H          1.67160       -6.72840       -3.58180
H          1.42390       -4.59590       -3.15350
H          1.27490       -2.52740       -1.81810
H         -2.51030       -3.93850       -0.36890
H         -3.79810       -1.17870        2.77470
H         -3.71180        0.13240        3.96070
H         -2.49250       -1.81300        4.82410
H         -1.47440       -1.86610        3.38320
H         -1.36230       -0.49820        4.49430
H         -3.13720        1.79030        0.61960
H         -4.09970        0.31420        0.72160
H         -5.32260        2.44310        1.40300
H         -4.22630        2.56770        2.78170
H         -5.33900        1.20030        2.65160
H         -2.64770       -2.08340        0.83790
H         -0.78270        3.93840        3.73620
H          3.17110        4.55380        1.19500
H          4.41440        6.60760        1.77960
H          1.30630        7.48850        4.59620
H          4.77720        8.78080        1.86050
H          5.81480       10.86350        2.69730
H          5.16210       11.71150        4.95370
H          3.47120       10.40770        6.25520
