
  xtb     03012204463D
 energy: -254.859125130500 gnorm: 0.000620891063 xtb: 6.4.1 (unknown)
130139  0     0  0            999 V2000
    2.1981   -3.1916    3.2030 C   0  0  0  0  0  0  0  0  0  0  0  0
    1.8239   -4.4966    3.2614 C   0  0  0  0  0  0  0  0  0  0  0  0
    1.2905   -5.2210    4.4391 C   0  0  0  0  0  0  0  0  0  0  0  0
    2.1443   -6.1531    4.9172 F   0  0  0  0  0  0  0  0  0  0  0  0
    1.0463   -4.3885    5.4639 F   0  0  0  0  0  0  0  0  0  0  0  0
    0.1434   -5.8754    4.1954 F   0  0  0  0  0  0  0  0  0  0  0  0
    2.0494   -5.3199    1.7499 S   0  0  0  0  0  0  0  0  0  0  0  0
    2.6355   -3.8555    1.0311 C   0  0  0  0  0  0  0  0  0  0  0  0
    3.0376   -3.7843   -0.2331 O   0  0  0  0  0  0  0  0  0  0  0  0
    2.8832   -4.9375   -1.0319 C   0  0  0  0  0  0  0  0  0  0  0  0
    2.6723   -2.7991    1.9263 C   0  0  0  0  0  0  0  0  0  0  0  0
    3.1000   -1.4743    1.5532 C   0  0  0  0  0  0  0  0  0  0  0  0
    3.4288   -0.5369    2.4555 C   0  0  0  0  0  0  0  0  0  0  0  0
    3.7968    0.8372    2.2226 C   0  0  0  0  0  0  0  0  0  0  0  0
    3.5696    1.5930    1.0926 C   0  0  0  0  0  0  0  0  0  0  0  0
    2.7991    1.2632   -0.1240 C   0  0  0  0  0  0  0  0  0  0  0  0
    3.4541    0.4602   -0.9950 F   0  0  0  0  0  0  0  0  0  0  0  0
    2.4806    2.3580   -0.8428 F   0  0  0  0  0  0  0  0  0  0  0  0
    1.6303    0.6482    0.1331 F   0  0  0  0  0  0  0  0  0  0  0  0
    4.2076    3.2019    1.2102 S   0  0  0  0  0  0  0  0  0  0  0  0
    4.7804    2.8679    2.8131 C   0  0  0  0  0  0  0  0  0  0  0  0
    5.4401    3.7692    3.5501 O   0  0  0  0  0  0  0  0  0  0  0  0
    5.5939    5.0571    2.9992 C   0  0  0  0  0  0  0  0  0  0  0  0
    4.4705    1.6004    3.2336 C   0  0  0  0  0  0  0  0  0  0  0  0
    4.8574    1.1410    4.5681 C   0  0  0  0  0  0  0  0  0  0  0  0
    4.0337    0.6981    5.5304 C   0  0  0  0  0  0  0  0  0  0  0  0
    2.6057    0.5970    5.4926 C   0  0  0  0  0  0  0  0  0  0  0  0
    1.6296    1.3035    4.2293 S   0  0  0  0  0  0  0  0  0  0  0  0
    0.1995    0.6787    4.9566 C   0  0  0  0  0  0  0  0  0  0  0  0
   -1.1005    0.6589    4.4010 C   0  0  0  0  0  0  0  0  0  0  0  0
   -2.0512   -0.1673    4.9787 C   0  0  0  0  0  0  0  0  0  0  0  0
   -1.8319   -0.8841    6.0921 O   0  0  0  0  0  0  0  0  0  0  0  0
   -0.7161   -0.5259    6.9421 C   0  0  0  0  0  0  0  0  0  0  0  0
   -0.3383   -1.8188    7.6803 C   0  0  0  0  0  0  0  0  0  0  0  0
   -1.4832   -2.4127    8.4924 C   0  0  0  0  0  0  0  0  0  0  0  0
   -1.2178    0.5999    7.8761 C   0  0  0  0  0  0  0  0  0  0  0  0
   -0.2096    1.0428    8.9268 C   0  0  0  0  0  0  0  0  0  0  0  0
    0.4488   -0.0040    6.1326 C   0  0  0  0  0  0  0  0  0  0  0  0
    1.8171   -0.0429    6.4267 C   0  0  0  0  0  0  0  0  0  0  0  0
   -3.2362   -0.2391    4.2212 C   0  0  0  0  0  0  0  0  0  0  0  0
   -3.1693    0.5062    3.0737 C   0  0  0  0  0  0  0  0  0  0  0  0
   -1.6533    1.3477    2.9218 S   0  0  0  0  0  0  0  0  0  0  0  0
   -4.1547    0.6576    2.0256 C   0  0  0  0  0  0  0  0  0  0  0  0
   -5.4670    0.9938    2.2361 C   0  0  0  0  0  0  0  0  0  0  0  0
   -6.1360    1.2578    3.5314 C   0  0  0  0  0  0  0  0  0  0  0  0
   -6.4249    0.1332    4.2215 F   0  0  0  0  0  0  0  0  0  0  0  0
   -5.3870    2.0078    4.3602 F   0  0  0  0  0  0  0  0  0  0  0  0
   -7.3015    1.9052    3.3837 F   0  0  0  0  0  0  0  0  0  0  0  0
   -6.3603    1.1465    0.7609 S   0  0  0  0  0  0  0  0  0  0  0  0
   -4.9381    0.7591   -0.1598 C   0  0  0  0  0  0  0  0  0  0  0  0
   -4.9541    0.7035   -1.4926 O   0  0  0  0  0  0  0  0  0  0  0  0
   -6.2040    0.8439   -2.1308 C   0  0  0  0  0  0  0  0  0  0  0  0
   -3.8389    0.5102    0.6362 C   0  0  0  0  0  0  0  0  0  0  0  0
   -2.5585    0.0266    0.1789 C   0  0  0  0  0  0  0  0  0  0  0  0
   -2.0940    0.0971   -1.0741 C   0  0  0  0  0  0  0  0  0  0  0  0
   -0.8308   -0.4574   -1.5122 C   0  0  0  0  0  0  0  0  0  0  0  0
   -0.2401   -1.6186   -1.0771 C   0  0  0  0  0  0  0  0  0  0  0  0
   -0.7311   -2.6033   -0.0878 C   0  0  0  0  0  0  0  0  0  0  0  0
   -2.0565   -2.8166   -0.1474 F   0  0  0  0  0  0  0  0  0  0  0  0
   -0.4739   -2.2658    1.1990 F   0  0  0  0  0  0  0  0  0  0  0  0
   -0.1586   -3.8117   -0.2498 F   0  0  0  0  0  0  0  0  0  0  0  0
    1.2471   -1.9606   -1.9042 S   0  0  0  0  0  0  0  0  0  0  0  0
    1.0626   -0.5265   -2.8630 C   0  0  0  0  0  0  0  0  0  0  0  0
    2.0707   -0.3047   -3.7194 O   0  0  0  0  0  0  0  0  0  0  0  0
    2.2692    0.9991   -4.2279 C   0  0  0  0  0  0  0  0  0  0  0  0
   -0.0804    0.1657   -2.5619 C   0  0  0  0  0  0  0  0  0  0  0  0
   -0.5281    1.4376   -3.1383 C   0  0  0  0  0  0  0  0  0  0  0  0
   -0.9384    1.6317   -4.3987 C   0  0  0  0  0  0  0  0  0  0  0  0
   -1.0656    0.6591   -5.4428 C   0  0  0  0  0  0  0  0  0  0  0  0
   -0.8393   -1.0560   -5.2072 S   0  0  0  0  0  0  0  0  0  0  0  0
   -1.2339   -1.3596   -6.8599 C   0  0  0  0  0  0  0  0  0  0  0  0
   -1.3137   -2.6071   -7.5293 C   0  0  0  0  0  0  0  0  0  0  0  0
   -1.8135   -2.6341   -8.8176 C   0  0  0  0  0  0  0  0  0  0  0  0
   -2.2426   -1.5447   -9.4840 O   0  0  0  0  0  0  0  0  0  0  0  0
   -1.8274   -0.2394   -9.0327 C   0  0  0  0  0  0  0  0  0  0  0  0
   -2.9871    0.6997   -9.3991 C   0  0  0  0  0  0  0  0  0  0  0  0
   -4.2333    0.4270   -8.5646 C   0  0  0  0  0  0  0  0  0  0  0  0
   -0.5192    0.1345   -9.7722 C   0  0  0  0  0  0  0  0  0  0  0  0
   -0.6479    0.1238  -11.2903 C   0  0  0  0  0  0  0  0  0  0  0  0
   -1.5311   -0.2038   -7.5527 C   0  0  0  0  0  0  0  0  0  0  0  0
   -1.4300    0.9339   -6.7426 C   0  0  0  0  0  0  0  0  0  0  0  0
   -1.8842   -3.9431   -9.3448 C   0  0  0  0  0  0  0  0  0  0  0  0
   -1.4317   -4.8733   -8.4620 C   0  0  0  0  0  0  0  0  0  0  0  0
   -0.9108   -4.1936   -6.9704 S   0  0  0  0  0  0  0  0  0  0  0  0
    2.1059   -2.5229    4.0394 H   0  0  0  0  0  0  0  0  0  0  0  0
    3.4870   -5.7623   -0.6407 H   0  0  0  0  0  0  0  0  0  0  0  0
    1.8350   -5.2445   -1.0714 H   0  0  0  0  0  0  0  0  0  0  0  0
    3.2259   -4.6609   -2.0259 H   0  0  0  0  0  0  0  0  0  0  0  0
    3.1582   -1.3060    0.4902 H   0  0  0  0  0  0  0  0  0  0  0  0
    3.4600   -0.8203    3.4967 H   0  0  0  0  0  0  0  0  0  0  0  0
    6.1582    5.0179    2.0618 H   0  0  0  0  0  0  0  0  0  0  0  0
    6.1422    5.6386    3.7371 H   0  0  0  0  0  0  0  0  0  0  0  0
    4.6207    5.5203    2.8084 H   0  0  0  0  0  0  0  0  0  0  0  0
    5.9126    1.2265    4.7893 H   0  0  0  0  0  0  0  0  0  0  0  0
    4.4717    0.3670    6.4639 H   0  0  0  0  0  0  0  0  0  0  0  0
    0.5110   -1.6187    8.3322 H   0  0  0  0  0  0  0  0  0  0  0  0
   -0.0237   -2.5431    6.9270 H   0  0  0  0  0  0  0  0  0  0  0  0
   -1.7271   -1.7890    9.3487 H   0  0  0  0  0  0  0  0  0  0  0  0
   -2.3668   -2.5169    7.8697 H   0  0  0  0  0  0  0  0  0  0  0  0
   -1.1978   -3.3962    8.8572 H   0  0  0  0  0  0  0  0  0  0  0  0
   -1.4794    1.4534    7.2439 H   0  0  0  0  0  0  0  0  0  0  0  0
   -2.1347    0.2553    8.3555 H   0  0  0  0  0  0  0  0  0  0  0  0
   -0.6124    1.8824    9.4883 H   0  0  0  0  0  0  0  0  0  0  0  0
    0.7205    1.3593    8.4600 H   0  0  0  0  0  0  0  0  0  0  0  0
    0.0066    0.2399    9.6264 H   0  0  0  0  0  0  0  0  0  0  0  0
    2.2388   -0.5382    7.2827 H   0  0  0  0  0  0  0  0  0  0  0  0
   -4.0770   -0.8474    4.4967 H   0  0  0  0  0  0  0  0  0  0  0  0
   -6.0105    0.7534   -3.1976 H   0  0  0  0  0  0  0  0  0  0  0  0
   -6.6458    1.8218   -1.9134 H   0  0  0  0  0  0  0  0  0  0  0  0
   -6.8984    0.0612   -1.8113 H   0  0  0  0  0  0  0  0  0  0  0  0
   -1.9510   -0.4262    0.9474 H   0  0  0  0  0  0  0  0  0  0  0  0
   -2.6515    0.6230   -1.8351 H   0  0  0  0  0  0  0  0  0  0  0  0
    1.5774    1.2131   -5.0469 H   0  0  0  0  0  0  0  0  0  0  0  0
    3.2927    1.0119   -4.5994 H   0  0  0  0  0  0  0  0  0  0  0  0
    2.1499    1.7543   -3.4488 H   0  0  0  0  0  0  0  0  0  0  0  0
   -0.5644    2.2654   -2.4417 H   0  0  0  0  0  0  0  0  0  0  0  0
   -1.2382    2.6298   -4.6942 H   0  0  0  0  0  0  0  0  0  0  0  0
   -2.6625    1.7326   -9.2702 H   0  0  0  0  0  0  0  0  0  0  0  0
   -3.2238    0.5389  -10.4505 H   0  0  0  0  0  0  0  0  0  0  0  0
   -4.0459    0.6160   -7.5099 H   0  0  0  0  0  0  0  0  0  0  0  0
   -4.5377   -0.6103   -8.6808 H   0  0  0  0  0  0  0  0  0  0  0  0
   -5.0496    1.0663   -8.8919 H   0  0  0  0  0  0  0  0  0  0  0  0
    0.2406   -0.5927   -9.4715 H   0  0  0  0  0  0  0  0  0  0  0  0
   -0.1953    1.1174   -9.4253 H   0  0  0  0  0  0  0  0  0  0  0  0
   -1.2555    0.9547  -11.6385 H   0  0  0  0  0  0  0  0  0  0  0  0
    0.3361    0.2060  -11.7456 H   0  0  0  0  0  0  0  0  0  0  0  0
   -1.1055   -0.8061  -11.6184 H   0  0  0  0  0  0  0  0  0  0  0  0
   -1.6113    1.9365   -7.0875 H   0  0  0  0  0  0  0  0  0  0  0  0
   -2.2549   -4.1653  -10.3279 H   0  0  0  0  0  0  0  0  0  0  0  0
   -1.3652   -5.9335   -8.6014 H   0  0  0  0  0  0  0  0  0  0  0  0
  1  2  2  0  0  0  0
  2  3  1  0  0  0  0
  3  4  1  0  0  0  0
  3  5  1  0  0  0  0
  3  6  1  0  0  0  0
  2  7  1  0  0  0  0
  7  8  1  0  0  0  0
  8  9  1  0  0  0  0
  9 10  1  0  0  0  0
  8 11  2  0  0  0  0
 11 12  1  0  0  0  0
 12 13  2  0  0  0  0
 13 14  1  0  0  0  0
 14 15  2  0  0  0  0
 15 16  1  0  0  0  0
 16 17  1  0  0  0  0
 16 18  1  0  0  0  0
 16 19  1  0  0  0  0
 15 20  1  0  0  0  0
 20 21  1  0  0  0  0
 21 22  1  0  0  0  0
 22 23  1  0  0  0  0
 21 24  2  0  0  0  0
 24 25  1  0  0  0  0
 25 26  2  0  0  0  0
 26 27  1  0  0  0  0
 27 28  1  0  0  0  0
 28 29  1  0  0  0  0
 29 30  1  0  0  0  0
 30 31  2  0  0  0  0
 31 32  1  0  0  0  0
 32 33  1  0  0  0  0
 33 34  1  0  0  0  0
 34 35  1  0  0  0  0
 33 36  1  0  0  0  0
 36 37  1  0  0  0  0
 33 38  1  0  0  0  0
 38 39  1  0  0  0  0
 31 40  1  0  0  0  0
 40 41  2  0  0  0  0
 41 42  1  0  0  0  0
 41 43  1  0  0  0  0
 43 44  2  0  0  0  0
 44 45  1  0  0  0  0
 45 46  1  0  0  0  0
 45 47  1  0  0  0  0
 45 48  1  0  0  0  0
 44 49  1  0  0  0  0
 49 50  1  0  0  0  0
 50 51  1  0  0  0  0
 51 52  1  0  0  0  0
 50 53  2  0  0  0  0
 53 54  1  0  0  0  0
 54 55  2  0  0  0  0
 55 56  1  0  0  0  0
 56 57  2  0  0  0  0
 57 58  1  0  0  0  0
 58 59  1  0  0  0  0
 58 60  1  0  0  0  0
 58 61  1  0  0  0  0
 57 62  1  0  0  0  0
 62 63  1  0  0  0  0
 63 64  1  0  0  0  0
 64 65  1  0  0  0  0
 63 66  2  0  0  0  0
 66 67  1  0  0  0  0
 67 68  2  0  0  0  0
 68 69  1  0  0  0  0
 69 70  1  0  0  0  0
 70 71  1  0  0  0  0
 71 72  1  0  0  0  0
 72 73  2  0  0  0  0
 73 74  1  0  0  0  0
 74 75  1  0  0  0  0
 75 76  1  0  0  0  0
 76 77  1  0  0  0  0
 75 78  1  0  0  0  0
 78 79  1  0  0  0  0
 75 80  1  0  0  0  0
 80 81  1  0  0  0  0
 73 82  1  0  0  0  0
 82 83  2  0  0  0  0
 83 84  1  0  0  0  0
 11  1  1  0  0  0  0
 24 14  1  0  0  0  0
 39 27  2  0  0  0  0
 53 43  1  0  0  0  0
 66 56  1  0  0  0  0
 81 69  2  0  0  0  0
 38 29  2  0  0  0  0
 80 71  2  0  0  0  0
 42 30  1  0  0  0  0
 84 72  1  0  0  0  0
  1 85  1  0  0  0  0
 10 86  1  0  0  0  0
 10 87  1  0  0  0  0
 10 88  1  0  0  0  0
 12 89  1  0  0  0  0
 13 90  1  0  0  0  0
 23 91  1  0  0  0  0
 23 92  1  0  0  0  0
 23 93  1  0  0  0  0
 25 94  1  0  0  0  0
 26 95  1  0  0  0  0
 34 96  1  0  0  0  0
 34 97  1  0  0  0  0
 35 98  1  0  0  0  0
 35 99  1  0  0  0  0
 35100  1  0  0  0  0
 36101  1  0  0  0  0
 36102  1  0  0  0  0
 37103  1  0  0  0  0
 37104  1  0  0  0  0
 37105  1  0  0  0  0
 39106  1  0  0  0  0
 40107  1  0  0  0  0
 52108  1  0  0  0  0
 52109  1  0  0  0  0
 52110  1  0  0  0  0
 54111  1  0  0  0  0
 55112  1  0  0  0  0
 65113  1  0  0  0  0
 65114  1  0  0  0  0
 65115  1  0  0  0  0
 67116  1  0  0  0  0
 68117  1  0  0  0  0
 76118  1  0  0  0  0
 76119  1  0  0  0  0
 77120  1  0  0  0  0
 77121  1  0  0  0  0
 77122  1  0  0  0  0
 78123  1  0  0  0  0
 78124  1  0  0  0  0
 79125  1  0  0  0  0
 79126  1  0  0  0  0
 79127  1  0  0  0  0
 81128  1  0  0  0  0
 82129  1  0  0  0  0
 83130  1  0  0  0  0
M  END
