
  xtb     03022215093D
 energy: -348.192947764327 gnorm: 0.000598555666 xtb: 6.4.1 (unknown)
198219  0     0  0            999 V2000
    5.5254   -7.7582   14.9393 C   0  0  0  0  0  0  0  0  0  0  0  0
    5.6832   -6.4246   15.0621 C   0  0  0  0  0  0  0  0  0  0  0  0
    5.3161   -5.7133   13.8826 C   0  0  0  0  0  0  0  0  0  0  0  0
    5.3958   -4.3325   13.6408 C   0  0  0  0  0  0  0  0  0  0  0  0
    5.7665   -3.4038   14.6957 C   0  0  0  0  0  0  0  0  0  0  0  0
    7.0440   -2.2441   14.4898 S   0  0  0  0  0  0  0  0  0  0  0  0
    6.8182   -1.5985   16.0791 C   0  0  0  0  0  0  0  0  0  0  0  0
    7.6983   -0.5204   16.6079 C   0  0  0  0  0  0  0  0  0  0  0  0
    8.9680   -1.1067   17.2299 C   0  0  0  0  0  0  0  0  0  0  0  0
    5.8104   -2.2556   16.7201 C   0  0  0  0  0  0  0  0  0  0  0  0
    5.2932   -1.8916   18.3155 Cl  0  0  0  0  0  0  0  0  0  0  0  0
    5.2088   -3.2771   15.9380 C   0  0  0  0  0  0  0  0  0  0  0  0
    3.8657   -4.1938   16.4880 Cl  0  0  0  0  0  0  0  0  0  0  0  0
    5.0953   -3.8985   12.3564 C   0  0  0  0  0  0  0  0  0  0  0  0
    4.6682   -4.7762   11.3306 C   0  0  0  0  0  0  0  0  0  0  0  0
    4.5327   -6.1516   11.5873 C   0  0  0  0  0  0  0  0  0  0  0  0
    4.0631   -7.0652   10.5591 C   0  0  0  0  0  0  0  0  0  0  0  0
    4.8029   -7.1144    8.9840 S   0  0  0  0  0  0  0  0  0  0  0  0
    3.7255   -8.3472    8.4253 C   0  0  0  0  0  0  0  0  0  0  0  0
    3.8448   -8.9169    7.0548 C   0  0  0  0  0  0  0  0  0  0  0  0
    4.8244  -10.0927    7.0325 C   0  0  0  0  0  0  0  0  0  0  0  0
    2.8591   -8.7003    9.4161 C   0  0  0  0  0  0  0  0  0  0  0  0
    3.0440   -7.9749   10.6242 C   0  0  0  0  0  0  0  0  0  0  0  0
    2.0132   -8.1757   11.9780 Cl  0  0  0  0  0  0  0  0  0  0  0  0
    1.6380   -9.8918    9.2359 Cl  0  0  0  0  0  0  0  0  0  0  0  0
    4.8785   -6.5897   12.8605 C   0  0  0  0  0  0  0  0  0  0  0  0
    4.9198   -8.2454   13.3953 S   0  0  0  0  0  0  0  0  0  0  0  0
    4.3864   -4.0831   10.1295 C   0  0  0  0  0  0  0  0  0  0  0  0
    4.6004   -2.7378   10.2103 C   0  0  0  0  0  0  0  0  0  0  0  0
    5.1412   -2.2487   11.8007 S   0  0  0  0  0  0  0  0  0  0  0  0
    4.4228   -1.7939    9.1539 C   0  0  0  0  0  0  0  0  0  0  0  0
    4.1647   -2.0903    7.8466 C   0  0  0  0  0  0  0  0  0  0  0  0
    4.0029   -0.9495    7.0279 C   0  0  0  0  0  0  0  0  0  0  0  0
    3.7471   -0.9083    5.6448 C   0  0  0  0  0  0  0  0  0  0  0  0
    3.6115   -2.1277    4.8655 C   0  0  0  0  0  0  0  0  0  0  0  0
    2.5079   -3.3893    5.3338 S   0  0  0  0  0  0  0  0  0  0  0  0
    2.9428   -4.3831    3.9862 C   0  0  0  0  0  0  0  0  0  0  0  0
    2.2850   -5.6974    3.7469 C   0  0  0  0  0  0  0  0  0  0  0  0
    1.0314   -5.5323    2.8844 C   0  0  0  0  0  0  0  0  0  0  0  0
    3.8797   -3.7561    3.2209 C   0  0  0  0  0  0  0  0  0  0  0  0
    4.5598   -4.4346    1.7997 Cl  0  0  0  0  0  0  0  0  0  0  0  0
    4.2635   -2.4807    3.7163 C   0  0  0  0  0  0  0  0  0  0  0  0
    5.4918   -1.5433    2.9766 Cl  0  0  0  0  0  0  0  0  0  0  0  0
    3.6207    0.3464    5.0672 C   0  0  0  0  0  0  0  0  0  0  0  0
    3.7745    1.5538    5.7963 C   0  0  0  0  0  0  0  0  0  0  0  0
    4.0897    1.5087    7.1673 C   0  0  0  0  0  0  0  0  0  0  0  0
    4.3234    2.7246    7.9256 C   0  0  0  0  0  0  0  0  0  0  0  0
    3.5168    3.0237    9.4367 S   0  0  0  0  0  0  0  0  0  0  0  0
    4.3109    4.5463    9.6495 C   0  0  0  0  0  0  0  0  0  0  0  0
    4.0084    5.4162   10.8193 C   0  0  0  0  0  0  0  0  0  0  0  0
    2.7747    6.2826   10.5544 C   0  0  0  0  0  0  0  0  0  0  0  0
    5.1445    4.7967    8.6007 C   0  0  0  0  0  0  0  0  0  0  0  0
    5.1589    3.7654    7.6244 C   0  0  0  0  0  0  0  0  0  0  0  0
    6.1963    3.8068    6.2566 Cl  0  0  0  0  0  0  0  0  0  0  0  0
    6.1068    6.2112    8.4597 Cl  0  0  0  0  0  0  0  0  0  0  0  0
    4.1658    0.2530    7.7568 C   0  0  0  0  0  0  0  0  0  0  0  0
    4.5094   -0.0686    9.4339 S   0  0  0  0  0  0  0  0  0  0  0  0
    3.5160    2.6908    4.9953 C   0  0  0  0  0  0  0  0  0  0  0  0
    3.1862    2.3872    3.7032 C   0  0  0  0  0  0  0  0  0  0  0  0
    3.1786    0.6592    3.4161 S   0  0  0  0  0  0  0  0  0  0  0  0
    2.8749    3.2791    2.6406 C   0  0  0  0  0  0  0  0  0  0  0  0
    2.2311    2.6681    1.1384 S   0  0  0  0  0  0  0  0  0  0  0  0
    2.1523    4.2674    0.4983 C   0  0  0  0  0  0  0  0  0  0  0  0
    1.7204    4.6728   -0.7816 C   0  0  0  0  0  0  0  0  0  0  0  0
    1.9215    5.9921   -1.1680 C   0  0  0  0  0  0  0  0  0  0  0  0
    2.5152    6.9114   -0.3843 O   0  0  0  0  0  0  0  0  0  0  0  0
    2.5695    6.6852    1.0395 C   0  0  0  0  0  0  0  0  0  0  0  0
    3.8303    7.4234    1.5139 C   0  0  0  0  0  0  0  0  0  0  0  0
    5.1084    6.7681    1.0033 C   0  0  0  0  0  0  0  0  0  0  0  0
    1.2799    7.2649    1.6713 C   0  0  0  0  0  0  0  0  0  0  0  0
    1.0688    8.7464    1.3842 C   0  0  0  0  0  0  0  0  0  0  0  0
    2.6182    5.2175    1.3924 C   0  0  0  0  0  0  0  0  0  0  0  0
    3.0143    4.6522    2.6067 C   0  0  0  0  0  0  0  0  0  0  0  0
    1.4988    6.2467   -2.4791 C   0  0  0  0  0  0  0  0  0  0  0  0
    0.9553    5.1339   -3.0904 C   0  0  0  0  0  0  0  0  0  0  0  0
    0.9768    3.7463   -2.0350 S   0  0  0  0  0  0  0  0  0  0  0  0
    0.4031    5.0239   -4.3928 C   0  0  0  0  0  0  0  0  0  0  0  0
   -0.4068    3.5574   -4.8834 S   0  0  0  0  0  0  0  0  0  0  0  0
   -0.7262    4.2293   -6.4398 C   0  0  0  0  0  0  0  0  0  0  0  0
   -1.4848    3.6661   -7.4868 C   0  0  0  0  0  0  0  0  0  0  0  0
   -1.8491    4.4785   -8.5542 C   0  0  0  0  0  0  0  0  0  0  0  0
   -1.4835    5.7713   -8.6543 O   0  0  0  0  0  0  0  0  0  0  0  0
   -0.3257    6.2141   -7.9110 C   0  0  0  0  0  0  0  0  0  0  0  0
   -0.5217    7.7267   -7.7255 C   0  0  0  0  0  0  0  0  0  0  0  0
   -0.6659    8.4891   -9.0372 C   0  0  0  0  0  0  0  0  0  0  0  0
    0.9138    5.8470   -8.7606 C   0  0  0  0  0  0  0  0  0  0  0  0
    2.2390    6.3382   -8.1969 C   0  0  0  0  0  0  0  0  0  0  0  0
   -0.2263    5.5163   -6.5736 C   0  0  0  0  0  0  0  0  0  0  0  0
    0.4036    5.9607   -5.4090 C   0  0  0  0  0  0  0  0  0  0  0  0
   -2.6975    3.8369   -9.4642 C   0  0  0  0  0  0  0  0  0  0  0  0
   -2.9836    2.5349   -9.1017 C   0  0  0  0  0  0  0  0  0  0  0  0
   -2.1826    2.0912   -7.6179 S   0  0  0  0  0  0  0  0  0  0  0  0
   -3.8205    1.6036   -9.7688 C   0  0  0  0  0  0  0  0  0  0  0  0
   -4.1714    0.0519   -9.0509 S   0  0  0  0  0  0  0  0  0  0  0  0
   -5.1822   -0.3625  -10.3870 C   0  0  0  0  0  0  0  0  0  0  0  0
   -5.9963   -1.5053  -10.5394 C   0  0  0  0  0  0  0  0  0  0  0  0
   -6.9590   -1.5017  -11.5418 C   0  0  0  0  0  0  0  0  0  0  0  0
   -7.1211   -0.4798  -12.4050 O   0  0  0  0  0  0  0  0  0  0  0  0
   -6.0019    0.4077  -12.6217 C   0  0  0  0  0  0  0  0  0  0  0  0
   -6.6200    1.7145  -13.1411 C   0  0  0  0  0  0  0  0  0  0  0  0
   -7.4424    1.5369  -14.4119 C   0  0  0  0  0  0  0  0  0  0  0  0
   -5.0700   -0.2868  -13.6423 C   0  0  0  0  0  0  0  0  0  0  0  0
   -3.8793    0.5514  -14.0842 C   0  0  0  0  0  0  0  0  0  0  0  0
   -5.2358    0.6437  -11.3402 C   0  0  0  0  0  0  0  0  0  0  0  0
   -4.4675    1.7529  -10.9810 C   0  0  0  0  0  0  0  0  0  0  0  0
   -7.7870   -2.6297  -11.5088 C   0  0  0  0  0  0  0  0  0  0  0  0
   -7.4575   -3.5054  -10.4931 C   0  0  0  0  0  0  0  0  0  0  0  0
   -6.0995   -2.9285   -9.5649 S   0  0  0  0  0  0  0  0  0  0  0  0
   -8.0870   -4.7362  -10.1692 C   0  0  0  0  0  0  0  0  0  0  0  0
   -7.5112   -5.7223   -8.8505 S   0  0  0  0  0  0  0  0  0  0  0  0
   -8.7643   -6.8739   -9.1336 C   0  0  0  0  0  0  0  0  0  0  0  0
   -8.9756   -8.1172   -8.4874 C   0  0  0  0  0  0  0  0  0  0  0  0
   -9.8717   -9.0070   -9.0533 C   0  0  0  0  0  0  0  0  0  0  0  0
  -10.5729   -8.7458  -10.1742 O   0  0  0  0  0  0  0  0  0  0  0  0
  -10.7868   -7.3619  -10.5299 C   0  0  0  0  0  0  0  0  0  0  0  0
  -11.0421   -7.3705  -12.0448 C   0  0  0  0  0  0  0  0  0  0  0  0
  -12.2241   -8.2386  -12.4591 C   0  0  0  0  0  0  0  0  0  0  0  0
  -11.9944   -6.8692   -9.6985 C   0  0  0  0  0  0  0  0  0  0  0  0
  -12.4551   -5.4554  -10.0222 C   0  0  0  0  0  0  0  0  0  0  0  0
   -9.5800   -6.5155  -10.1932 C   0  0  0  0  0  0  0  0  0  0  0  0
   -9.1880   -5.3072  -10.7765 C   0  0  0  0  0  0  0  0  0  0  0  0
   -9.9215  -10.2391   -8.3653 C   0  0  0  0  0  0  0  0  0  0  0  0
   -9.0832  -10.2590   -7.2942 C   0  0  0  0  0  0  0  0  0  0  0  0
   -8.2092   -8.7916   -7.0916 S   0  0  0  0  0  0  0  0  0  0  0  0
    5.7285   -8.5152   15.6713 H   0  0  0  0  0  0  0  0  0  0  0  0
    6.0640   -5.9489   15.9467 H   0  0  0  0  0  0  0  0  0  0  0  0
    7.9696    0.1557   15.7957 H   0  0  0  0  0  0  0  0  0  0  0  0
    7.1475    0.0419   17.3643 H   0  0  0  0  0  0  0  0  0  0  0  0
    9.6003   -0.3089   17.6099 H   0  0  0  0  0  0  0  0  0  0  0  0
    9.5257   -1.6713   16.4866 H   0  0  0  0  0  0  0  0  0  0  0  0
    8.7128   -1.7705   18.0520 H   0  0  0  0  0  0  0  0  0  0  0  0
    4.1917   -8.1413    6.3696 H   0  0  0  0  0  0  0  0  0  0  0  0
    2.8594   -9.2579    6.7309 H   0  0  0  0  0  0  0  0  0  0  0  0
    4.4847  -10.8778    7.7031 H   0  0  0  0  0  0  0  0  0  0  0  0
    4.8965  -10.4993    6.0275 H   0  0  0  0  0  0  0  0  0  0  0  0
    5.8120   -9.7670    7.3499 H   0  0  0  0  0  0  0  0  0  0  0  0
    4.0249   -4.5642    9.2409 H   0  0  0  0  0  0  0  0  0  0  0  0
    4.1023   -3.0958    7.4765 H   0  0  0  0  0  0  0  0  0  0  0  0
    2.9925   -6.3551    3.2377 H   0  0  0  0  0  0  0  0  0  0  0  0
    2.0130   -6.1460    4.7040 H   0  0  0  0  0  0  0  0  0  0  0  0
    0.3148   -4.8823    3.3805 H   0  0  0  0  0  0  0  0  0  0  0  0
    0.5661   -6.4992    2.7129 H   0  0  0  0  0  0  0  0  0  0  0  0
    1.2907   -5.0946    1.9240 H   0  0  0  0  0  0  0  0  0  0  0  0
    3.8318    4.7916   11.6965 H   0  0  0  0  0  0  0  0  0  0  0  0
    4.8706    6.0572   11.0123 H   0  0  0  0  0  0  0  0  0  0  0  0
    1.9087    5.6547   10.3594 H   0  0  0  0  0  0  0  0  0  0  0  0
    2.5657    6.9084   11.4177 H   0  0  0  0  0  0  0  0  0  0  0  0
    2.9421    6.9229    9.6921 H   0  0  0  0  0  0  0  0  0  0  0  0
    3.5395    3.6962    5.3709 H   0  0  0  0  0  0  0  0  0  0  0  0
    3.7796    8.4431    1.1329 H   0  0  0  0  0  0  0  0  0  0  0  0
    3.8316    7.4591    2.6035 H   0  0  0  0  0  0  0  0  0  0  0  0
    5.9735    7.3544    1.3029 H   0  0  0  0  0  0  0  0  0  0  0  0
    5.2184    5.7620    1.4012 H   0  0  0  0  0  0  0  0  0  0  0  0
    5.0880    6.7105   -0.0823 H   0  0  0  0  0  0  0  0  0  0  0  0
    1.3137    7.0872    2.7474 H   0  0  0  0  0  0  0  0  0  0  0  0
    0.4376    6.6974    1.2653 H   0  0  0  0  0  0  0  0  0  0  0  0
    1.7873    9.3571    1.9240 H   0  0  0  0  0  0  0  0  0  0  0  0
    0.0690    9.0431    1.6920 H   0  0  0  0  0  0  0  0  0  0  0  0
    1.1754    8.9387    0.3195 H   0  0  0  0  0  0  0  0  0  0  0  0
    3.4019    5.2131    3.4370 H   0  0  0  0  0  0  0  0  0  0  0  0
    1.5830    7.2079   -2.9492 H   0  0  0  0  0  0  0  0  0  0  0  0
    0.3169    8.1254   -7.1565 H   0  0  0  0  0  0  0  0  0  0  0  0
   -1.4284    7.8619   -7.1316 H   0  0  0  0  0  0  0  0  0  0  0  0
   -0.9430    9.5206   -8.8326 H   0  0  0  0  0  0  0  0  0  0  0  0
   -1.4404    8.0356   -9.6488 H   0  0  0  0  0  0  0  0  0  0  0  0
    0.2664    8.4921   -9.5956 H   0  0  0  0  0  0  0  0  0  0  0  0
    0.9380    4.7562   -8.8398 H   0  0  0  0  0  0  0  0  0  0  0  0
    0.7617    6.2445   -9.7651 H   0  0  0  0  0  0  0  0  0  0  0  0
    3.0553    5.9760   -8.8173 H   0  0  0  0  0  0  0  0  0  0  0  0
    2.3894    5.9675   -7.1857 H   0  0  0  0  0  0  0  0  0  0  0  0
    2.2818    7.4240   -8.1812 H   0  0  0  0  0  0  0  0  0  0  0  0
    0.8581    6.9268   -5.2939 H   0  0  0  0  0  0  0  0  0  0  0  0
   -3.0947    4.3172  -10.3379 H   0  0  0  0  0  0  0  0  0  0  0  0
   -7.2647    2.1015  -12.3489 H   0  0  0  0  0  0  0  0  0  0  0  0
   -5.8251    2.4386  -13.3136 H   0  0  0  0  0  0  0  0  0  0  0  0
   -8.1740    0.7460  -14.2749 H   0  0  0  0  0  0  0  0  0  0  0  0
   -6.8092    1.2872  -15.2591 H   0  0  0  0  0  0  0  0  0  0  0  0
   -7.9674    2.4612  -14.6408 H   0  0  0  0  0  0  0  0  0  0  0  0
   -5.6710   -0.5727  -14.5067 H   0  0  0  0  0  0  0  0  0  0  0  0
   -4.7088   -1.2074  -13.1749 H   0  0  0  0  0  0  0  0  0  0  0  0
   -3.2414   -0.0380  -14.7385 H   0  0  0  0  0  0  0  0  0  0  0  0
   -3.2899    0.8662  -13.2262 H   0  0  0  0  0  0  0  0  0  0  0  0
   -4.2006    1.4343  -14.6302 H   0  0  0  0  0  0  0  0  0  0  0  0
   -4.3712    2.6433  -11.5733 H   0  0  0  0  0  0  0  0  0  0  0  0
   -8.5939   -2.7866  -12.1986 H   0  0  0  0  0  0  0  0  0  0  0  0
  -11.1984   -6.3475  -12.3841 H   0  0  0  0  0  0  0  0  0  0  0  0
  -10.1351   -7.7499  -12.5208 H   0  0  0  0  0  0  0  0  0  0  0  0
  -13.1640   -7.8125  -12.1184 H   0  0  0  0  0  0  0  0  0  0  0  0
  -12.1188   -9.2359  -12.0421 H   0  0  0  0  0  0  0  0  0  0  0  0
  -12.2591   -8.3164  -13.5432 H   0  0  0  0  0  0  0  0  0  0  0  0
  -11.7030   -6.9207   -8.6453 H   0  0  0  0  0  0  0  0  0  0  0  0
  -12.8135   -7.5747   -9.8459 H   0  0  0  0  0  0  0  0  0  0  0  0
  -11.6382   -4.7471   -9.9057 H   0  0  0  0  0  0  0  0  0  0  0  0
  -12.8346   -5.3880  -11.0383 H   0  0  0  0  0  0  0  0  0  0  0  0
  -13.2540   -5.1683   -9.3426 H   0  0  0  0  0  0  0  0  0  0  0  0
   -9.6822   -4.8482  -11.6117 H   0  0  0  0  0  0  0  0  0  0  0  0
  -10.5501  -11.0573   -8.6625 H   0  0  0  0  0  0  0  0  0  0  0  0
   -8.9298  -11.0561   -6.5950 H   0  0  0  0  0  0  0  0  0  0  0  0
  1  2  2  0  0  0  0
  2  3  1  0  0  0  0
  3  4  2  0  0  0  0
  4  5  1  0  0  0  0
  5  6  1  0  0  0  0
  6  7  1  0  0  0  0
  7  8  1  0  0  0  0
  8  9  1  0  0  0  0
  7 10  2  0  0  0  0
 10 11  1  0  0  0  0
 10 12  1  0  0  0  0
 12 13  1  0  0  0  0
  4 14  1  0  0  0  0
 14 15  2  0  0  0  0
 15 16  1  0  0  0  0
 16 17  1  0  0  0  0
 17 18  1  0  0  0  0
 18 19  1  0  0  0  0
 19 20  1  0  0  0  0
 20 21  1  0  0  0  0
 19 22  2  0  0  0  0
 22 23  1  0  0  0  0
 23 24  1  0  0  0  0
 22 25  1  0  0  0  0
 16 26  2  0  0  0  0
 26 27  1  0  0  0  0
 15 28  1  0  0  0  0
 28 29  2  0  0  0  0
 29 30  1  0  0  0  0
 29 31  1  0  0  0  0
 31 32  2  0  0  0  0
 32 33  1  0  0  0  0
 33 34  2  0  0  0  0
 34 35  1  0  0  0  0
 35 36  1  0  0  0  0
 36 37  1  0  0  0  0
 37 38  1  0  0  0  0
 38 39  1  0  0  0  0
 37 40  2  0  0  0  0
 40 41  1  0  0  0  0
 40 42  1  0  0  0  0
 42 43  1  0  0  0  0
 34 44  1  0  0  0  0
 44 45  2  0  0  0  0
 45 46  1  0  0  0  0
 46 47  1  0  0  0  0
 47 48  1  0  0  0  0
 48 49  1  0  0  0  0
 49 50  1  0  0  0  0
 50 51  1  0  0  0  0
 49 52  2  0  0  0  0
 52 53  1  0  0  0  0
 53 54  1  0  0  0  0
 52 55  1  0  0  0  0
 46 56  2  0  0  0  0
 56 57  1  0  0  0  0
 45 58  1  0  0  0  0
 58 59  2  0  0  0  0
 59 60  1  0  0  0  0
 59 61  1  0  0  0  0
 61 62  1  0  0  0  0
 62 63  1  0  0  0  0
 63 64  1  0  0  0  0
 64 65  2  0  0  0  0
 65 66  1  0  0  0  0
 66 67  1  0  0  0  0
 67 68  1  0  0  0  0
 68 69  1  0  0  0  0
 67 70  1  0  0  0  0
 70 71  1  0  0  0  0
 67 72  1  0  0  0  0
 72 73  1  0  0  0  0
 65 74  1  0  0  0  0
 74 75  2  0  0  0  0
 75 76  1  0  0  0  0
 75 77  1  0  0  0  0
 77 78  1  0  0  0  0
 78 79  1  0  0  0  0
 79 80  1  0  0  0  0
 80 81  2  0  0  0  0
 81 82  1  0  0  0  0
 82 83  1  0  0  0  0
 83 84  1  0  0  0  0
 84 85  1  0  0  0  0
 83 86  1  0  0  0  0
 86 87  1  0  0  0  0
 83 88  1  0  0  0  0
 88 89  1  0  0  0  0
 81 90  1  0  0  0  0
 90 91  2  0  0  0  0
 91 92  1  0  0  0  0
 91 93  1  0  0  0  0
 93 94  1  0  0  0  0
 94 95  1  0  0  0  0
 95 96  1  0  0  0  0
 96 97  2  0  0  0  0
 97 98  1  0  0  0  0
 98 99  1  0  0  0  0
 99100  1  0  0  0  0
100101  1  0  0  0  0
 99102  1  0  0  0  0
102103  1  0  0  0  0
 99104  1  0  0  0  0
104105  1  0  0  0  0
 97106  1  0  0  0  0
106107  2  0  0  0  0
107108  1  0  0  0  0
107109  1  0  0  0  0
109110  1  0  0  0  0
110111  1  0  0  0  0
111112  1  0  0  0  0
112113  2  0  0  0  0
113114  1  0  0  0  0
114115  1  0  0  0  0
115116  1  0  0  0  0
116117  1  0  0  0  0
115118  1  0  0  0  0
118119  1  0  0  0  0
115120  1  0  0  0  0
120121  1  0  0  0  0
113122  1  0  0  0  0
122123  2  0  0  0  0
123124  1  0  0  0  0
 27  1  1  0  0  0  0
 57 31  1  0  0  0  0
 73 61  2  0  0  0  0
 89 77  2  0  0  0  0
105 93  2  0  0  0  0
121109  2  0  0  0  0
 26  3  1  0  0  0  0
 56 33  1  0  0  0  0
 72 63  2  0  0  0  0
 88 79  2  0  0  0  0
104 95  2  0  0  0  0
120111  2  0  0  0  0
 12  5  2  0  0  0  0
 30 14  1  0  0  0  0
 42 35  2  0  0  0  0
 60 44  1  0  0  0  0
 76 64  1  0  0  0  0
 92 80  1  0  0  0  0
108 96  1  0  0  0  0
124112  1  0  0  0  0
 23 17  2  0  0  0  0
 53 47  2  0  0  0  0
  1125  1  0  0  0  0
  2126  1  0  0  0  0
  8127  1  0  0  0  0
  8128  1  0  0  0  0
  9129  1  0  0  0  0
  9130  1  0  0  0  0
  9131  1  0  0  0  0
 20132  1  0  0  0  0
 20133  1  0  0  0  0
 21134  1  0  0  0  0
 21135  1  0  0  0  0
 21136  1  0  0  0  0
 28137  1  0  0  0  0
 32138  1  0  0  0  0
 38139  1  0  0  0  0
 38140  1  0  0  0  0
 39141  1  0  0  0  0
 39142  1  0  0  0  0
 39143  1  0  0  0  0
 50144  1  0  0  0  0
 50145  1  0  0  0  0
 51146  1  0  0  0  0
 51147  1  0  0  0  0
 51148  1  0  0  0  0
 58149  1  0  0  0  0
 68150  1  0  0  0  0
 68151  1  0  0  0  0
 69152  1  0  0  0  0
 69153  1  0  0  0  0
 69154  1  0  0  0  0
 70155  1  0  0  0  0
 70156  1  0  0  0  0
 71157  1  0  0  0  0
 71158  1  0  0  0  0
 71159  1  0  0  0  0
 73160  1  0  0  0  0
 74161  1  0  0  0  0
 84162  1  0  0  0  0
 84163  1  0  0  0  0
 85164  1  0  0  0  0
 85165  1  0  0  0  0
 85166  1  0  0  0  0
 86167  1  0  0  0  0
 86168  1  0  0  0  0
 87169  1  0  0  0  0
 87170  1  0  0  0  0
 87171  1  0  0  0  0
 89172  1  0  0  0  0
 90173  1  0  0  0  0
100174  1  0  0  0  0
100175  1  0  0  0  0
101176  1  0  0  0  0
101177  1  0  0  0  0
101178  1  0  0  0  0
102179  1  0  0  0  0
102180  1  0  0  0  0
103181  1  0  0  0  0
103182  1  0  0  0  0
103183  1  0  0  0  0
105184  1  0  0  0  0
106185  1  0  0  0  0
116186  1  0  0  0  0
116187  1  0  0  0  0
117188  1  0  0  0  0
117189  1  0  0  0  0
117190  1  0  0  0  0
118191  1  0  0  0  0
118192  1  0  0  0  0
119193  1  0  0  0  0
119194  1  0  0  0  0
119195  1  0  0  0  0
121196  1  0  0  0  0
122197  1  0  0  0  0
123198  1  0  0  0  0
M  END
