
  xtb     03022220013D
 energy: -172.061097727977 gnorm: 0.000289722543 xtb: 6.4.1 (unknown)
105112  0     0  0            999 V2000
    1.5748   -0.8133    1.4712 C   0  0  0  0  0  0  0  0  0  0  0  0
    3.2316   -1.4517    1.0025 S   0  0  0  0  0  0  0  0  0  0  0  0
    3.4416   -0.6988    2.5518 C   0  0  0  0  0  0  0  0  0  0  0  0
    2.1653   -0.2855    2.7444 C   0  0  0  0  0  0  0  0  0  0  0  0
    1.5396    0.4589    3.8148 C   0  0  0  0  0  0  0  0  0  0  0  0
    2.1048    0.7449    4.8531 O   0  0  0  0  0  0  0  0  0  0  0  0
    0.1005    0.8641    3.5273 C   0  0  0  0  0  0  0  0  0  0  0  0
   -0.0131    1.8406    2.4013 C   0  0  0  0  0  0  0  0  0  0  0  0
    0.9900    2.5759    1.9410 C   0  0  0  0  0  0  0  0  0  0  0  0
    0.8837    3.4809    0.7805 C   0  0  0  0  0  0  0  0  0  0  0  0
    1.5096    5.2246    1.0842 S   0  0  0  0  0  0  0  0  0  0  0  0
    2.5483    4.5492   -0.1298 C   0  0  0  0  0  0  0  0  0  0  0  0
    1.9839    3.3257   -0.2488 C   0  0  0  0  0  0  0  0  0  0  0  0
    2.2552    2.1326   -1.0168 C   0  0  0  0  0  0  0  0  0  0  0  0
    1.5258    1.1587   -0.9517 O   0  0  0  0  0  0  0  0  0  0  0  0
    3.4867    2.1710   -1.9096 C   0  0  0  0  0  0  0  0  0  0  0  0
    4.2525    0.8904   -1.8333 C   0  0  0  0  0  0  0  0  0  0  0  0
    5.5670    0.8309   -1.6675 C   0  0  0  0  0  0  0  0  0  0  0  0
    6.3419   -0.4261   -1.6283 C   0  0  0  0  0  0  0  0  0  0  0  0
    6.6004   -1.1378    0.0990 S   0  0  0  0  0  0  0  0  0  0  0  0
    5.7579   -2.3545   -0.8101 C   0  0  0  0  0  0  0  0  0  0  0  0
    5.6415   -1.7122   -1.9916 C   0  0  0  0  0  0  0  0  0  0  0  0
    5.0728   -2.0490   -3.2806 C   0  0  0  0  0  0  0  0  0  0  0  0
    5.2465   -1.3654   -4.2698 O   0  0  0  0  0  0  0  0  0  0  0  0
    4.1538   -3.2671   -3.2898 C   0  0  0  0  0  0  0  0  0  0  0  0
    2.8592   -2.7556   -2.7381 C   0  0  0  0  0  0  0  0  0  0  0  0
    2.0250   -1.9962   -3.4564 C   0  0  0  0  0  0  0  0  0  0  0  0
    0.8377   -1.3808   -2.9475 C   0  0  0  0  0  0  0  0  0  0  0  0
    0.2109   -1.7620   -1.3717 S   0  0  0  0  0  0  0  0  0  0  0  0
   -1.0015   -0.5493   -1.5370 C   0  0  0  0  0  0  0  0  0  0  0  0
   -2.0006   -0.1736   -0.6048 C   0  0  0  0  0  0  0  0  0  0  0  0
   -2.9505    0.7551   -0.9855 C   0  0  0  0  0  0  0  0  0  0  0  0
   -3.0248    1.2862   -2.2202 O   0  0  0  0  0  0  0  0  0  0  0  0
   -1.8465    1.2673   -3.0596 C   0  0  0  0  0  0  0  0  0  0  0  0
   -1.1073    2.5946   -2.7565 C   0  0  0  0  0  0  0  0  0  0  0  0
    0.0669    2.9225   -3.6656 C   0  0  0  0  0  0  0  0  0  0  0  0
   -2.3863    1.2129   -4.4956 C   0  0  0  0  0  0  0  0  0  0  0  0
   -3.1601   -0.0730   -4.7620 C   0  0  0  0  0  0  0  0  0  0  0  0
   -0.9394    0.1012   -2.7551 C   0  0  0  0  0  0  0  0  0  0  0  0
    0.0986   -0.3915   -3.5558 C   0  0  0  0  0  0  0  0  0  0  0  0
   -3.8690    1.0591    0.0400 C   0  0  0  0  0  0  0  0  0  0  0  0
   -3.6263    0.3556    1.1857 C   0  0  0  0  0  0  0  0  0  0  0  0
   -2.2469   -0.6995    1.0225 S   0  0  0  0  0  0  0  0  0  0  0  0
   -4.4137    0.3904    2.4264 C   0  0  0  0  0  0  0  0  0  0  0  0
   -3.4259    0.2714    4.0165 S   0  0  0  0  0  0  0  0  0  0  0  0
   -4.4681   -1.1203    3.9943 C   0  0  0  0  0  0  0  0  0  0  0  0
   -5.1061   -0.8967    2.8261 C   0  0  0  0  0  0  0  0  0  0  0  0
   -6.1624   -1.5572    2.0838 C   0  0  0  0  0  0  0  0  0  0  0  0
   -6.7079   -1.0318    1.1354 O   0  0  0  0  0  0  0  0  0  0  0  0
   -6.5115   -2.9557    2.5633 C   0  0  0  0  0  0  0  0  0  0  0  0
   -5.4877   -3.9579    2.1248 C   0  0  0  0  0  0  0  0  0  0  0  0
   -4.5451   -3.7273    1.2207 C   0  0  0  0  0  0  0  0  0  0  0  0
   -3.5692   -4.7382    0.7696 C   0  0  0  0  0  0  0  0  0  0  0  0
   -3.6622   -5.0485   -1.0839 S   0  0  0  0  0  0  0  0  0  0  0  0
   -2.0684   -4.4307   -0.7807 C   0  0  0  0  0  0  0  0  0  0  0  0
   -2.1482   -4.2668    0.5591 C   0  0  0  0  0  0  0  0  0  0  0  0
   -1.1707   -3.7838    1.5111 C   0  0  0  0  0  0  0  0  0  0  0  0
   -0.0508   -3.4520    1.1709 O   0  0  0  0  0  0  0  0  0  0  0  0
   -1.6418   -3.7363    2.9568 C   0  0  0  0  0  0  0  0  0  0  0  0
   -0.5629   -3.2496    3.8717 C   0  0  0  0  0  0  0  0  0  0  0  0
   -0.7022   -2.2724    4.7463 C   0  0  0  0  0  0  0  0  0  0  0  0
    1.2283   -0.0735    0.7553 H   0  0  0  0  0  0  0  0  0  0  0  0
    0.8654   -1.6313    1.5677 H   0  0  0  0  0  0  0  0  0  0  0  0
    4.3508   -0.6153    3.1148 H   0  0  0  0  0  0  0  0  0  0  0  0
   -0.4729   -0.0330    3.2806 H   0  0  0  0  0  0  0  0  0  0  0  0
   -0.3304    1.3033    4.4318 H   0  0  0  0  0  0  0  0  0  0  0  0
   -0.9957    1.9265    1.9533 H   0  0  0  0  0  0  0  0  0  0  0  0
    1.9747    2.5096    2.3842 H   0  0  0  0  0  0  0  0  0  0  0  0
   -0.1255    3.5240    0.3715 H   0  0  0  0  0  0  0  0  0  0  0  0
    3.3708    5.0504   -0.6036 H   0  0  0  0  0  0  0  0  0  0  0  0
    4.1183    3.0233   -1.6628 H   0  0  0  0  0  0  0  0  0  0  0  0
    3.1224    2.2931   -2.9359 H   0  0  0  0  0  0  0  0  0  0  0  0
    3.6598   -0.0081   -1.9352 H   0  0  0  0  0  0  0  0  0  0  0  0
    6.1468    1.7378   -1.5518 H   0  0  0  0  0  0  0  0  0  0  0  0
    7.3233   -0.3112   -2.0886 H   0  0  0  0  0  0  0  0  0  0  0  0
    5.4765   -3.3227   -0.4450 H   0  0  0  0  0  0  0  0  0  0  0  0
    4.5587   -4.0678   -2.6753 H   0  0  0  0  0  0  0  0  0  0  0  0
    4.0359   -3.6009   -4.3212 H   0  0  0  0  0  0  0  0  0  0  0  0
    2.6597   -2.9422   -1.6913 H   0  0  0  0  0  0  0  0  0  0  0  0
    2.2626   -1.7685   -4.4884 H   0  0  0  0  0  0  0  0  0  0  0  0
   -1.8484    3.3962   -2.8037 H   0  0  0  0  0  0  0  0  0  0  0  0
   -0.7489    2.5250   -1.7256 H   0  0  0  0  0  0  0  0  0  0  0  0
    0.5560    3.8291   -3.3137 H   0  0  0  0  0  0  0  0  0  0  0  0
   -0.2593    3.0892   -4.6885 H   0  0  0  0  0  0  0  0  0  0  0  0
    0.7921    2.1136   -3.6516 H   0  0  0  0  0  0  0  0  0  0  0  0
   -3.0446    2.0716   -4.6368 H   0  0  0  0  0  0  0  0  0  0  0  0
   -1.5550    1.2936   -5.1941 H   0  0  0  0  0  0  0  0  0  0  0  0
   -3.9837   -0.1673   -4.0588 H   0  0  0  0  0  0  0  0  0  0  0  0
   -2.5118   -0.9401   -4.6551 H   0  0  0  0  0  0  0  0  0  0  0  0
   -3.5647   -0.0642   -5.7710 H   0  0  0  0  0  0  0  0  0  0  0  0
    0.3263   -0.0343   -4.5442 H   0  0  0  0  0  0  0  0  0  0  0  0
   -4.6814    1.7510   -0.0803 H   0  0  0  0  0  0  0  0  0  0  0  0
   -5.0658    1.2635    2.4534 H   0  0  0  0  0  0  0  0  0  0  0  0
   -4.5381   -1.8715    4.7580 H   0  0  0  0  0  0  0  0  0  0  0  0
   -7.4803   -3.2365    2.1398 H   0  0  0  0  0  0  0  0  0  0  0  0
   -6.5962   -2.9682    3.6521 H   0  0  0  0  0  0  0  0  0  0  0  0
   -5.5699   -4.9344    2.5856 H   0  0  0  0  0  0  0  0  0  0  0  0
   -4.4610   -2.7647    0.7352 H   0  0  0  0  0  0  0  0  0  0  0  0
   -3.6676   -5.6866    1.2980 H   0  0  0  0  0  0  0  0  0  0  0  0
   -1.2916   -4.2606   -1.5002 H   0  0  0  0  0  0  0  0  0  0  0  0
   -2.5293   -3.1009    3.0152 H   0  0  0  0  0  0  0  0  0  0  0  0
   -1.9414   -4.7518    3.2373 H   0  0  0  0  0  0  0  0  0  0  0  0
    0.3880   -3.7518    3.7557 H   0  0  0  0  0  0  0  0  0  0  0  0
   -1.6367   -1.7508    4.8778 H   0  0  0  0  0  0  0  0  0  0  0  0
    0.1106   -1.9513    5.3744 H   0  0  0  0  0  0  0  0  0  0  0  0
  1  2  1  0  0  0  0
  2  3  1  0  0  0  0
  3  4  2  0  0  0  0
  4  5  1  0  0  0  0
  5  6  2  0  0  0  0
  5  7  1  0  0  0  0
  7  8  1  0  0  0  0
  8  9  2  0  0  0  0
  9 10  1  0  0  0  0
 10 11  1  0  0  0  0
 11 12  1  0  0  0  0
 12 13  2  0  0  0  0
 13 14  1  0  0  0  0
 14 15  2  0  0  0  0
 14 16  1  0  0  0  0
 16 17  1  0  0  0  0
 17 18  2  0  0  0  0
 18 19  1  0  0  0  0
 19 20  1  0  0  0  0
 20 21  1  0  0  0  0
 21 22  2  0  0  0  0
 22 23  1  0  0  0  0
 23 24  2  0  0  0  0
 23 25  1  0  0  0  0
 25 26  1  0  0  0  0
 26 27  2  0  0  0  0
 27 28  1  0  0  0  0
 28 29  1  0  0  0  0
 29 30  1  0  0  0  0
 30 31  1  0  0  0  0
 31 32  2  0  0  0  0
 32 33  1  0  0  0  0
 33 34  1  0  0  0  0
 34 35  1  0  0  0  0
 35 36  1  0  0  0  0
 34 37  1  0  0  0  0
 37 38  1  0  0  0  0
 34 39  1  0  0  0  0
 39 40  1  0  0  0  0
 32 41  1  0  0  0  0
 41 42  2  0  0  0  0
 42 43  1  0  0  0  0
 42 44  1  0  0  0  0
 44 45  1  0  0  0  0
 45 46  1  0  0  0  0
 46 47  2  0  0  0  0
 47 48  1  0  0  0  0
 48 49  2  0  0  0  0
 48 50  1  0  0  0  0
 50 51  1  0  0  0  0
 51 52  2  0  0  0  0
 52 53  1  0  0  0  0
 53 54  1  0  0  0  0
 54 55  1  0  0  0  0
 55 56  2  0  0  0  0
 56 57  1  0  0  0  0
 57 58  2  0  0  0  0
 57 59  1  0  0  0  0
 59 60  1  0  0  0  0
 60 61  2  0  0  0  0
  4  1  1  0  0  0  0
 13 10  1  0  0  0  0
 22 19  1  0  0  0  0
 40 28  2  0  0  0  0
 47 44  1  0  0  0  0
 56 53  1  0  0  0  0
 39 30  2  0  0  0  0
 43 31  1  0  0  0  0
  1 62  1  0  0  0  0
  1 63  1  0  0  0  0
  3 64  1  0  0  0  0
  7 65  1  0  0  0  0
  7 66  1  0  0  0  0
  8 67  1  0  0  0  0
  9 68  1  0  0  0  0
 10 69  1  0  0  0  0
 12 70  1  0  0  0  0
 16 71  1  0  0  0  0
 16 72  1  0  0  0  0
 17 73  1  0  0  0  0
 18 74  1  0  0  0  0
 19 75  1  0  0  0  0
 21 76  1  0  0  0  0
 25 77  1  0  0  0  0
 25 78  1  0  0  0  0
 26 79  1  0  0  0  0
 27 80  1  0  0  0  0
 35 81  1  0  0  0  0
 35 82  1  0  0  0  0
 36 83  1  0  0  0  0
 36 84  1  0  0  0  0
 36 85  1  0  0  0  0
 37 86  1  0  0  0  0
 37 87  1  0  0  0  0
 38 88  1  0  0  0  0
 38 89  1  0  0  0  0
 38 90  1  0  0  0  0
 40 91  1  0  0  0  0
 41 92  1  0  0  0  0
 44 93  1  0  0  0  0
 46 94  1  0  0  0  0
 50 95  1  0  0  0  0
 50 96  1  0  0  0  0
 51 97  1  0  0  0  0
 52 98  1  0  0  0  0
 53 99  1  0  0  0  0
 55100  1  0  0  0  0
 59101  1  0  0  0  0
 59102  1  0  0  0  0
 60103  1  0  0  0  0
 61104  1  0  0  0  0
 61105  1  0  0  0  0
M  END
