120

C          5.22770        0.13780       -2.95090
C          5.24830       -0.52250       -1.74130
C          4.89570       -1.89310       -1.60230
N          5.00000       -2.36660       -0.32850
C          5.37460       -1.46660        0.48810
S          5.67060        0.12290       -0.18080
C          4.47110       -2.64400       -2.70940
C          4.51210       -1.97830       -3.93110
C          4.86710       -0.61140       -4.06420
N          4.81570       -0.14000       -5.34490
C          4.46340       -1.04480       -6.16770
S          4.11870       -2.62110       -5.49710
C          4.03100       -4.02190       -2.62510
C          3.34140       -4.61750       -1.64090
C          2.74010       -4.04960       -0.45400
C          2.16000       -2.78720       -0.33170
C          1.54700       -2.32000        0.85990
N          0.99830       -1.07730        0.74060
C          1.12350       -0.60660       -0.43720
S          1.96490       -1.59830       -1.58880
C          1.48010       -3.11600        2.02130
C          2.02400       -4.39420        1.87620
C          2.62420       -4.86410        0.68560
N          3.07820       -6.14930        0.75660
C          2.86530       -6.66560        1.90050
S          2.07330       -5.64890        3.08050
C          0.87830       -2.71410        3.26280
C          0.45430       -1.46580        3.53390
C         -0.20100       -1.02890        4.73300
C         -0.59710        0.30690        4.84800
C         -1.38790        0.80650        5.90670
N         -1.69200        2.13360        5.80590
C         -1.20210        2.64820        4.74890
S         -0.29630        1.58320        3.70500
C         -1.86860       -0.04830        6.91170
C         -1.37250       -1.34330        6.87410
C         -0.56040       -1.84620        5.82180
N         -0.24500       -3.16460        5.96000
C         -0.75340       -3.67750        7.00880
S         -1.72590       -2.62040        8.00140
C         -2.92870        0.37860        7.82290
C         -4.06390        0.92780        7.37130
C         -4.34360        1.08050        5.95940
S         -3.98040       -0.21940        4.85020
C         -4.22450        0.83410        3.50670
C         -3.81810        0.60810        2.17140
C         -3.73260        1.70910        1.32870
O         -4.11470        2.95250        1.68540
C         -5.00020        3.09580        2.82050
C         -4.77880        4.52830        3.32800
C         -5.04910        5.59730        2.27590
C         -6.43650        2.83690        2.31120
C         -7.51580        3.03200        3.36660
C         -4.66970        2.08400        3.89270
C         -4.74960        2.20670        5.29010
C         -3.12460        1.40050        0.10760
C         -2.74050        0.07610        0.01430
S         -3.12450       -0.80660        1.46800
C         -2.11150       -0.60760       -1.07380
C         -1.87050       -0.07910       -2.34770
C         -1.22730       -0.80410       -3.38610
N         -1.17680       -0.14610       -4.57800
C         -1.69040        1.01570       -4.51120
S         -2.33030        1.48500       -2.95920
C         -0.72960       -2.10320       -3.18340
C         -1.03420       -2.65290       -1.93600
C         -1.69040       -1.94350       -0.91020
N         -1.85940       -2.65050        0.23850
C         -1.38210       -3.82880        0.15900
S         -0.64270       -4.25120       -1.36270
C          0.00720       -2.89050       -4.13580
C          0.73030       -2.53490       -5.20910
C          1.08070       -1.24240       -5.75830
C          1.14570       -1.11370       -7.14500
C          1.51320        0.06870       -7.83310
N          1.49080       -0.05640       -9.19200
C          1.13590       -1.22190       -9.56250
S          0.76580       -2.36250       -8.29590
C          1.87870        1.22310       -7.12070
C          1.84690        1.08350       -5.73520
C          1.46630       -0.09630       -5.04590
N          1.56330        0.00610       -3.68920
C          1.97220        1.15750       -3.32330
S          2.29920        2.30480       -4.58200
C          2.28360        2.47850       -7.72030
C          2.32860        2.74680       -9.02130
H          5.48430        1.17910       -3.04920
H          5.51280       -1.63640        1.53790
H          4.36900       -0.87970       -7.22350
H          4.30340       -4.62190       -3.48590
H          3.20210       -5.68920       -1.70610
H          0.73920        0.35120       -0.72820
H          3.14250       -7.66840        2.16110
H          0.78240       -3.48670        4.01420
H          0.57580       -0.70200        2.77810
H         -1.31900        3.68110        4.48460
H         -0.61240       -4.70100        7.29640
H         -2.77400        0.21190        8.87950
H         -4.80460        1.30060        8.06590
H         -3.73790        4.59710        3.65150
H         -5.41280        4.69650        4.19740
H         -6.10850        5.65980        2.04220
H         -4.50130        5.37210        1.36550
H         -4.72590        6.56730        2.64670
H         -6.46880        1.80580        1.94800
H         -6.61910        3.49110        1.45770
H         -7.31240        2.41860        4.24150
H         -8.48170        2.73990        2.96100
H         -7.57940        4.07140        3.67700
H         -5.02280        3.10800        5.80720
H         -2.96320        2.13800       -0.65530
H         -1.74270        1.69210       -5.34220
H         -1.41700       -4.54080        0.95950
H         -0.03680       -3.95360       -3.92160
H          1.11130       -3.35300       -5.81340
H          1.05760       -1.51750      -10.59060
H          2.12960        1.43610       -2.29960
H          2.56410        3.23880       -7.00040
H          2.05580        2.01170       -9.75740
H          2.64160        3.71390       -9.37580
