258

C         -1.92960       -5.77680        9.32270
C         -1.49100       -4.57050        8.90990
C         -2.32970       -3.98610        7.91460
C         -2.18400       -2.74180        7.28260
C         -0.96910       -1.93120        7.43070
C          0.27980       -2.51770        7.22450
C          1.42510       -1.75190        7.21920
C          1.37380       -0.37750        7.43940
S          2.88120        0.54200        7.36680
C          2.35140        2.06690        6.48130
C          3.43660        2.51580        5.52460
C          0.12900        0.18370        7.71210
F          0.01990        1.49620        8.01120
C         -1.03020       -0.56590        7.68660
C         -3.19310       -2.36780        6.40670
C         -4.27960       -3.21510        6.07870
C         -4.40490       -4.47710        6.68090
C         -5.48830       -5.37970        6.27430
C         -5.21430       -6.67760        5.84720
C         -6.21730       -7.47310        5.33490
C         -7.52960       -7.01560        5.24500
S         -8.74190       -8.08970        4.53120
C         -9.65900       -6.97670        3.39910
C         -8.75680       -6.35180        2.35430
C         -7.80300       -5.74830        5.75150
C         -6.80550       -4.93100        6.24170
F         -9.06530       -5.26950        5.76880
C         -3.42900       -4.82260        7.60410
S         -3.37970       -6.29760        8.53420
C         -5.07810       -2.66900        5.04190
C         -4.65810       -1.44850        4.61040
S         -3.23740       -0.89110        5.47480
C         -5.18050       -0.70800        3.50830
C         -4.86750        0.55430        3.10500
C         -5.44160        0.91000        1.85640
C         -5.22100        2.06990        1.09670
C         -4.29460        3.13040        1.51480
C         -4.66050        4.47350        1.44950
C         -3.74720        5.46460        1.74000
C         -2.43800        5.16030        2.10750
S         -1.34810        6.51090        2.45110
C          0.23200        6.00870        1.66990
C          0.07930        5.75100        0.18480
C         -2.10000        3.81430        2.21200
F         -0.86390        3.43740        2.60730
C         -2.99860        2.81180        1.90840
C         -5.80570        2.11130       -0.16060
C         -6.55560        1.04030       -0.70760
C         -6.78380       -0.11540        0.05430
C         -7.40880       -1.32030       -0.51170
C         -6.88870       -1.90700       -1.66350
C         -7.40710       -3.08670       -2.15970
C         -8.46390       -3.72340       -1.51820
S         -9.19950       -5.22950       -2.07130
C         -7.80950       -6.10260       -2.87610
C         -6.69760       -6.42830       -1.89950
C         -8.98830       -3.11330       -0.37900
C         -8.47570       -1.94050        0.13120
F        -10.02250       -3.69470        0.26060
C         -6.24140       -0.13560        1.32950
S         -6.27560       -1.51250        2.39690
C         -6.83260        1.23380       -2.08410
C         -6.26340        2.36200       -2.60000
S         -5.49870        3.34180       -1.35860
C         -5.88770        2.57520       -3.96490
C         -5.72450        1.56030       -4.86490
C         -4.77460        1.85090       -5.87430
C         -4.09330        0.90400       -6.65730
C         -4.52370       -0.50620       -6.58890
C         -4.37870       -1.20270       -5.39040
C         -4.89180       -2.47390       -5.25130
C         -5.56360       -3.09470       -6.30090
S         -6.23880       -4.70680       -6.00320
C         -7.92010       -4.59050       -6.72340
C         -8.75170       -3.50810       -6.06400
C         -5.63230       -2.41790       -7.51390
F         -6.21530       -2.99030       -8.58750
C         -5.13360       -1.13650       -7.66300
C         -2.92410        1.32220       -7.26270
C         -2.46430        2.66350       -7.19170
C         -3.18480        3.62670       -6.46780
C         -2.63970        4.97300       -6.23110
C         -3.35550        6.11870       -6.56270
C         -2.81220        7.36960       -6.34740
C         -1.55210        7.52040       -5.77630
S         -0.92080        9.15780       -5.53350
C          0.77400        9.02690       -6.21970
C          0.76640        8.58330       -7.66820
C         -0.87820        6.36640       -5.39080
C         -1.39580        5.11010       -5.62290
F          0.31570        6.44010       -4.76310
C         -4.30630        3.18430       -5.78930
S         -5.07250        4.04340       -4.47370
C         -1.12480        2.78460       -7.63380
C         -0.52380        1.58480       -7.89050
S         -1.68190        0.26000       -7.88330
C          0.87540        1.33200       -7.72650
C          1.69910        2.16050       -7.01550
C          2.85390        1.52290       -6.50920
C          3.72610        2.04150       -5.53690
C          3.61470        3.43920       -5.09650
C          3.67060        4.48870       -6.01270
C          3.55290        5.79600       -5.59210
C          3.36680        6.11460       -4.24680
S          3.28140        7.82490       -3.82320
C          2.15510        7.87270       -2.37140
C          1.50520        9.23940       -2.28760
C          3.31740        5.05680       -3.34430
F          3.15630        5.27850       -2.01970
C          3.43210        3.74350       -3.75190
C          4.59650        1.13850       -4.95270
C          4.70320       -0.21510       -5.36410
C          3.87930       -0.70990       -6.39320
C          4.00020       -2.10220       -6.84160
C          5.24570       -2.61490       -7.20460
C          5.36870       -3.91260       -7.65070
C          4.26380       -4.75850       -7.73350
S          4.55190       -6.41700       -8.27650
C          3.10570       -6.79910       -9.33250
C          2.95140       -5.80630      -10.46670
C          3.03460       -4.24520       -7.33200
C          2.89150       -2.93840       -6.91130
F          1.92820       -5.02070       -7.33000
C          2.92580        0.16220       -6.89710
S          1.58810       -0.25410       -7.94760
C          5.55170       -0.96090       -4.50690
C          6.05860       -0.23060       -3.46810
S          5.60830        1.46080       -3.57110
C          6.71650       -0.69770       -2.29500
S          6.67540        0.29100       -0.85510
C          7.37460       -0.98570        0.06770
C          7.52960       -1.05500        1.46840
C          7.82210       -2.28770        2.03850
O          8.06370       -3.40250        1.32700
C          8.34600       -3.29420       -0.08100
C          7.84560       -4.59850       -0.74310
C          7.82090       -5.81510        0.17650
C          9.86600       -3.05810       -0.26050
C         10.75430       -4.14970        0.32040
C          7.65550       -2.10090       -0.70490
C          7.27870       -1.93130       -2.04060
C          7.74430       -2.27340        3.43790
C          7.39180       -1.03770        3.94280
S          7.17760        0.13620        2.67180
C          7.15320       -0.68090        5.29640
S          6.65300        0.93710        5.71860
C          6.51440        0.49150        7.37840
C          6.06800        1.27780        8.46750
C          5.83550        0.65390        9.67990
O          6.03720       -0.65530        9.90730
C          6.84360       -1.41500        8.98580
C          8.30770       -1.38680        9.48930
C          8.47940       -1.92500       10.90430
C          6.24790       -2.83120        9.01170
C          4.86660       -2.87710        8.36930
C          6.83750       -0.83600        7.59140
C          7.20600       -1.49100        6.41300
C          5.30740        1.53340       10.65130
C          5.16070        2.79680       10.17120
S          5.65470        2.95640        8.53320
H         -1.49110       -6.42010       10.06050
H         -0.61660       -4.08400        9.30260
H          0.34300       -3.57520        7.01760
H          2.38390       -2.20440        7.02280
H          2.13590        2.83090        7.22710
H          1.44180        1.81430        5.93940
H          3.09070        3.38540        4.97010
H          3.67700        1.72490        4.81790
H          4.34200        2.78590        6.06230
H         -1.96980       -0.07640        7.89040
H         -4.20100       -7.04720        5.87650
H         -5.99660       -8.46540        4.97380
H        -10.18150       -6.22600        3.98730
H        -10.39190       -7.63840        2.93810
H         -9.35840       -5.77330        1.65710
H         -8.22190       -7.12200        1.80220
H         -8.02700       -5.68720        2.81460
H         -7.06960       -3.95420        6.61730
H         -5.91900       -3.17590        4.60390
H         -4.23310        1.20480        3.67990
H         -5.66760        4.74030        1.16770
H         -4.03080        6.50340        1.67660
H          0.88220        6.86340        1.85550
H          0.62830        5.14290        2.19520
H          1.05230        5.52480       -0.24610
H         -0.33320        6.62540       -0.31470
H         -0.58340        4.90640        0.00270
H         -2.66720        1.78610        1.96160
H         -6.04800       -1.44730       -2.16190
H         -6.98000       -3.51640       -3.05210
H         -7.44990       -5.51570       -3.71970
H         -8.27300       -7.01210       -3.25800
H         -7.07640       -7.03620       -1.08110
H         -5.91230       -6.97960       -2.41230
H         -6.26760       -5.51930       -1.48300
H         -8.91280       -1.51770        1.02200
H         -7.38480        0.52750       -2.67620
H         -6.15420        0.58490       -4.72980
H         -3.87290       -0.73110       -4.56110
H         -4.79030       -3.00600       -4.31800
H         -8.34390       -5.57830       -6.54240
H         -7.82860       -4.43660       -7.79610
H         -8.29390       -2.52920       -6.20020
H         -9.74280       -3.48850       -6.51230
H         -8.86110       -3.69410       -4.99770
H         -5.23800       -0.64110       -8.61580
H         -4.33160        6.02540       -7.01340
H         -3.35770        8.25770       -6.62530
H          1.36300        8.36000       -5.59370
H          1.16570       10.03900       -6.12040
H          0.37630        7.57080       -7.76270
H          0.15040        9.24760       -8.27080
H          1.78180        8.59930       -8.05930
H         -0.83900        4.24590       -5.29330
H         -0.59800        3.72020       -7.65700
H          1.43740        3.16820       -6.74990
H          3.82000        4.27310       -7.06020
H          3.60420        6.60470       -6.30480
H          1.41100        7.09400       -2.52350
H          2.74290        7.66050       -1.47940
H          0.88970        9.42930       -3.16360
H          2.25940       10.02010       -2.21740
H          0.87270        9.28690       -1.40360
H          3.36870        2.96690       -3.00610
H          6.11530       -1.97680       -7.16200
H          6.33070       -4.30030       -7.94800
H          2.21520       -6.84950       -8.71000
H          3.33250       -7.79630       -9.71010
H          3.86740       -5.74780      -11.05100
H          2.13930       -6.12080      -11.11900
H          2.71960       -4.81330      -10.08600
H          1.91380       -2.60050       -6.60640
H          5.70280       -2.02030       -4.60660
H          8.47200       -4.80270       -1.61250
H          6.82590       -4.42790       -1.09670
H          8.80700       -6.04800        0.56250
H          7.15920       -5.63670        1.01900
H          7.45210       -6.67480       -0.37870
H         10.06570       -2.93640       -1.32700
H         10.10160       -2.10960        0.23140
H         10.67470       -5.06720       -0.25600
H         11.79250       -3.82570        0.30110
H         10.47450       -4.35130        1.35130
H          7.40780       -2.67570       -2.80480
H          7.91970       -3.14170        4.04380
H          8.64000       -0.34520        9.45870
H          8.92410       -1.95340        8.78930
H          8.33500       -3.00160       10.93470
H          9.48110       -1.70440       11.26510
H          7.75940       -1.45620       11.57040
H          6.16380       -3.13370       10.05520
H          6.92830       -3.51610        8.50500
H          4.21440       -2.14850        8.84540
H          4.43100       -3.86670        8.48650
H          4.92610       -2.64450        7.30830
H          7.49790       -2.52370        6.36400
H          5.05140        1.22720       11.64820
H          4.79200        3.65940       10.68890
