90

C         -8.99710        1.80170        6.45950
S         -7.71060        0.99840        7.28720
C         -6.77400        0.77700        5.80460
C         -7.46010        1.36440        4.72320
C         -8.74930        1.92280        5.12000
C         -9.62360        2.51790        4.20390
S         -9.29540        2.72120        2.56020
C         -7.72550        2.06120        2.39230
C         -7.01000        1.48730        3.40250
C         -5.58560        0.04360        5.80870
S         -4.84760       -0.49380        4.29810
C         -3.62770       -1.45360        5.11830
C         -3.70920       -1.27710        6.49270
C         -4.83460       -0.46220        6.90770
C         -5.08070       -0.20430        8.23320
S         -4.11830       -0.75360        9.54990
C         -2.79020       -1.52210        8.74780
C         -2.71820       -1.70350        7.41620
C         -2.74630       -2.21560        4.33490
S         -2.36690       -1.67360        2.70650
C         -1.30430       -3.04770        2.41580
C         -1.24580       -3.87280        3.52980
C         -2.13080       -3.45650        4.59970
C         -2.39110       -4.26260        5.68490
S         -1.57810       -5.73720        6.02280
C         -0.38770       -5.79920        4.76460
C         -0.34740       -4.95690        3.71410
C         -0.64640       -3.15940        1.17710
S         -0.15050       -1.70270        0.33570
C          0.62060       -2.62400       -0.94160
C          0.39430       -3.98040       -0.79280
C         -0.33410       -4.30780        0.41590
C         -0.75760       -5.58480        0.70440
S         -0.41470       -6.97350       -0.25180
C          0.40900       -6.28760       -1.61220
C          0.70780       -4.98360       -1.75360
C          1.38220       -1.94490       -1.92540
S          1.07360       -0.25640       -2.27610
C          2.37340       -0.22830       -3.41970
C          2.78110        0.81700       -4.25630
C          3.70100        0.54250       -5.27690
O          4.21470       -0.68710       -5.48150
C          4.25690       -1.59240       -4.35970
C          4.34780       -2.99590       -4.97910
C          5.55250       -3.18160       -5.89390
C          5.49610       -1.20320       -3.51860
C          5.77320       -2.11280       -2.33070
C          3.02000       -1.46030       -3.50410
C          2.45680       -2.41410       -2.66320
C          3.96470        1.63420       -6.08670
C          3.27310        2.78980       -5.71240
S          2.26510        2.47110       -4.30940
C          3.36810        4.02960       -6.33980
S          4.42660        4.17530       -7.73610
C          4.03360        5.84500       -7.93110
C          3.15330        6.29910       -7.00580
C          2.74100        5.27640       -6.05900
C          1.86260        5.52670       -5.04340
S          1.12210        7.05990       -4.74420
C          1.78490        8.05750       -6.00330
C          2.65450        7.64050       -6.93180
H         -9.84840        2.13970        7.01200
H        -10.58360        2.88750        4.52170
H         -7.33550        2.13590        1.39250
H         -6.02500        1.13300        3.14670
H         -5.89050        0.41170        8.57300
H         -2.01360       -1.84240        9.42080
H         -1.83250       -2.17170        7.01140
H         -3.15500       -4.02310        6.40400
H          0.31570       -6.60410        4.89050
H          0.42990       -5.09320        2.97580
H         -1.36190       -5.80500        1.56660
H          0.64750       -7.01880       -2.36590
H          1.17240       -4.66850       -2.67520
H          3.43360       -3.15050       -5.55680
H          4.37270       -3.73650       -4.18060
H          5.58410       -2.38680       -6.63340
H          5.47710       -4.13570       -6.41050
H          6.48080       -3.17350       -5.32890
H          6.35950       -1.18070       -4.18500
H          5.33290       -0.18280       -3.15960
H          4.91550       -2.14760       -1.66310
H          6.00580       -3.12390       -2.65440
H          6.62440       -1.73180       -1.77130
H          2.84870       -3.40640       -2.54010
H          4.63290        1.60570       -6.92740
H          4.48540        6.39710       -8.73130
H          1.55320        4.77980       -4.33590
H          1.41910        9.07000       -5.96260
H          3.01060        8.34000       -7.67520
