198

C          1.97350        1.57830      -15.65430
C          1.31080        1.23550      -14.53160
C          2.04290        0.32640      -13.71310
C          1.65740       -0.25600      -12.49500
C          0.41280        0.11250      -11.83950
S         -0.75170       -1.08150      -11.35230
C         -1.81400        0.11250      -10.69060
C         -3.13180       -0.26060      -10.10640
C         -4.23240       -0.22470      -11.16960
C         -1.28540        1.35890      -10.85000
Cl        -2.05210        2.79760      -10.31330
C         -0.02140        1.36290      -11.49720
Cl         0.88850        2.79780      -11.74370
C          2.52670       -1.18020      -11.93340
C          3.77330       -1.52290      -12.51290
C          4.16280       -0.93220      -13.72750
C          5.42270       -1.27670      -14.36350
S          6.55860       -0.05020      -14.84210
C          7.68120       -1.21710      -15.45490
C          8.99390       -0.79660      -16.01780
C          9.95930       -0.37070      -14.90960
C          7.19120       -2.47760      -15.28800
C          5.91040       -2.51570      -14.67410
Cl         5.04680       -3.98070      -14.43410
Cl         8.01740       -3.90200      -15.77460
C          3.28770       -0.01120      -14.29200
S          3.52230        0.82080      -15.80420
C          4.50010       -2.43040      -11.70450
C          3.84210       -2.79550      -10.56400
S          2.28140       -2.00890      -10.42360
C          4.28180       -3.69580       -9.55360
S          3.41900       -3.83740       -8.04410
C          4.55390       -5.00930       -7.48200
C          4.54640       -5.71690       -6.26050
C          5.41450       -6.79140       -6.10860
O          6.26870       -7.19070       -7.07050
C          6.66190       -6.22750       -8.07420
C          7.10010       -7.07080       -9.27900
C          5.95010       -7.88540       -9.85940
C          7.84130       -5.42790       -7.46660
C          8.41940       -4.34100       -8.36140
C          5.53760       -5.28300       -8.41890
C          5.37720       -4.53450       -9.58780
C          5.26550       -7.44520       -4.87910
C          4.30220       -6.86390       -4.07840
S          3.55550       -5.49710       -4.86290
C          3.92410       -7.22280       -2.75850
S          2.77870       -6.24800       -1.87320
C          2.92720       -7.28290       -0.50050
C          2.37360       -7.09950        0.78370
C          2.86760       -7.86410        1.83440
O          3.80170       -8.82050        1.67230
C          3.98490       -9.38160        0.35220
C          2.90000      -10.46900        0.17390
C          3.00030      -11.25370       -1.12620
C          5.41860       -9.93360        0.34690
C          5.67700      -10.97100        1.43310
C          3.80750       -8.33160       -0.72080
C          4.37000       -8.28770       -1.99840
C          2.35860       -7.47500        3.07960
C          1.47040       -6.42120        2.98760
S          1.24700       -5.91250        1.33420
C          0.80970       -5.72710        4.03370
S         -0.27020       -4.40750        3.66170
C         -0.51490       -4.10650        5.34290
C         -1.19120       -3.01860        5.93380
C         -0.95900       -2.74740        7.27730
O         -0.19860       -3.53160        8.06310
C          0.03120       -4.89770        7.64750
C         -1.21100       -5.71410        8.07240
C         -1.09820       -7.20940        7.81160
C          1.32180       -5.32310        8.36370
C          1.24330       -5.20810        9.88150
C          0.19030       -4.98910        6.14710
C          0.93560       -5.90350        5.39900
C         -1.52240       -1.53370        7.69300
C         -2.20070       -0.88630        6.68220
S         -2.15360       -1.79240        5.18970
C         -2.84600        0.37490        6.71170
S         -2.68930        1.44630        8.08000
C         -3.59890        2.66320        7.25360
C         -3.96390        3.94770        7.71450
C         -4.87950        4.68170        6.96940
O         -5.45670        4.21660        5.84580
C         -4.75260        3.20620        5.09010
C         -3.72540        3.95000        4.20470
C         -2.96190        3.06790        3.22770
C         -5.84010        2.46910        4.29310
C         -6.64190        3.37960        3.37070
C         -4.01790        2.24880        5.99920
C         -3.58790        0.95450        5.70210
C         -5.17900        5.92290        7.54540
C         -4.48720        6.14880        8.71440
S         -3.45320        4.80490        9.12430
C         -4.51320        7.31060        9.53220
C         -3.81480        7.53720       10.68260
C         -4.04250        8.81770       11.24200
C         -3.50660        9.35750       12.42320
C         -2.56210        8.60930       13.23600
S         -1.10560        7.95260       12.54780
C         -0.58240        7.30910       14.06740
C          0.67740        6.52320       14.17390
C          0.49870        5.11810       13.59460
C         -1.49770        7.58700       15.03750
Cl        -1.33680        7.10220       16.67570
C         -2.61710        8.32970       14.57270
Cl        -3.93180        8.74370       15.59050
C         -3.89920       10.64720       12.76330
C         -4.80780       11.40520       11.98740
C         -5.37380       10.85020       10.82820
C         -6.34660       11.58790       10.03850
S         -6.13260       11.84150        8.33280
C         -7.61260       12.72870        8.20070
C         -8.03880       13.33080        6.90740
C         -7.41110       14.71330        6.71390
C         -8.22300       12.81680        9.41610
C         -7.51050       12.16810       10.46000
Cl        -8.10650       12.06940       12.06660
Cl        -9.71610       13.62080        9.68120
C         -4.96140        9.57360       10.47350
S         -5.51210        8.68080        9.08340
C         -4.97330       12.72130       12.50880
C         -4.23880       12.94000       13.61850
S         -3.29990       11.57380       14.10920
H          1.65170        2.24180      -16.43300
H          0.32950        1.59640      -14.28470
H         -3.06640       -1.26340       -9.68170
H         -3.37460        0.44370       -9.30810
H         -4.32010        0.77520      -11.58690
H         -5.18590       -0.50320      -10.72910
H         -4.00270       -0.91910      -11.97420
H          8.84210        0.03900      -16.70400
H          9.41750       -1.63360      -16.57540
H         10.90890       -0.06350      -15.33910
H          9.54320        0.46240      -14.34820
H         10.13740       -1.19660      -14.22540
H          5.48590       -2.77860      -11.94820
H          7.88760       -7.74580       -8.94000
H          7.51390       -6.41470      -10.04320
H          5.16440       -7.23350      -10.23470
H          5.52750       -8.53150       -9.09420
H          6.30720       -8.50430      -10.67870
H          7.47910       -4.97320       -6.53990
H          8.62130       -6.14470       -7.20090
H          7.65230       -3.62530       -8.64720
H          8.85770       -4.76330       -9.26170
H          9.19970       -3.80720       -7.82420
H          6.02420       -4.60040      -10.44260
H          5.84830       -8.29980       -4.59340
H          2.95740      -11.14560        1.02770
H          1.92930       -9.96670        0.21770
H          2.15990      -11.93950       -1.20400
H          3.91700      -11.83600       -1.16450
H          2.97510      -10.58480       -1.98330
H          6.08970       -9.08480        0.49590
H          5.62920      -10.36290       -0.63150
H          5.12920      -11.88930        1.23920
H          6.73760      -11.20880        1.46740
H          5.37680      -10.58040        2.40100
H          5.07950       -9.00030       -2.37520
H          2.64400       -7.94000        4.00390
H         -2.06580       -5.31530        7.51870
H         -1.39180       -5.52860        9.13210
H         -2.04080       -7.69440        8.05350
H         -0.32030       -7.65770        8.42370
H         -0.87370       -7.40190        6.76490
H          2.12130       -4.67570        7.99680
H          1.56080       -6.34780        8.08280
H          2.22620       -5.38220       10.31290
H          0.91090       -4.21340       10.16380
H          0.55560       -5.93980       10.29700
H          1.56170       -6.66720        5.82060
H         -1.42840       -1.13900        8.68770
H         -3.01580        4.44180        4.87700
H         -4.25930        4.73320        3.66430
H         -3.63110        2.60930        2.50500
H         -2.23840        3.67090        2.68410
H         -2.42320        2.28260        3.75240
H         -6.51550        2.01230        5.02000
H         -5.37770        1.67030        3.71530
H         -7.48130        2.82890        2.95310
H         -7.02580        4.23000        3.92680
H         -6.03150        3.74330        2.54850
H         -3.79140        0.43210        4.78510
H         -5.87000        6.62850        7.12240
H         -3.15910        6.80180       11.11210
H          1.47380        7.03800       13.63270
H          0.95720        6.45630       15.22650
H          1.42550        4.55770       13.68200
H         -0.28250        4.58530       14.13090
H          0.22240        5.17530       12.54430
H         -7.73700       12.67670        6.08780
H         -9.12660       13.42020        6.90350
H         -7.73030       15.13900        5.76650
H         -7.71570       15.38080        7.51600
H         -6.32640       14.63820        6.71620
H         -5.60270       13.46390       12.05480
H         -4.18020       13.83740       14.20280
