
  xtb     02282220053D
 energy: -217.706203261356 gnorm: 0.000186384823 xtb: 6.4.1 (unknown)
130147  0     0  0            999 V2000
    5.6921  -17.0356    1.7785 C   0  0  0  0  0  0  0  0  0  0  0  0
    4.1497  -16.2940    2.0670 S   0  0  0  0  0  0  0  0  0  0  0  0
    4.9363  -14.9202    2.7549 C   0  0  0  0  0  0  0  0  0  0  0  0
    4.6704  -13.6712    3.3267 C   0  0  0  0  0  0  0  0  0  0  0  0
    5.9172  -13.1033    3.6492 C   0  0  0  0  0  0  0  0  0  0  0  0
    6.9244  -13.9704    3.3105 N   0  0  0  0  0  0  0  0  0  0  0  0
    8.3351  -13.6961    3.3684 C   0  0  0  0  0  0  0  0  0  0  0  0
    8.8229  -12.9885    2.1045 C   0  0  0  0  0  0  0  0  0  0  0  0
    6.3335  -15.0714    2.7454 C   0  0  0  0  0  0  0  0  0  0  0  0
    6.7564  -16.2911    2.1811 C   0  0  0  0  0  0  0  0  0  0  0  0
    5.8221  -11.8278    4.2194 C   0  0  0  0  0  0  0  0  0  0  0  0
    4.5114  -11.4169    4.3293 C   0  0  0  0  0  0  0  0  0  0  0  0
    3.3694  -12.6168    3.7368 S   0  0  0  0  0  0  0  0  0  0  0  0
    4.0364  -10.1627    4.8068 C   0  0  0  0  0  0  0  0  0  0  0  0
    2.3284   -9.7653    4.6685 S   0  0  0  0  0  0  0  0  0  0  0  0
    2.6283   -8.1957    5.3165 C   0  0  0  0  0  0  0  0  0  0  0  0
    1.9910   -6.9848    5.5937 C   0  0  0  0  0  0  0  0  0  0  0  0
    2.9822   -6.1060    6.0752 C   0  0  0  0  0  0  0  0  0  0  0  0
    4.1967   -6.7433    6.0932 N   0  0  0  0  0  0  0  0  0  0  0  0
    5.4306   -6.2105    6.6045 C   0  0  0  0  0  0  0  0  0  0  0  0
    5.5786   -6.4716    8.1028 C   0  0  0  0  0  0  0  0  0  0  0  0
    3.9894   -8.0202    5.6368 C   0  0  0  0  0  0  0  0  0  0  0  0
    4.7813   -9.1368    5.3489 C   0  0  0  0  0  0  0  0  0  0  0  0
    2.5114   -4.8128    6.3246 C   0  0  0  0  0  0  0  0  0  0  0  0
    1.1687   -4.6946    6.0318 C   0  0  0  0  0  0  0  0  0  0  0  0
    0.4570   -6.2058    5.4777 S   0  0  0  0  0  0  0  0  0  0  0  0
    0.3943   -3.5014    6.0079 C   0  0  0  0  0  0  0  0  0  0  0  0
   -1.3253   -3.5742    5.6411 S   0  0  0  0  0  0  0  0  0  0  0  0
   -1.3930   -1.8522    5.5547 C   0  0  0  0  0  0  0  0  0  0  0  0
   -2.2384   -0.8081    5.1746 C   0  0  0  0  0  0  0  0  0  0  0  0
   -1.4716    0.3735    5.2288 C   0  0  0  0  0  0  0  0  0  0  0  0
   -0.2106    0.0879    5.6836 N   0  0  0  0  0  0  0  0  0  0  0  0
    0.8924    1.0100    5.7454 C   0  0  0  0  0  0  0  0  0  0  0  0
    1.6085    1.1234    4.4005 C   0  0  0  0  0  0  0  0  0  0  0  0
   -0.1401   -1.2725    5.8426 C   0  0  0  0  0  0  0  0  0  0  0  0
    0.8632   -2.2083    6.1108 C   0  0  0  0  0  0  0  0  0  0  0  0
   -2.1341    1.4957    4.7214 C   0  0  0  0  0  0  0  0  0  0  0  0
   -3.4056    1.1865    4.2961 C   0  0  0  0  0  0  0  0  0  0  0  0
   -3.8252   -0.5057    4.5642 S   0  0  0  0  0  0  0  0  0  0  0  0
   -4.2727    2.0134    3.5308 C   0  0  0  0  0  0  0  0  0  0  0  0
   -3.5857    3.3366    2.6142 S   0  0  0  0  0  0  0  0  0  0  0  0
   -5.1041    3.6085    1.8362 C   0  0  0  0  0  0  0  0  0  0  0  0
   -5.3473    4.4032    0.6945 C   0  0  0  0  0  0  0  0  0  0  0  0
   -6.5323    4.2083   -0.0029 C   0  0  0  0  0  0  0  0  0  0  0  0
   -7.5337    3.4216    0.4324 O   0  0  0  0  0  0  0  0  0  0  0  0
   -7.5027    2.9288    1.7934 C   0  0  0  0  0  0  0  0  0  0  0  0
   -8.2342    3.9881    2.6533 C   0  0  0  0  0  0  0  0  0  0  0  0
   -8.3292    3.6525    4.1350 C   0  0  0  0  0  0  0  0  0  0  0  0
   -8.2692    1.5998    1.7492 C   0  0  0  0  0  0  0  0  0  0  0  0
   -7.5906    0.5718    0.8511 C   0  0  0  0  0  0  0  0  0  0  0  0
   -6.0938    2.7615    2.3015 C   0  0  0  0  0  0  0  0  0  0  0  0
   -5.6110    1.8529    3.2524 C   0  0  0  0  0  0  0  0  0  0  0  0
   -6.5318    4.8243   -1.2621 C   0  0  0  0  0  0  0  0  0  0  0  0
   -5.3466    5.4744   -1.5409 C   0  0  0  0  0  0  0  0  0  0  0  0
   -4.2338    5.3754   -0.2025 S   0  0  0  0  0  0  0  0  0  0  0  0
   -4.9325    6.0615   -2.7665 C   0  0  0  0  0  0  0  0  0  0  0  0
   -3.2454    6.5275   -2.9644 S   0  0  0  0  0  0  0  0  0  0  0  0
   -3.5254    6.8727   -4.6289 C   0  0  0  0  0  0  0  0  0  0  0  0
   -2.8565    7.2385   -5.7961 C   0  0  0  0  0  0  0  0  0  0  0  0
   -3.8158    7.2500   -6.8287 C   0  0  0  0  0  0  0  0  0  0  0  0
   -5.0478    6.9329   -6.3176 N   0  0  0  0  0  0  0  0  0  0  0  0
   -6.2507    6.7181   -7.0780 C   0  0  0  0  0  0  0  0  0  0  0  0
   -6.3443    5.2808   -7.5877 C   0  0  0  0  0  0  0  0  0  0  0  0
   -4.8760    6.6687   -4.9824 C   0  0  0  0  0  0  0  0  0  0  0  0
   -5.6678    6.2108   -3.9245 C   0  0  0  0  0  0  0  0  0  0  0  0
   -3.2772    7.5353   -8.0889 C   0  0  0  0  0  0  0  0  0  0  0  0
   -1.9167    7.7339   -8.0276 C   0  0  0  0  0  0  0  0  0  0  0  0
   -1.2775    7.5976   -6.3904 S   0  0  0  0  0  0  0  0  0  0  0  0
   -1.0221    7.9730   -9.1048 C   0  0  0  0  0  0  0  0  0  0  0  0
   -1.6411    8.0823  -10.7519 S   0  0  0  0  0  0  0  0  0  0  0  0
   -0.0354    8.2822  -11.3515 C   0  0  0  0  0  0  0  0  0  0  0  0
    0.6815    8.4421  -12.5414 C   0  0  0  0  0  0  0  0  0  0  0  0
    2.0398    8.5203  -12.1863 C   0  0  0  0  0  0  0  0  0  0  0  0
    2.1703    8.4343  -10.8247 N   0  0  0  0  0  0  0  0  0  0  0  0
    3.4025    8.3636  -10.0851 C   0  0  0  0  0  0  0  0  0  0  0  0
    3.8845    6.9218   -9.9315 C   0  0  0  0  0  0  0  0  0  0  0  0
    0.9111    8.2697  -10.3096 C   0  0  0  0  0  0  0  0  0  0  0  0
    0.3462    8.0960   -9.0399 C   0  0  0  0  0  0  0  0  0  0  0  0
    2.8951    8.6741  -13.2955 C   0  0  0  0  0  0  0  0  0  0  0  0
    2.1868    8.7107  -14.4553 C   0  0  0  0  0  0  0  0  0  0  0  0
    0.4695    8.5628  -14.2505 S   0  0  0  0  0  0  0  0  0  0  0  0
    5.7107  -18.0016    1.3147 H   0  0  0  0  0  0  0  0  0  0  0  0
    8.5271  -13.0718    4.2456 H   0  0  0  0  0  0  0  0  0  0  0  0
    8.8641  -14.6446    3.4954 H   0  0  0  0  0  0  0  0  0  0  0  0
    9.8890  -12.7895    2.1731 H   0  0  0  0  0  0  0  0  0  0  0  0
    8.2964  -12.0457    1.9755 H   0  0  0  0  0  0  0  0  0  0  0  0
    8.6368  -13.6092    1.2312 H   0  0  0  0  0  0  0  0  0  0  0  0
    7.7790  -16.6046    2.0729 H   0  0  0  0  0  0  0  0  0  0  0  0
    6.6571  -11.2241    4.5229 H   0  0  0  0  0  0  0  0  0  0  0  0
    5.4470   -5.1348    6.4076 H   0  0  0  0  0  0  0  0  0  0  0  0
    6.2566   -6.6752    6.0589 H   0  0  0  0  0  0  0  0  0  0  0  0
    6.5170   -6.0602    8.4650 H   0  0  0  0  0  0  0  0  0  0  0  0
    4.7586   -6.0089    8.6468 H   0  0  0  0  0  0  0  0  0  0  0  0
    5.5637   -7.5408    8.3004 H   0  0  0  0  0  0  0  0  0  0  0  0
    5.8403   -9.2022    5.5165 H   0  0  0  0  0  0  0  0  0  0  0  0
    3.1093   -3.9970    6.6864 H   0  0  0  0  0  0  0  0  0  0  0  0
    0.5043    1.9869    6.0470 H   0  0  0  0  0  0  0  0  0  0  0  0
    1.5865    0.6598    6.5143 H   0  0  0  0  0  0  0  0  0  0  0  0
    0.9197    1.4780    3.6375 H   0  0  0  0  0  0  0  0  0  0  0  0
    1.9909    0.1520    4.0955 H   0  0  0  0  0  0  0  0  0  0  0  0
    2.4382    1.8209    4.4754 H   0  0  0  0  0  0  0  0  0  0  0  0
    1.8890   -1.9686    6.3208 H   0  0  0  0  0  0  0  0  0  0  0  0
   -1.7177    2.4828    4.6300 H   0  0  0  0  0  0  0  0  0  0  0  0
   -9.2344    4.1222    2.2357 H   0  0  0  0  0  0  0  0  0  0  0  0
   -7.6943    4.9316    2.5323 H   0  0  0  0  0  0  0  0  0  0  0  0
   -7.3421    3.4727    4.5543 H   0  0  0  0  0  0  0  0  0  0  0  0
   -8.7811    4.4849    4.6691 H   0  0  0  0  0  0  0  0  0  0  0  0
   -8.9434    2.7714    4.3003 H   0  0  0  0  0  0  0  0  0  0  0  0
   -9.2703    1.8084    1.3681 H   0  0  0  0  0  0  0  0  0  0  0  0
   -8.3603    1.2070    2.7607 H   0  0  0  0  0  0  0  0  0  0  0  0
   -6.5986    0.3263    1.2230 H   0  0  0  0  0  0  0  0  0  0  0  0
   -8.1818   -0.3399    0.8148 H   0  0  0  0  0  0  0  0  0  0  0  0
   -7.4940    0.9640   -0.1582 H   0  0  0  0  0  0  0  0  0  0  0  0
   -6.1997    1.0879    3.7256 H   0  0  0  0  0  0  0  0  0  0  0  0
   -7.3527    4.7514   -1.9497 H   0  0  0  0  0  0  0  0  0  0  0  0
   -6.2516    7.4158   -7.9198 H   0  0  0  0  0  0  0  0  0  0  0  0
   -7.1057    6.9463   -6.4358 H   0  0  0  0  0  0  0  0  0  0  0  0
   -7.2607    5.1436   -8.1549 H   0  0  0  0  0  0  0  0  0  0  0  0
   -5.4967    5.0545   -8.2302 H   0  0  0  0  0  0  0  0  0  0  0  0
   -6.3401    4.5846   -6.7522 H   0  0  0  0  0  0  0  0  0  0  0  0
   -6.7143    5.9776   -3.9882 H   0  0  0  0  0  0  0  0  0  0  0  0
   -3.8264    7.5809   -9.0120 H   0  0  0  0  0  0  0  0  0  0  0  0
    3.2368    8.8095   -9.1004 H   0  0  0  0  0  0  0  0  0  0  0  0
    4.1533    8.9571  -10.6138 H   0  0  0  0  0  0  0  0  0  0  0  0
    4.8138    6.8958   -9.3691 H   0  0  0  0  0  0  0  0  0  0  0  0
    4.0523    6.4745  -10.9086 H   0  0  0  0  0  0  0  0  0  0  0  0
    3.1390    6.3311   -9.4044 H   0  0  0  0  0  0  0  0  0  0  0  0
    0.8876    8.0486   -8.1124 H   0  0  0  0  0  0  0  0  0  0  0  0
    3.9663    8.7502  -13.2479 H   0  0  0  0  0  0  0  0  0  0  0  0
    2.5703    8.8163  -15.4505 H   0  0  0  0  0  0  0  0  0  0  0  0
  1  2  1  0  0  0  0
  2  3  1  0  0  0  0
  3  4  1  0  0  0  0
  4  5  2  0  0  0  0
  5  6  1  0  0  0  0
  6  7  1  0  0  0  0
  7  8  1  0  0  0  0
  6  9  1  0  0  0  0
  9 10  1  0  0  0  0
  5 11  1  0  0  0  0
 11 12  2  0  0  0  0
 12 13  1  0  0  0  0
 12 14  1  0  0  0  0
 14 15  1  0  0  0  0
 15 16  1  0  0  0  0
 16 17  1  0  0  0  0
 17 18  2  0  0  0  0
 18 19  1  0  0  0  0
 19 20  1  0  0  0  0
 20 21  1  0  0  0  0
 19 22  1  0  0  0  0
 22 23  1  0  0  0  0
 18 24  1  0  0  0  0
 24 25  2  0  0  0  0
 25 26  1  0  0  0  0
 25 27  1  0  0  0  0
 27 28  1  0  0  0  0
 28 29  1  0  0  0  0
 29 30  1  0  0  0  0
 30 31  2  0  0  0  0
 31 32  1  0  0  0  0
 32 33  1  0  0  0  0
 33 34  1  0  0  0  0
 32 35  1  0  0  0  0
 35 36  1  0  0  0  0
 31 37  1  0  0  0  0
 37 38  2  0  0  0  0
 38 39  1  0  0  0  0
 38 40  1  0  0  0  0
 40 41  1  0  0  0  0
 41 42  1  0  0  0  0
 42 43  1  0  0  0  0
 43 44  2  0  0  0  0
 44 45  1  0  0  0  0
 45 46  1  0  0  0  0
 46 47  1  0  0  0  0
 47 48  1  0  0  0  0
 46 49  1  0  0  0  0
 49 50  1  0  0  0  0
 46 51  1  0  0  0  0
 51 52  1  0  0  0  0
 44 53  1  0  0  0  0
 53 54  2  0  0  0  0
 54 55  1  0  0  0  0
 54 56  1  0  0  0  0
 56 57  1  0  0  0  0
 57 58  1  0  0  0  0
 58 59  1  0  0  0  0
 59 60  2  0  0  0  0
 60 61  1  0  0  0  0
 61 62  1  0  0  0  0
 62 63  1  0  0  0  0
 61 64  1  0  0  0  0
 64 65  1  0  0  0  0
 60 66  1  0  0  0  0
 66 67  2  0  0  0  0
 67 68  1  0  0  0  0
 67 69  1  0  0  0  0
 69 70  1  0  0  0  0
 70 71  1  0  0  0  0
 71 72  1  0  0  0  0
 72 73  2  0  0  0  0
 73 74  1  0  0  0  0
 74 75  1  0  0  0  0
 75 76  1  0  0  0  0
 74 77  1  0  0  0  0
 77 78  1  0  0  0  0
 73 79  1  0  0  0  0
 79 80  2  0  0  0  0
 80 81  1  0  0  0  0
 10  1  2  0  0  0  0
 23 14  2  0  0  0  0
 36 27  2  0  0  0  0
 52 40  2  0  0  0  0
 65 56  2  0  0  0  0
 78 69  2  0  0  0  0
  9  3  2  0  0  0  0
 22 16  2  0  0  0  0
 35 29  2  0  0  0  0
 51 42  2  0  0  0  0
 64 58  2  0  0  0  0
 77 71  2  0  0  0  0
 13  4  1  0  0  0  0
 26 17  1  0  0  0  0
 39 30  1  0  0  0  0
 55 43  1  0  0  0  0
 68 59  1  0  0  0  0
 81 72  1  0  0  0  0
  1 82  1  0  0  0  0
  7 83  1  0  0  0  0
  7 84  1  0  0  0  0
  8 85  1  0  0  0  0
  8 86  1  0  0  0  0
  8 87  1  0  0  0  0
 10 88  1  0  0  0  0
 11 89  1  0  0  0  0
 20 90  1  0  0  0  0
 20 91  1  0  0  0  0
 21 92  1  0  0  0  0
 21 93  1  0  0  0  0
 21 94  1  0  0  0  0
 23 95  1  0  0  0  0
 24 96  1  0  0  0  0
 33 97  1  0  0  0  0
 33 98  1  0  0  0  0
 34 99  1  0  0  0  0
 34100  1  0  0  0  0
 34101  1  0  0  0  0
 36102  1  0  0  0  0
 37103  1  0  0  0  0
 47104  1  0  0  0  0
 47105  1  0  0  0  0
 48106  1  0  0  0  0
 48107  1  0  0  0  0
 48108  1  0  0  0  0
 49109  1  0  0  0  0
 49110  1  0  0  0  0
 50111  1  0  0  0  0
 50112  1  0  0  0  0
 50113  1  0  0  0  0
 52114  1  0  0  0  0
 53115  1  0  0  0  0
 62116  1  0  0  0  0
 62117  1  0  0  0  0
 63118  1  0  0  0  0
 63119  1  0  0  0  0
 63120  1  0  0  0  0
 65121  1  0  0  0  0
 66122  1  0  0  0  0
 75123  1  0  0  0  0
 75124  1  0  0  0  0
 76125  1  0  0  0  0
 76126  1  0  0  0  0
 76127  1  0  0  0  0
 78128  1  0  0  0  0
 79129  1  0  0  0  0
 80130  1  0  0  0  0
M  END
