125

C        -10.94670        2.77330       -5.07860
S        -10.43100        1.14270       -5.10210
C         -8.91970        1.55070       -4.32310
C         -8.85260        2.91480       -4.10230
C        -10.02100        3.59890       -4.51950
C        -10.21160        5.07220       -4.33850
C         -9.30770        5.57680       -3.20660
C         -9.41130        7.01480       -3.10190
N         -9.50110        8.15240       -3.05490
C         -7.85580        5.15900       -3.51490
C         -6.94470        5.75060       -2.56010
N         -6.23260        6.19040       -1.78300
C         -7.70450        3.62980       -3.46100
C         -7.96830        0.53330       -3.99430
S         -6.39400        0.96400       -3.37880
C         -5.90520       -0.69930       -3.27030
C         -6.92940       -1.53150       -3.64440
C         -8.08880       -0.84280       -4.07210
C         -9.29360       -1.55540       -4.60510
C         -9.24190       -3.08280       -4.42390
C         -9.71890       -3.44050       -3.10640
N        -10.09200       -3.71470       -2.06190
C         -7.81070       -3.62800       -4.61010
C         -7.30480       -3.24770       -5.90980
N         -6.88890       -2.90960       -6.91850
C         -6.90650       -3.02280       -3.52890
C         -4.56650       -0.98500       -2.82690
S         -3.98010       -0.19660       -1.38910
C         -2.39510       -0.89030       -1.59330
C         -2.35020       -1.68990       -2.71840
C         -3.57560       -1.73010       -3.42190
C         -3.70710       -2.44440       -4.73170
C         -2.33180       -2.55080       -5.40450
C         -2.44820       -3.31240       -6.62820
N         -2.55590       -3.94760       -7.57100
C         -1.36600       -3.25820       -4.43080
C         -0.10340       -3.53790       -5.07840
N          0.90420       -3.73060       -5.58010
C         -1.11170       -2.38350       -3.19370
C         -1.38490       -0.56360       -0.64730
S          0.19740       -1.30550       -0.64060
C          0.64870       -0.39220        0.75210
C          1.89460       -0.37630        1.41530
C          2.12470        0.61060        2.36560
O          1.22080        1.55340        2.68240
C         -0.17640        1.27780        2.43160
C         -0.83590        2.65700        2.27500
C         -0.65990        3.55780        3.49160
C         -0.69250        0.47290        3.64710
C         -2.18770        0.19050        3.63880
C         -0.36220        0.45250        1.17950
C         -1.50410        0.34830        0.38300
C          3.41640        0.55530        2.90170
C          4.17550       -0.47610        2.38680
S          3.27590       -1.38850        1.20100
C          5.51430       -0.78920        2.74480
S          6.34360        0.25950        3.85740
C          7.79860       -0.69660        3.77600
C          7.62460       -1.76520        2.91490
C          6.33760       -1.82520        2.34440
C          5.90920       -2.90060        1.39710
C          6.91290       -4.06140        1.35210
C          6.76420       -4.89160        2.52620
N          6.64430       -5.54110        3.45840
C          8.35520       -3.51810        1.28750
C          8.48570       -2.63330        0.15170
N          8.57980       -1.92470       -0.73930
C          8.68970       -2.76210        2.58090
C          8.93300       -0.36210        4.57820
S         10.16160       -1.55530        4.92170
C         11.01650       -0.45980        5.91880
C         10.41240        0.75810        5.98940
C          9.22070        0.82310        5.22700
C          8.38150        2.06010        5.16920
C          9.14630        3.29070        5.68110
C         10.11750        3.71680        4.69880
N         10.89180        4.04610        3.92610
C          9.86870        2.97150        7.00910
C          8.90910        2.48710        7.97540
N          8.14890        2.09650        8.73350
C         10.95650        1.91540        6.76880
H        -11.90870        3.02980       -5.47440
H        -11.25810        5.28970       -4.11420
H         -9.95900        5.59830       -5.26570
H         -9.61830        5.13580       -2.25100
H         -7.59100        5.52680       -4.51420
H         -7.61450        3.30810       -2.41650
H         -6.76900        3.36060       -3.95900
H        -10.19830       -1.17650       -4.11980
H         -9.38170       -1.33290       -5.67430
H         -9.91590       -3.54820       -5.15380
H         -7.81450       -4.72200       -4.53850
H         -7.29010       -3.31390       -2.54470
H         -5.89150       -3.40620       -3.61040
H         -4.08670       -3.46230       -4.58490
H         -4.41500       -1.92310       -5.38110
H         -1.94670       -1.55270       -5.64500
H         -1.81220       -4.21490       -4.13060
H         -0.35020       -1.63080       -3.42930
H         -0.70110       -3.00810       -2.39510
H         -1.89570        2.52340        2.06350
H         -0.37680        3.13550        1.40690
H          0.39000        3.61910        3.76290
H         -1.01850        4.55760        3.25940
H         -1.22210        3.18450        4.34330
H         -0.41980        1.02240        4.54900
H         -0.14590       -0.47510        3.66370
H         -2.76210        1.11140        3.68810
H         -2.44670       -0.41720        4.50260
H         -2.47570       -0.35310        2.74210
H         -2.40570        0.91490        0.53040
H          3.78190        1.24290        3.64180
H          4.92750       -3.28390        1.69130
H          5.80510       -2.47760        0.39190
H          6.70590       -4.68410        0.47310
H          9.06280       -4.34580        1.15680
H          9.65260       -2.25650        2.46800
H          8.78960       -3.48470        3.39780
H         11.92410       -0.77480        6.39350
H          7.48830        1.91990        5.78800
H          8.04510        2.24140        4.14440
H          8.43870        4.11540        5.83170
H         10.32450        3.88370        7.41380
H         11.77530        2.37680        6.20680
H         11.36210        1.56630        7.72160
