198

C         11.78550       -6.69050       16.81780
S         11.01120       -7.09110       15.33290
C         11.09410       -5.43940       14.82870
C         10.60200       -4.85250       13.63540
C         10.60210       -3.46930       13.53530
O         11.03450       -2.64690       14.50940
C         11.92280       -3.16550       15.51530
C         11.66730       -2.35720       16.80910
C         11.11610       -0.95280       16.58660
C         13.37650       -3.04510       14.99470
C         13.81320       -1.62670       14.65420
C         11.68400       -4.63540       15.77920
C         12.08240       -5.36660       16.91630
C         10.03560       -3.01110       12.33650
C          9.61480       -4.03660       11.52090
S          9.91890       -5.59780       12.23650
C          8.99080       -3.94170       10.24760
C          8.55980       -4.96350        9.45160
C          7.94230       -4.52900        8.25560
C          7.35470       -5.31290        7.24590
C          7.23970       -6.75410        7.39000
S          7.80030       -7.84550        6.15910
C          7.31100       -9.23880        7.06210
C          7.47360      -10.61140        6.50910
C          6.33770      -10.94520        5.53920
C          6.73650       -8.86290        8.23920
Cl         6.11450       -9.96580        9.39740
C          6.69900       -7.45590        8.43180
Cl         5.96670       -6.73290        9.80570
C          6.86730       -4.64490        6.13270
C          6.89220       -3.23430        6.00490
C          7.42130       -2.44720        7.04410
C          7.38690       -0.99600        6.97720
S          8.81950       -0.03880        7.20720
C          7.95680        1.44520        6.99270
C          8.65590        2.75970        7.01940
C          9.09260        3.17660        5.61260
C          6.63830        1.19680        6.75260
C          6.31010       -0.18500        6.74690
Cl         4.70120       -0.75050        6.55080
Cl         5.46760        2.42410        6.49350
C          7.95480       -3.11790        8.13520
S          8.67370       -2.37020        9.53440
C          6.33930       -2.80430        4.77580
C          5.86840       -3.82440        4.00010
S          6.11600       -5.39220        4.75080
C          5.20880       -3.73380        2.74630
S          4.81040       -2.17920        2.05970
C          4.05530       -2.94990        0.71050
C          3.30700       -2.35090       -0.32610
C          2.50730       -3.16800       -1.11770
O          2.47000       -4.50660       -0.99710
C          3.58490       -5.16430       -0.35480
C          4.69150       -5.32160       -1.42340
C          5.91180       -6.10160       -0.95600
C          3.02540       -6.50120        0.15430
C          2.43410       -7.37250       -0.94750
C          4.12090       -4.33300        0.78680
C          4.77010       -4.76630        1.94500
C          1.68650       -2.44580       -1.99260
C          1.86280       -1.08260       -1.88910
S          3.06980       -0.67780       -0.69450
C          1.17130       -0.06020       -2.58470
S         -0.15750       -0.44940       -3.64940
C         -0.42950        1.23040       -3.95410
C         -1.47010        1.82480       -4.70080
C         -1.64460        3.20130       -4.61440
O         -0.84950        4.01300       -3.89760
C          0.44280        3.53550       -3.47190
C          0.73560        4.28570       -2.16420
C         -0.19820        3.86360       -1.03550
C          1.47250        3.86560       -4.58010
C          1.55210        5.34840       -4.92130
C          0.46580        2.03940       -3.27510
C          1.37060        1.30300       -2.50800
C         -2.79030        3.64600       -5.28780
C         -3.48280        2.62300       -5.89630
S         -2.70710        1.08040       -5.65030
C         -4.70350        2.70420       -6.61780
C         -5.37580        1.69150       -7.24040
C         -6.59950        2.09670       -7.82120
C         -7.55000        1.29960       -8.48550
C         -7.26310       -0.08530       -8.81270
S         -8.36360       -1.37280       -8.42190
C         -7.33440       -2.57110       -9.12590
C         -7.68510       -4.01760       -9.08780
C         -7.08930       -4.69320       -7.85020
C         -6.20550       -1.99320       -9.62640
Cl        -4.95220       -2.86660      -10.40770
C         -6.16210       -0.58480       -9.45430
Cl        -4.88540        0.38080      -10.07350
C         -8.75640        1.90140       -8.81350
C         -9.03110        3.26960       -8.56820
C         -8.04760        4.08590       -7.97920
C         -8.26900        5.50310       -7.74400
S         -9.64690        6.07680       -6.85010
C         -9.14960        7.72910       -6.98550
C         -9.91930        8.82760       -6.33910
C         -9.41770        9.07840       -4.91480
C         -7.98060        7.81400       -7.68000
C         -7.48010        6.55690       -8.11360
Cl        -6.06920        6.41280       -9.07510
Cl        -7.17950        9.29210       -8.02160
C         -6.85940        3.47260       -7.60510
S         -5.55720        4.23100       -6.73370
C        -10.32400        3.63690       -9.00840
C        -11.02930        2.60370       -9.56000
S        -10.10210        1.11680       -9.58840
C        -12.36320        2.62800      -10.05520
S        -13.07000        1.22070      -10.80430
C        -14.55980        2.06080      -11.03010
C        -15.74870        1.59770      -11.64630
C        -16.77020        2.50230      -11.87450
O        -16.70900        3.80690      -11.55080
C        -15.73090        4.24320      -10.58550
C        -15.38150        5.68360      -10.98970
C        -14.61880        5.74230      -12.30810
C        -16.37430        4.17180       -9.17870
C        -17.64780        4.99750       -9.04470
C        -14.50590        3.36020      -10.56100
C        -13.26150        3.67330      -10.00560
C        -17.87040        1.92040      -12.54310
C        -17.67240        0.59910      -12.79710
S        -16.15160        0.02300      -12.23850
H         11.97740       -7.46650       17.53100
H         10.94410       -2.90880       17.41490
H         12.60170       -2.30480       17.36960
H         11.79380       -0.34430       15.99790
H         10.16370       -1.00000       16.06690
H         10.96270       -0.47170       17.55020
H         13.44490       -3.66380       14.09470
H         14.04340       -3.47630       15.74380
H         13.08360       -1.15830       13.99840
H         14.77290       -1.65090       14.14260
H         13.92220       -1.02480       15.55220
H         12.57080       -4.93320       17.76990
H          9.93310       -1.97260       12.08080
H          8.69230       -5.99650        9.71790
H          7.47220      -11.32390        7.33570
H          8.42910      -10.68180        5.98650
H          5.37950      -10.89340        6.04990
H          6.32970      -10.23870        4.71270
H          6.46750      -11.94830        5.14220
H          9.53070        2.68890        7.66740
H          7.97650        3.51150        7.42640
H          9.77210        2.43790        5.19430
H          8.22730        3.26270        4.96020
H          9.59920        4.13730        5.64840
H          6.29410       -1.77650        4.46490
H          4.24980       -5.80080       -2.29820
H          4.99920       -4.31490       -1.72140
H          5.65860       -7.13620       -0.74150
H          6.67070       -6.09280       -1.73480
H          6.33690       -5.65410       -0.06050
H          3.81650       -7.04330        0.67040
H          2.24540       -6.26650        0.88190
H          1.92770       -8.22740       -0.50550
H          3.20790       -7.74380       -1.61420
H          1.71350       -6.80360       -1.52770
H          4.92720       -5.79440        2.21700
H          0.98420       -2.90090       -2.66620
H          0.59760        5.34930       -2.35650
H          1.77460        4.11530       -1.88190
H         -0.00470        4.46160       -0.14870
H         -0.05850        2.81530       -0.78170
H         -1.23300        4.01250       -1.33440
H          1.17700        3.30780       -5.47340
H          2.44890        3.49500       -4.26340
H          0.55540        5.74460       -5.09940
H          2.14650        5.48810       -5.82100
H          2.01470        5.91220       -4.11590
H          2.15130        1.72890       -1.90380
H         -3.10480        4.67290       -5.31970
H         -5.01220        0.68000       -7.25070
H         -7.29310       -4.49750       -9.98700
H         -8.77070       -4.12540       -9.07720
H         -7.47020       -4.22680       -6.94490
H         -7.35240       -5.74740       -7.83790
H         -6.00600       -4.60420       -7.85810
H         -9.79960        9.73660       -6.93210
H        -10.97730        8.56230       -6.31190
H         -8.36700        9.35620       -4.93030
H         -9.98470        9.88330       -4.45520
H         -9.53120        8.18100       -4.31130
H        -10.71680        4.63210       -8.91820
H        -16.31660        6.23260      -11.09760
H        -14.79800        6.14440      -10.19240
H        -14.44520        6.77700      -12.59320
H        -15.19610        5.25950      -13.09280
H        -13.65760        5.23980      -12.22690
H        -16.60580        3.12120       -8.98190
H        -15.63370        4.49260       -8.44430
H        -18.14490        4.76030       -8.10720
H        -17.42850        6.06160       -9.05470
H        -18.32620        4.77210       -9.86370
H        -13.01840        4.62470       -9.57030
H        -18.75340        2.46780      -12.81480
H        -18.34140       -0.08420      -13.28030
