
  xtb     03022205383D
 energy: -166.093677442620 gnorm: 0.000340966151 xtb: 6.4.1 (unknown)
 75 82  0     0  0            999 V2000
    1.5219   -3.4628    6.9508 C   0  0  0  0  0  0  0  0  0  0  0  0
    0.7479   -2.4292    7.3289 O   0  0  0  0  0  0  0  0  0  0  0  0
    0.4503   -1.7090    6.2382 C   0  0  0  0  0  0  0  0  0  0  0  0
    1.0482   -2.2993    5.1293 C   0  0  0  0  0  0  0  0  0  0  0  0
    1.7345   -3.4469    5.6098 C   0  0  0  0  0  0  0  0  0  0  0  0
    1.0568   -1.8741    3.7731 N   0  0  0  0  0  4  0  0  0  0  0  0
    1.2414   -2.7322    2.9355 O   0  0  0  0  0  1  0  0  0  0  0  0
    0.9085   -0.6943    3.5366 O   0  0  0  0  0  0  0  0  0  0  0  0
   -0.4296   -0.5857    6.3644 C   0  0  0  0  0  0  0  0  0  0  0  0
   -0.8963   -0.0008    5.2412 O   0  0  0  0  0  0  0  0  0  0  0  0
   -1.6905    1.0213    5.5819 C   0  0  0  0  0  0  0  0  0  0  0  0
   -1.7538    1.0924    6.9762 C   0  0  0  0  0  0  0  0  0  0  0  0
   -0.9375    0.0483    7.4721 C   0  0  0  0  0  0  0  0  0  0  0  0
   -2.4714    2.0019    7.7862 N   0  0  0  0  0  4  0  0  0  0  0  0
   -3.1468    2.8459    7.2312 O   0  0  0  0  0  1  0  0  0  0  0  0
   -2.3632    1.8736    8.9872 O   0  0  0  0  0  0  0  0  0  0  0  0
   -2.2304    1.7571    4.4866 C   0  0  0  0  0  0  0  0  0  0  0  0
   -1.8424    1.2944    3.2662 O   0  0  0  0  0  0  0  0  0  0  0  0
   -2.3731    2.0665    2.3102 C   0  0  0  0  0  0  0  0  0  0  0  0
   -3.1448    3.0649    2.9342 C   0  0  0  0  0  0  0  0  0  0  0  0
   -3.0436    2.8527    4.3288 C   0  0  0  0  0  0  0  0  0  0  0  0
   -3.8928    4.1143    2.3636 N   0  0  0  0  0  4  0  0  0  0  0  0
   -4.4793    4.8554    3.1235 O   0  0  0  0  0  1  0  0  0  0  0  0
   -3.9101    4.2206    1.1485 O   0  0  0  0  0  0  0  0  0  0  0  0
   -2.0284    1.6941    0.9908 C   0  0  0  0  0  0  0  0  0  0  0  0
   -0.9296    0.3373    0.8498 S   0  0  0  0  0  0  0  0  0  0  0  0
   -0.9765    0.4739   -0.8608 C   0  0  0  0  0  0  0  0  0  0  0  0
   -0.3650   -0.3708   -1.8111 C   0  0  0  0  0  0  0  0  0  0  0  0
   -0.7433   -0.2489   -3.1480 C   0  0  0  0  0  0  0  0  0  0  0  0
   -1.6247    0.6559   -3.5867 O   0  0  0  0  0  0  0  0  0  0  0  0
   -1.8788    1.8308   -2.7762 C   0  0  0  0  0  0  0  0  0  0  0  0
   -0.7753    2.8550   -3.1267 C   0  0  0  0  0  0  0  0  0  0  0  0
   -0.9477    4.2184   -2.4729 C   0  0  0  0  0  0  0  0  0  0  0  0
   -3.2946    2.2879   -3.1580 C   0  0  0  0  0  0  0  0  0  0  0  0
   -3.4507    2.6145   -4.6386 C   0  0  0  0  0  0  0  0  0  0  0  0
   -1.7978    1.5111   -1.3021 C   0  0  0  0  0  0  0  0  0  0  0  0
   -2.3926    2.1958   -0.2494 C   0  0  0  0  0  0  0  0  0  0  0  0
   -0.1522   -1.2237   -3.9641 C   0  0  0  0  0  0  0  0  0  0  0  0
    0.6793   -2.0640   -3.2539 C   0  0  0  0  0  0  0  0  0  0  0  0
    0.7433   -1.6691   -1.5634 S   0  0  0  0  0  0  0  0  0  0  0  0
    1.4493   -3.1575   -3.7451 C   0  0  0  0  0  0  0  0  0  0  0  0
    2.2494   -3.8242   -2.8750 O   0  0  0  0  0  0  0  0  0  0  0  0
    2.8700   -4.8164   -3.5327 C   0  0  0  0  0  0  0  0  0  0  0  0
    2.4614   -4.7946   -4.8637 C   0  0  0  0  0  0  0  0  0  0  0  0
    1.5514   -3.7201   -4.9952 C   0  0  0  0  0  0  0  0  0  0  0  0
    2.8068   -5.6699   -5.9290 N   0  0  0  0  0  4  0  0  0  0  0  0
    2.4669   -5.3265   -7.0412 O   0  0  0  0  0  1  0  0  0  0  0  0
    3.3924   -6.6968   -5.6641 O   0  0  0  0  0  0  0  0  0  0  0  0
    3.7920   -5.6109   -2.7773 C   0  0  0  0  0  0  0  0  0  0  0  0
    4.5990   -6.5193   -3.3705 O   0  0  0  0  0  0  0  0  0  0  0  0
    5.3421   -7.0829   -2.4366 C   0  0  0  0  0  0  0  0  0  0  0  0
    5.0365   -6.5474   -1.2033 C   0  0  0  0  0  0  0  0  0  0  0  0
    4.0256   -5.5825   -1.4199 C   0  0  0  0  0  0  0  0  0  0  0  0
    5.6282   -6.8983    0.0412 N   0  0  0  0  0  4  0  0  0  0  0  0
    6.4905   -7.7498    0.0202 O   0  0  0  0  0  1  0  0  0  0  0  0
    5.2322   -6.3223    1.0294 O   0  0  0  0  0  0  0  0  0  0  0  0
    1.8532   -4.1310    7.7199 H   0  0  0  0  0  0  0  0  0  0  0  0
    2.3051   -4.1289    5.0148 H   0  0  0  0  0  0  0  0  0  0  0  0
   -0.7615   -0.1803    8.5025 H   0  0  0  0  0  0  0  0  0  0  0  0
   -3.5099    3.4380    5.0951 H   0  0  0  0  0  0  0  0  0  0  0  0
   -0.7514    2.9599   -4.2121 H   0  0  0  0  0  0  0  0  0  0  0  0
    0.1811    2.4230   -2.8172 H   0  0  0  0  0  0  0  0  0  0  0  0
   -1.8490    4.7122   -2.8236 H   0  0  0  0  0  0  0  0  0  0  0  0
   -0.0973    4.8486   -2.7210 H   0  0  0  0  0  0  0  0  0  0  0  0
   -1.0009    4.1283   -1.3909 H   0  0  0  0  0  0  0  0  0  0  0  0
   -3.9762    1.4755   -2.8971 H   0  0  0  0  0  0  0  0  0  0  0  0
   -3.5598    3.1554   -2.5566 H   0  0  0  0  0  0  0  0  0  0  0  0
   -2.8923    3.5071   -4.9064 H   0  0  0  0  0  0  0  0  0  0  0  0
   -3.1011    1.7849   -5.2465 H   0  0  0  0  0  0  0  0  0  0  0  0
   -4.4994    2.7914   -4.8627 H   0  0  0  0  0  0  0  0  0  0  0  0
   -3.0639    3.0271   -0.3489 H   0  0  0  0  0  0  0  0  0  0  0  0
   -0.3299   -1.3031   -5.0192 H   0  0  0  0  0  0  0  0  0  0  0  0
    1.0502   -3.4339   -5.8953 H   0  0  0  0  0  0  0  0  0  0  0  0
    6.0480   -7.8391   -2.7207 H   0  0  0  0  0  0  0  0  0  0  0  0
    3.5478   -4.9701   -0.6839 H   0  0  0  0  0  0  0  0  0  0  0  0
  1  2  1  0  0  0  0
  2  3  1  0  0  0  0
  3  4  2  0  0  0  0
  4  5  1  0  0  0  0
  4  6  1  0  0  0  0
  6  7  1  0  0  0  0
  6  8  2  0  0  0  0
  3  9  1  0  0  0  0
  9 10  1  0  0  0  0
 10 11  1  0  0  0  0
 11 12  2  0  0  0  0
 12 13  1  0  0  0  0
 12 14  1  0  0  0  0
 14 15  1  0  0  0  0
 14 16  2  0  0  0  0
 11 17  1  0  0  0  0
 17 18  1  0  0  0  0
 18 19  1  0  0  0  0
 19 20  2  0  0  0  0
 20 21  1  0  0  0  0
 20 22  1  0  0  0  0
 22 23  1  0  0  0  0
 22 24  2  0  0  0  0
 19 25  1  0  0  0  0
 25 26  1  0  0  0  0
 26 27  1  0  0  0  0
 27 28  1  0  0  0  0
 28 29  2  0  0  0  0
 29 30  1  0  0  0  0
 30 31  1  0  0  0  0
 31 32  1  0  0  0  0
 32 33  1  0  0  0  0
 31 34  1  0  0  0  0
 34 35  1  0  0  0  0
 31 36  1  0  0  0  0
 36 37  1  0  0  0  0
 29 38  1  0  0  0  0
 38 39  2  0  0  0  0
 39 40  1  0  0  0  0
 39 41  1  0  0  0  0
 41 42  1  0  0  0  0
 42 43  1  0  0  0  0
 43 44  2  0  0  0  0
 44 45  1  0  0  0  0
 44 46  1  0  0  0  0
 46 47  1  0  0  0  0
 46 48  2  0  0  0  0
 43 49  1  0  0  0  0
 49 50  1  0  0  0  0
 50 51  1  0  0  0  0
 51 52  2  0  0  0  0
 52 53  1  0  0  0  0
 52 54  1  0  0  0  0
 54 55  1  0  0  0  0
 54 56  2  0  0  0  0
  5  1  2  0  0  0  0
 13  9  2  0  0  0  0
 21 17  2  0  0  0  0
 37 25  2  0  0  0  0
 45 41  2  0  0  0  0
 53 49  2  0  0  0  0
 36 27  2  0  0  0  0
 40 28  1  0  0  0  0
  1 57  1  0  0  0  0
  5 58  1  0  0  0  0
 13 59  1  0  0  0  0
 21 60  1  0  0  0  0
 32 61  1  0  0  0  0
 32 62  1  0  0  0  0
 33 63  1  0  0  0  0
 33 64  1  0  0  0  0
 33 65  1  0  0  0  0
 34 66  1  0  0  0  0
 34 67  1  0  0  0  0
 35 68  1  0  0  0  0
 35 69  1  0  0  0  0
 35 70  1  0  0  0  0
 37 71  1  0  0  0  0
 38 72  1  0  0  0  0
 45 73  1  0  0  0  0
 51 74  1  0  0  0  0
 53 75  1  0  0  0  0
M  CHG  1   6   1
M  CHG  1   7  -1
M  CHG  1  14   1
M  CHG  1  15  -1
M  CHG  1  22   1
M  CHG  1  23  -1
M  CHG  1  46   1
M  CHG  1  47  -1
M  CHG  1  54   1
M  CHG  1  55  -1
M  END
