185

C          6.39680       -3.16350        5.87910
C          6.00810       -2.32590        4.85030
C          4.66290       -2.09680        4.58410
O          4.16530       -1.34210        3.56890
C          4.87070       -1.02430        2.45190
C          4.25280       -0.32820        1.49290
O          2.96970        0.06950        1.68310
C          2.22350        0.48410        0.63110
C          0.89780        0.54550        0.75630
O          0.33010        0.22990        1.95920
C         -0.73830       -0.63370        1.95430
C         -0.92840       -1.55390        2.89900
O         -0.14990       -1.84650        3.97100
C          0.77490       -0.92010        4.37880
C          1.92970       -1.21780        4.96470
O          2.35440       -2.48890        5.24510
C          3.69780       -2.67350        5.43450
C          4.10250       -3.50870        6.45760
C          5.45020       -3.80160        6.67640
C          5.77550       -4.74410        7.73430
C          6.80560       -5.59160        7.85100
C          7.96840       -5.84220        7.00010
C          9.17410       -6.02140        7.67510
C         10.36870       -6.27810        7.02420
O         11.55220       -6.43250        7.70660
C         11.56320       -7.19480        8.83470
C         10.76470       -8.22340        9.13020
O          9.75600       -8.61160        8.30390
C          9.04540       -9.72630        8.58580
C          8.19160      -10.21210        7.68500
O          8.00470       -9.55550        6.49470
C          8.17950      -10.30120        5.35580
C          9.04080       -9.90110        4.42080
O          9.77600       -8.78370        4.61220
C         10.78190       -8.47960        3.74710
C         11.57920       -7.42420        3.92900
O         11.56570       -6.54010        4.96500
C         10.37710       -6.32760        5.62540
C          9.19090       -6.12220        4.94490
C          7.97400       -5.92780        5.59700
C          6.79740       -5.80200        4.76070
C          5.56230       -6.26630        5.01030
C          4.44400       -5.96890        4.17860
S          4.60660       -4.86410        2.83370
C          2.91180       -4.94950        2.52410
C          2.17220       -4.25330        1.54600
C          0.78750       -4.34490        1.56850
O          0.10220       -5.08150        2.45940
C          0.79080       -6.09340        3.22280
C          0.05100       -6.15720        4.57100
C          0.26170       -4.91270        5.42140
C          0.62440       -7.45270        2.49620
C          1.24770       -7.49670        1.10610
C          2.25910       -5.80060        3.39620
C          3.13470       -6.37110        4.32760
C          0.17790       -3.57530        0.56690
C          1.08840       -2.92840       -0.23940
S          2.72990       -3.24410        0.26220
C          0.84070       -2.09860       -1.36220
S         -0.73730       -1.40900       -1.63870
C         -0.15240       -0.58170       -3.04110
C         -0.87230        0.25800       -3.91870
C         -0.28620        0.60510       -5.12820
O          0.93020        0.16110       -5.50720
C          1.87150       -0.20600       -4.47490
C          2.83710       -1.19250       -5.15090
C          3.53180       -0.61420       -6.37820
C          2.55200        1.10110       -4.00280
C          3.76770        0.89630       -3.11060
C          1.17910       -0.86060       -3.30020
C          1.73390       -1.71110       -2.33900
C         -1.11020        1.40670       -5.92690
C         -2.31490        1.70360       -5.32190
S         -2.44080        0.96220       -3.74830
C         -3.35850        2.52750       -5.82030
S         -4.65730        3.05510       -4.78090
C         -5.34850        3.97100       -6.07090
C         -6.50930        4.77770       -6.04790
C         -6.97780        5.29020       -7.24640
O         -6.41140        5.02800       -8.44140
C         -5.03230        4.62440       -8.48320
C         -4.11270        5.87880       -8.57920
C         -4.82450        7.14400       -9.04770
C         -4.91660        3.71020       -9.71800
C         -5.35260        4.36940      -11.02010
C         -4.62830        3.84970       -7.24660
C         -3.49780        3.04210       -7.09370
C         -8.14180        6.06180       -7.09260
C         -8.55320        6.15370       -5.78470
S         -7.50270        5.25880       -4.71890
C         -9.68670        6.86380       -5.23620
C        -10.29800        6.36820       -4.08900
C        -11.39520        6.97610       -3.49830
O        -11.93910        6.47310       -2.33610
C        -11.12110        5.93830       -1.38490
C         -9.83570        6.16700       -1.11280
O         -8.97260        6.97390       -1.82440
C         -9.28240        8.30200       -1.88770
C         -9.79450        9.02280       -0.89470
O         -9.96700        8.51630        0.37340
C        -11.17710        8.66790        0.97080
C        -12.35560        8.82320        0.37300
O        -12.49800        8.88830       -0.98670
C        -13.70390        8.52730       -1.48620
C        -13.96920        8.39130       -2.78260
O        -13.16380        8.68930       -3.84960
C        -11.98750        8.07090       -4.14780
C        -11.35650        8.58330       -5.27800
C        -10.20400        8.03610       -5.82160
C         -9.52730        8.70830       -6.92770
C        -10.13410        9.36930       -7.90420
H          7.44710       -3.31740        6.06940
H          6.76420       -1.85220        4.24280
H          5.89030       -1.35870        2.34820
H          4.74140       -0.06980        0.56300
H          2.73320        0.77860       -0.27710
H          0.24520        0.85950       -0.04770
H         -1.43390       -0.54280        1.12880
H         -1.79250       -2.20010        2.85810
H          0.50420        0.11630        4.24950
H          2.56390       -0.41110        5.30590
H          3.33990       -3.95920        7.07500
H          5.02920       -4.77920        8.52020
H          6.83690       -6.17750        8.76400
H          9.18420       -5.95380        8.75410
H         12.37430       -6.92680        9.49380
H         10.89720       -8.77520       10.05260
H          9.18080      -10.18570        9.55820
H          7.62790      -11.12100        7.85690
H          7.59900      -11.20990        5.25240
H          9.16350      -10.43800        3.48710
H         10.91460       -9.12550        2.88800
H         12.39030       -7.22980        3.24460
H          9.20110       -6.16230        3.86480
H          6.96140       -5.29240        3.81700
H          5.36120       -6.85560        5.89330
H          0.38280       -7.04540        5.11140
H         -1.01180       -6.27150        4.34960
H          1.30560       -4.81010        5.70400
H         -0.34060       -4.97270        6.32500
H         -0.02460       -4.02250        4.86990
H          1.07890       -8.22450        3.12040
H         -0.44470       -7.65960        2.41700
H          2.31630       -7.29670        1.15160
H          1.10260       -8.48220        0.66910
H          0.78470       -6.76290        0.45040
H          2.83270       -7.05630        5.09940
H         -0.88490       -3.51100        0.42500
H          3.57710       -1.52210       -4.42330
H          2.24870       -2.06230       -5.45120
H          4.21800        0.18280       -6.10500
H          2.79470       -0.21840       -7.07070
H          4.09840       -1.39470       -6.88060
H          1.79830        1.68280       -3.46370
H          2.83190        1.67070       -4.89060
H          3.52620        0.23360       -2.28320
H          4.59670        0.46650       -3.66640
H          4.09090        1.85330       -2.70640
H          2.74940       -2.06380       -2.33720
H         -0.82330        1.76410       -6.89740
H         -3.28810        5.64700       -9.25440
H         -3.68400        6.07060       -7.59190
H         -4.09690        7.94320       -9.17160
H         -5.56140        7.46440       -8.31520
H         -5.33330        6.98380       -9.99290
H         -5.54560        2.83630       -9.53290
H         -3.88460        3.37020       -9.80610
H         -6.35350        4.77770      -10.91450
H         -4.67100        5.16730      -11.30210
H         -5.36090        3.63080      -11.81850
H         -2.79420        2.83060       -7.87690
H         -8.67030        6.49780       -7.91940
H         -9.90630        5.46760       -3.64000
H        -11.68150        5.27140       -0.74490
H         -9.36470        5.62510       -0.30520
H         -9.01690        8.75660       -2.83040
H        -10.05230       10.06330       -1.03630
H        -11.10780        8.61660        2.04610
H        -13.26180        8.89350        0.96090
H        -14.48530        8.31680       -0.76530
H        -14.97530        8.13440       -3.08580
H        -11.79070        9.46580       -5.72030
H         -8.44620        8.65160       -6.90840
H        -11.20720        9.42120       -7.97740
H         -9.57720        9.87180       -8.67640
