166

C         -2.69290       10.54590       10.61010
S         -2.64110        9.15650        9.59800
C         -2.41850        8.14710       10.98270
C         -2.24450        6.74220       10.98560
C         -2.18890        6.08780       12.20350
O         -2.32960        6.71640       13.38520
C         -2.13180        8.15500       13.47770
C         -0.63360        8.32290       13.83420
C         -0.17640        9.73170       14.17850
C         -3.07580        8.50400       14.65440
C         -3.63410        9.91410       14.78110
C         -2.41280        8.85790       12.16780
C         -2.55320       10.24290       11.92860
C         -2.03700        4.70010       12.07620
C         -1.95870        4.29150       10.76040
S         -2.08180        5.64280        9.66410
C         -1.77210        2.97480       10.26150
S         -1.57890        2.70170        8.54160
C         -1.69240        1.80000       10.98820
C         -1.48380        0.67800       10.18240
C         -1.24710       -0.76640       10.32040
C         -1.28580       -1.50460       11.44600
C         -0.90640       -2.95780       11.48260
N         -2.10240       -3.77250       11.27970
C         -1.72070       -0.94930       12.77210
N         -0.54080       -0.55170       13.53750
C         -1.38170        1.02570        8.82810
C         -1.08190       -0.12920        8.08000
S         -0.80940       -0.53700        6.44000
C         -0.97380       -1.22330        8.94970
C         -0.67850       -2.40270        8.26070
C         -0.53970       -2.20690        6.89770
C         -0.17260       -3.16180        5.91320
S         -0.06900       -2.70370        4.23150
C          0.46230       -4.29090        3.80720
C          0.93450       -4.74220        2.55530
C          1.66080       -5.92640        2.51520
O          1.85950       -6.70520        3.59780
C          0.93270       -6.57520        4.69880
C          1.68190       -7.12610        5.92140
C          2.15130       -8.56610        5.75110
C         -0.32960       -7.38850        4.32940
C         -1.38300       -7.44590        5.42630
C          0.54360       -5.12980        4.90730
C          0.18190       -4.48520        6.09300
C          2.22600       -6.17900        1.25960
C          1.91590       -5.20780        0.32900
S          0.90690       -3.96110        1.01460
C          2.34480       -5.12600       -1.02210
S          1.60250       -4.00540       -2.13590
C          2.68250       -4.50080       -3.39010
C          2.78470       -4.00370       -4.70800
C          3.89410       -4.35780       -5.46510
O          4.87160       -5.16890       -5.01610
C          4.57510       -6.06090       -3.92370
C          3.94630       -7.35270       -4.50140
C          4.82450       -8.05670       -5.52850
C          5.92890       -6.32620       -3.24910
C          6.48990       -5.08030       -2.57310
C          3.57540       -5.46780       -2.96000
C          3.36690       -5.83010       -1.62730
C          3.92250       -3.73510       -6.71900
C          2.82330       -2.93090       -6.94050
S          1.74220       -2.93000       -5.57230
C          2.52530       -2.17940       -8.10840
S          0.90940       -1.59760       -8.42030
C          1.42870       -0.88760       -9.90760
C          0.64370       -0.25960      -10.89880
C          1.22430        0.01620      -12.13040
O          2.51220       -0.24530      -12.42020
C          3.43930       -0.42910      -11.32780
C          4.57000       -1.28720      -11.91030
C          4.08150       -2.66540      -12.34050
C          3.93020        0.98670      -10.93570
C          4.94110        1.03160       -9.79900
C          2.78200       -1.07840      -10.13620
C          3.39210       -1.81840       -9.12040
C          0.31290        0.52600      -13.06420
C         -0.96280        0.64520      -12.55770
S         -1.04210        0.12810      -10.89100
C         -2.12550        1.10930      -13.22310
S         -2.02150        1.71950      -14.86350
C         -3.41660        1.14240      -12.73380
C         -4.33450        1.64440      -13.66140
C         -5.77570        1.90930      -13.77940
C         -6.74200        1.61000      -12.88520
C         -6.41560        1.05820      -11.52320
N         -5.99050        2.15910      -10.65940
C         -8.18300        1.99230      -13.09170
N         -8.42900        3.35330      -12.62910
C         -3.70960        2.00740      -14.86060
C         -4.68130        2.53790      -15.73900
S         -4.73230        3.22620      -17.30780
C         -5.92830        2.50900      -15.11010
C         -6.92590        3.08120      -15.92560
C         -6.42920        3.49960      -17.12300
H         -2.81950       11.51300       10.16690
H         -0.05700        7.95670       12.97920
H         -0.43090        7.65590       14.67590
H          0.89250        9.72310       14.38070
H         -0.35820       10.41280       13.35160
H         -0.68390       10.10210       15.06450
H         -3.92130        7.81710       14.56670
H         -2.54700        8.24190       15.57290
H         -4.26100       10.16470       13.92990
H         -2.84940       10.65810       14.88040
H         -4.25180        9.95910       15.67630
H         -2.54310       11.00260       12.68520
H         -1.98400        4.03720       12.91860
H         -1.77840        1.80440       12.05810
H         -0.10560       -3.15460       10.75420
H         -0.51820       -3.18310       12.47970
H         -1.86660       -4.75830       11.31670
H         -2.50340       -3.57750       10.36780
H         -2.21860       -1.74980       13.32690
H         -2.44730       -0.13760       12.62120
H         -0.04260        0.18460       13.04730
H         -0.81660       -0.19420       14.44580
H         -0.55710       -3.37650        8.69620
H          2.55040       -6.48350        6.08230
H          1.03730       -7.04930        6.79590
H          1.31040       -9.25420        5.72800
H          2.79440       -8.84290        6.58330
H          2.71390       -8.66780        4.82780
H         -0.76290       -6.92540        3.43830
H         -0.01560       -8.39650        4.05460
H         -1.01850       -7.98980        6.29380
H         -2.26970       -7.95470        5.05570
H         -1.66950       -6.44360        5.73680
H          0.18500       -4.95310        7.05970
H          2.83100       -7.04000        1.04820
H          3.71670       -8.02400       -3.67230
H          3.00100       -7.06910       -4.97290
H          4.25610       -8.83820       -6.02700
H          5.69120       -8.51270       -5.05770
H          5.16610       -7.34550       -6.27650
H          6.62490       -6.65080       -4.02230
H          5.81310       -7.13310       -2.52530
H          7.47680       -5.28820       -2.16700
H          5.84450       -4.74990       -1.76260
H          6.57560       -4.27370       -3.29700
H          3.94780       -6.56580       -1.10280
H          4.70760       -3.88680       -7.43510
H          5.36140       -1.38660      -11.16880
H          4.97250       -0.75900      -12.77600
H          3.69590       -3.22230      -11.48940
H          4.89780       -3.22990      -12.78430
H          3.28780       -2.56560      -13.07640
H          4.35530        1.44640      -11.83060
H          3.04740        1.56720      -10.65250
H          5.86750        0.53530      -10.07550
H          4.54200        0.55630       -8.90620
H          5.17140        2.06700       -9.55970
H          4.43500       -2.07450       -9.09960
H          0.57550        0.78560      -14.07300
H         -3.62430        0.80410      -11.73500
H         -7.31570        0.62760      -11.07470
H         -5.67100        0.25280      -11.61780
H         -5.77820        1.81260       -9.72960
H         -5.14740        2.58540      -11.03160
H         -8.46800        1.92000      -14.14130
H         -8.83400        1.32860      -12.51720
H         -7.86120        4.00480      -13.16250
H         -8.14110        3.42900      -11.65750
H         -7.96060        3.20870      -15.66610
H         -6.96450        3.96550      -17.92640
