
  xtb     03012221463D
 energy: -160.445715637953 gnorm: 0.000237190002 xtb: 6.4.1 (unknown)
 90102  0     0  0            999 V2000
   -8.9971    1.8017    6.4595 C   0  0  0  0  0  0  0  0  0  0  0  0
   -7.7106    0.9984    7.2872 S   0  0  0  0  0  0  0  0  0  0  0  0
   -6.7740    0.7770    5.8046 C   0  0  0  0  0  0  0  0  0  0  0  0
   -7.4601    1.3644    4.7232 C   0  0  0  0  0  0  0  0  0  0  0  0
   -8.7493    1.9228    5.1200 C   0  0  0  0  0  0  0  0  0  0  0  0
   -9.6236    2.5179    4.2039 C   0  0  0  0  0  0  0  0  0  0  0  0
   -9.2954    2.7212    2.5602 S   0  0  0  0  0  3  0  0  0  0  0  0
   -7.7255    2.0612    2.3923 C   0  0  0  0  0  0  0  0  0  0  0  0
   -7.0100    1.4873    3.4025 C   0  0  0  0  0  0  0  0  0  0  0  0
   -5.5856    0.0436    5.8087 C   0  0  0  0  0  0  0  0  0  0  0  0
   -4.8476   -0.4938    4.2981 S   0  0  0  0  0  0  0  0  0  0  0  0
   -3.6277   -1.4536    5.1183 C   0  0  0  0  0  0  0  0  0  0  0  0
   -3.7092   -1.2771    6.4927 C   0  0  0  0  0  0  0  0  0  0  0  0
   -4.8346   -0.4622    6.9077 C   0  0  0  0  0  0  0  0  0  0  0  0
   -5.0807   -0.2043    8.2332 C   0  0  0  0  0  0  0  0  0  0  0  0
   -4.1183   -0.7536    9.5499 S   0  0  0  0  0  3  0  0  0  0  0  0
   -2.7902   -1.5221    8.7478 C   0  0  0  0  0  0  0  0  0  0  0  0
   -2.7182   -1.7035    7.4162 C   0  0  0  0  0  0  0  0  0  0  0  0
   -2.7463   -2.2156    4.3349 C   0  0  0  0  0  0  0  0  0  0  0  0
   -2.3669   -1.6736    2.7065 S   0  0  0  0  0  0  0  0  0  0  0  0
   -1.3043   -3.0477    2.4158 C   0  0  0  0  0  0  0  0  0  0  0  0
   -1.2458   -3.8728    3.5298 C   0  0  0  0  0  0  0  0  0  0  0  0
   -2.1308   -3.4565    4.5997 C   0  0  0  0  0  0  0  0  0  0  0  0
   -2.3911   -4.2626    5.6849 C   0  0  0  0  0  0  0  0  0  0  0  0
   -1.5781   -5.7372    6.0228 S   0  0  0  0  0  3  0  0  0  0  0  0
   -0.3877   -5.7992    4.7646 C   0  0  0  0  0  0  0  0  0  0  0  0
   -0.3474   -4.9569    3.7141 C   0  0  0  0  0  0  0  0  0  0  0  0
   -0.6464   -3.1594    1.1771 C   0  0  0  0  0  0  0  0  0  0  0  0
   -0.1505   -1.7027    0.3357 S   0  0  0  0  0  0  0  0  0  0  0  0
    0.6206   -2.6240   -0.9416 C   0  0  0  0  0  0  0  0  0  0  0  0
    0.3943   -3.9804   -0.7928 C   0  0  0  0  0  0  0  0  0  0  0  0
   -0.3341   -4.3078    0.4159 C   0  0  0  0  0  0  0  0  0  0  0  0
   -0.7576   -5.5848    0.7044 C   0  0  0  0  0  0  0  0  0  0  0  0
   -0.4147   -6.9735   -0.2518 S   0  0  0  0  0  3  0  0  0  0  0  0
    0.4090   -6.2876   -1.6122 C   0  0  0  0  0  0  0  0  0  0  0  0
    0.7078   -4.9836   -1.7536 C   0  0  0  0  0  0  0  0  0  0  0  0
    1.3822   -1.9449   -1.9254 C   0  0  0  0  0  0  0  0  0  0  0  0
    1.0736   -0.2564   -2.2761 S   0  0  0  0  0  0  0  0  0  0  0  0
    2.3734   -0.2283   -3.4197 C   0  0  0  0  0  0  0  0  0  0  0  0
    2.7811    0.8170   -4.2563 C   0  0  0  0  0  0  0  0  0  0  0  0
    3.7010    0.5425   -5.2769 C   0  0  0  0  0  0  0  0  0  0  0  0
    4.2147   -0.6871   -5.4815 O   0  0  0  0  0  0  0  0  0  0  0  0
    4.2569   -1.5924   -4.3597 C   0  0  0  0  0  0  0  0  0  0  0  0
    4.3478   -2.9959   -4.9791 C   0  0  0  0  0  0  0  0  0  0  0  0
    5.5525   -3.1816   -5.8939 C   0  0  0  0  0  0  0  0  0  0  0  0
    5.4961   -1.2032   -3.5186 C   0  0  0  0  0  0  0  0  0  0  0  0
    5.7732   -2.1128   -2.3307 C   0  0  0  0  0  0  0  0  0  0  0  0
    3.0200   -1.4603   -3.5041 C   0  0  0  0  0  0  0  0  0  0  0  0
    2.4568   -2.4141   -2.6632 C   0  0  0  0  0  0  0  0  0  0  0  0
    3.9647    1.6342   -6.0867 C   0  0  0  0  0  0  0  0  0  0  0  0
    3.2731    2.7898   -5.7124 C   0  0  0  0  0  0  0  0  0  0  0  0
    2.2651    2.4711   -4.3094 S   0  0  0  0  0  0  0  0  0  0  0  0
    3.3681    4.0296   -6.3398 C   0  0  0  0  0  0  0  0  0  0  0  0
    4.4266    4.1753   -7.7361 S   0  0  0  0  0  0  0  0  0  0  0  0
    4.0336    5.8450   -7.9311 C   0  0  0  0  0  0  0  0  0  0  0  0
    3.1533    6.2991   -7.0058 C   0  0  0  0  0  0  0  0  0  0  0  0
    2.7410    5.2764   -6.0590 C   0  0  0  0  0  0  0  0  0  0  0  0
    1.8626    5.5267   -5.0434 C   0  0  0  0  0  0  0  0  0  0  0  0
    1.1221    7.0599   -4.7442 S   0  0  0  0  0  3  0  0  0  0  0  0
    1.7849    8.0575   -6.0033 C   0  0  0  0  0  0  0  0  0  0  0  0
    2.6545    7.6405   -6.9318 C   0  0  0  0  0  0  0  0  0  0  0  0
   -9.8484    2.1397    7.0120 H   0  0  0  0  0  0  0  0  0  0  0  0
  -10.5836    2.8875    4.5217 H   0  0  0  0  0  0  0  0  0  0  0  0
   -7.3355    2.1359    1.3925 H   0  0  0  0  0  0  0  0  0  0  0  0
   -6.0250    1.1330    3.1467 H   0  0  0  0  0  0  0  0  0  0  0  0
   -5.8905    0.4117    8.5730 H   0  0  0  0  0  0  0  0  0  0  0  0
   -2.0136   -1.8424    9.4208 H   0  0  0  0  0  0  0  0  0  0  0  0
   -1.8325   -2.1717    7.0114 H   0  0  0  0  0  0  0  0  0  0  0  0
   -3.1550   -4.0231    6.4040 H   0  0  0  0  0  0  0  0  0  0  0  0
    0.3157   -6.6041    4.8905 H   0  0  0  0  0  0  0  0  0  0  0  0
    0.4299   -5.0932    2.9758 H   0  0  0  0  0  0  0  0  0  0  0  0
   -1.3619   -5.8050    1.5666 H   0  0  0  0  0  0  0  0  0  0  0  0
    0.6475   -7.0188   -2.3659 H   0  0  0  0  0  0  0  0  0  0  0  0
    1.1724   -4.6685   -2.6752 H   0  0  0  0  0  0  0  0  0  0  0  0
    3.4336   -3.1505   -5.5568 H   0  0  0  0  0  0  0  0  0  0  0  0
    4.3727   -3.7365   -4.1806 H   0  0  0  0  0  0  0  0  0  0  0  0
    5.5841   -2.3868   -6.6334 H   0  0  0  0  0  0  0  0  0  0  0  0
    5.4771   -4.1357   -6.4105 H   0  0  0  0  0  0  0  0  0  0  0  0
    6.4808   -3.1735   -5.3289 H   0  0  0  0  0  0  0  0  0  0  0  0
    6.3595   -1.1807   -4.1850 H   0  0  0  0  0  0  0  0  0  0  0  0
    5.3329   -0.1828   -3.1596 H   0  0  0  0  0  0  0  0  0  0  0  0
    4.9155   -2.1476   -1.6631 H   0  0  0  0  0  0  0  0  0  0  0  0
    6.0058   -3.1239   -2.6544 H   0  0  0  0  0  0  0  0  0  0  0  0
    6.6244   -1.7318   -1.7713 H   0  0  0  0  0  0  0  0  0  0  0  0
    2.8487   -3.4064   -2.5401 H   0  0  0  0  0  0  0  0  0  0  0  0
    4.6329    1.6057   -6.9274 H   0  0  0  0  0  0  0  0  0  0  0  0
    4.4854    6.3971   -8.7313 H   0  0  0  0  0  0  0  0  0  0  0  0
    1.5532    4.7798   -4.3359 H   0  0  0  0  0  0  0  0  0  0  0  0
    1.4191    9.0700   -5.9626 H   0  0  0  0  0  0  0  0  0  0  0  0
    3.0106    8.3400   -7.6752 H   0  0  0  0  0  0  0  0  0  0  0  0
  1  2  1  0  0  0  0
  2  3  1  0  0  0  0
  3  4  2  0  0  0  0
  4  5  1  0  0  0  0
  5  6  1  0  0  0  0
  6  7  2  0  0  0  0
  7  8  1  0  0  0  0
  8  9  2  0  0  0  0
  3 10  1  0  0  0  0
 10 11  1  0  0  0  0
 11 12  1  0  0  0  0
 12 13  2  0  0  0  0
 13 14  1  0  0  0  0
 14 15  1  0  0  0  0
 15 16  2  0  0  0  0
 16 17  1  0  0  0  0
 17 18  2  0  0  0  0
 12 19  1  0  0  0  0
 19 20  1  0  0  0  0
 20 21  1  0  0  0  0
 21 22  2  0  0  0  0
 22 23  1  0  0  0  0
 23 24  1  0  0  0  0
 24 25  2  0  0  0  0
 25 26  1  0  0  0  0
 26 27  2  0  0  0  0
 21 28  1  0  0  0  0
 28 29  1  0  0  0  0
 29 30  1  0  0  0  0
 30 31  2  0  0  0  0
 31 32  1  0  0  0  0
 32 33  1  0  0  0  0
 33 34  2  0  0  0  0
 34 35  1  0  0  0  0
 35 36  2  0  0  0  0
 30 37  1  0  0  0  0
 37 38  1  0  0  0  0
 38 39  1  0  0  0  0
 39 40  1  0  0  0  0
 40 41  2  0  0  0  0
 41 42  1  0  0  0  0
 42 43  1  0  0  0  0
 43 44  1  0  0  0  0
 44 45  1  0  0  0  0
 43 46  1  0  0  0  0
 46 47  1  0  0  0  0
 43 48  1  0  0  0  0
 48 49  1  0  0  0  0
 41 50  1  0  0  0  0
 50 51  2  0  0  0  0
 51 52  1  0  0  0  0
 51 53  1  0  0  0  0
 53 54  1  0  0  0  0
 54 55  1  0  0  0  0
 55 56  2  0  0  0  0
 56 57  1  0  0  0  0
 57 58  1  0  0  0  0
 58 59  2  0  0  0  0
 59 60  1  0  0  0  0
 60 61  2  0  0  0  0
  5  1  2  0  0  0  0
 14 10  2  0  0  0  0
 23 19  2  0  0  0  0
 32 28  2  0  0  0  0
 49 37  2  0  0  0  0
 57 53  2  0  0  0  0
  9  4  1  0  0  0  0
 18 13  1  0  0  0  0
 27 22  1  0  0  0  0
 36 31  1  0  0  0  0
 48 39  2  0  0  0  0
 61 56  1  0  0  0  0
 52 40  1  0  0  0  0
  1 62  1  0  0  0  0
  6 63  1  0  0  0  0
  8 64  1  0  0  0  0
  9 65  1  0  0  0  0
 15 66  1  0  0  0  0
 17 67  1  0  0  0  0
 18 68  1  0  0  0  0
 24 69  1  0  0  0  0
 26 70  1  0  0  0  0
 27 71  1  0  0  0  0
 33 72  1  0  0  0  0
 35 73  1  0  0  0  0
 36 74  1  0  0  0  0
 44 75  1  0  0  0  0
 44 76  1  0  0  0  0
 45 77  1  0  0  0  0
 45 78  1  0  0  0  0
 45 79  1  0  0  0  0
 46 80  1  0  0  0  0
 46 81  1  0  0  0  0
 47 82  1  0  0  0  0
 47 83  1  0  0  0  0
 47 84  1  0  0  0  0
 49 85  1  0  0  0  0
 50 86  1  0  0  0  0
 55 87  1  0  0  0  0
 58 88  1  0  0  0  0
 60 89  1  0  0  0  0
 61 90  1  0  0  0  0
M  END
