212

C          8.76350       -9.81570        9.13340
C          9.35460       -9.46390        7.97470
C          8.42670       -9.28630        6.90580
C          8.68640       -8.87450        5.58630
C         10.02440       -8.62680        5.08490
C         10.43390       -7.62480        4.25120
C         11.79990       -7.69970        3.91410
C         12.44080       -8.75910        4.47730
C         13.86150       -9.17840        4.31890
C         13.98020      -10.40530        3.41220
S         11.35280       -9.69320        5.45080
C          7.57730       -8.70690        4.76290
C          6.24510       -8.93030        5.18690
C          5.98560       -9.34500        6.50660
C          4.64530       -9.56700        7.01000
C          4.21940      -10.54810        7.86120
C          2.85540      -10.44460        8.19700
C          2.23250       -9.38300        7.61700
C          0.82030       -8.93420        7.77170
C          0.72610       -7.70300        8.67560
S          3.33390       -8.48470        6.62680
C          7.09720       -9.51630        7.32840
S          7.04470       -9.96240        9.01430
C          5.31690       -8.71940        4.13570
C          5.89400       -8.34350        2.96090
S          7.63790       -8.23840        3.08450
C          5.24640       -7.98820        1.74250
C          5.83320       -7.62390        0.56770
C          4.91130       -7.23570       -0.43480
C          5.18370       -6.75180       -1.73040
C          6.53180       -6.56370       -2.22780
C          7.00400       -6.79950       -3.48820
C          8.36250       -6.46130       -3.64910
C          8.93130       -5.94850       -2.52460
C         10.33630       -5.50280       -2.30710
C         11.06180       -6.40600       -1.30820
S          7.78630       -5.88740       -1.22580
C          4.08160       -6.40950       -2.50560
C          2.74550       -6.50450       -2.04710
C          2.47450       -6.98280       -0.75090
C          1.12120       -7.03100       -0.23190
C          0.14530       -6.07940       -0.32010
C         -1.05810       -6.45520        0.30990
C         -1.00880       -7.69010        0.87860
C         -2.09140       -8.43170        1.58430
C         -2.66500       -9.54480        0.70490
S          0.54660       -8.41940        0.64780
C          3.57320       -7.35280        0.01400
S          3.49960       -7.91390        1.66270
C          1.82150       -6.02420       -3.00500
C          2.40420       -5.53440       -4.13750
S          4.14890       -5.71410       -4.10640
C          1.76370       -4.82740       -5.19110
S          0.08060       -4.38770       -5.02490
C          0.17040       -3.43810       -6.46410
C         -0.75910       -2.46560       -6.89660
C         -0.30500       -1.46990       -7.75350
O          0.89760       -1.50220       -8.35180
C          1.63350       -2.74910       -8.35490
C          3.10600       -2.34640       -8.52170
C          3.37740       -1.54000       -9.78620
C          1.08820       -3.59780       -9.52530
C          1.82120       -4.91690       -9.72600
C          1.41900       -3.49710       -7.06060
C          2.31670       -4.28260       -6.32890
C         -1.17820       -0.37340       -7.82240
C         -2.29560       -0.53090       -7.03450
S         -2.30530       -2.07880       -6.22720
C         -3.27540        0.43730       -6.68350
C         -4.35660        0.25610       -5.87010
C         -4.97830        1.46150       -5.47000
C         -6.04750        1.61350       -4.56200
C         -6.82870        0.48190       -4.11040
C         -7.35770        0.23650       -2.87410
C         -8.09840       -0.95980       -2.81020
C         -8.15710       -1.62790       -3.99440
C         -8.80860       -2.93340       -4.29550
C         -7.76830       -4.03870       -4.48950
S         -7.27480       -0.78510       -5.22350
C         -6.28000        2.90670       -4.10860
C         -5.57630        4.03690       -4.59040
C         -4.62920        3.89900       -5.62760
C         -4.02190        5.06600       -6.22740
C         -4.62370        6.26240       -6.50910
C         -3.75650        7.19720       -7.10560
C         -2.48980        6.72840       -7.27440
C         -1.32070        7.41240       -7.89440
C         -1.01570        6.83730       -9.27920
S         -2.34880        5.09660       -6.70770
C         -4.31460        2.59620       -5.99660
S         -3.02370        2.12790       -7.07350
C         -5.87630        5.20430       -3.84780
C         -6.79040        5.00630       -2.85440
S         -7.38920        3.35640       -2.83820
C         -7.15680        5.89780       -1.81060
S         -6.27590        7.38670       -1.57240
C         -7.13370        7.67580       -0.10040
C         -6.82500        8.62400        0.90110
C         -7.32010        8.40120        2.18080
O         -8.18040        7.40650        2.47420
C         -8.95560        6.85350        1.38560
C        -10.09250        7.84580        1.05060
C        -10.91920        8.24860        2.26630
C         -9.45130        5.50480        1.93560
C        -10.68710        4.91790        1.26300
C         -8.08330        6.69890        0.16050
C         -8.07700        5.69030       -0.80680
C         -6.76090        9.25340        3.14050
C         -5.84580       10.13620        2.60380
S         -5.68580        9.92410        0.88050
C         -5.05790       11.09570        3.29390
S         -4.03580       12.21400        2.42890
C         -3.44680       12.86260        3.91620
C         -2.51340       13.91040        4.10910
C         -2.30830       14.37940        5.39350
O         -2.95040       13.90730        6.47850
C         -3.56650       12.60870        6.41950
C         -4.79130       12.69910        7.34950
C         -4.45600       13.08820        8.78350
C         -2.55020       11.51650        6.86870
C         -1.37870       12.04260        7.69160
C         -4.02130       12.25650        5.01870
C         -4.93020       11.25680        4.65880
C         -1.39270       15.45430        5.43960
C         -0.91630       15.77120        4.20570
S         -1.56240       14.78110        2.95610
H          9.22950      -10.00790       10.08000
H         10.41410       -9.31940        7.87370
H          9.78580       -6.83560        3.91580
H         12.29080       -6.98590        3.27630
H         14.28810       -9.41410        5.29710
H         14.42620       -8.34770        3.88990
H         13.42990      -11.24150        3.83760
H         15.02240      -10.69410        3.30180
H         13.57170      -10.18820        2.42780
H          4.85450      -11.34220        8.21000
H          2.35270      -11.13940        8.84650
H          0.23710       -9.75150        8.20160
H          0.40170       -8.69130        6.79190
H         -0.31040       -7.39370        8.78590
H          1.13060       -7.92550        9.66050
H          1.29210       -6.87870        8.24770
H          4.25410       -8.84460        4.23330
H          6.90010       -7.63290        0.43880
H          6.40690       -7.23620       -4.26830
H          8.89830       -6.59310       -4.57260
H         10.85920       -5.51480       -3.26580
H         10.34150       -4.47680       -1.92880
H         12.08480       -6.06630       -1.16610
H         10.55220       -6.39050       -0.34730
H         11.08250       -7.43140       -1.67060
H          0.29690       -5.12110       -0.78400
H         -1.92890       -5.82420        0.34350
H         -1.69710       -8.87000        2.50420
H         -2.88340       -7.72830        1.85060
H         -1.88460      -10.25610        0.44420
H         -3.45660      -10.07260        1.23100
H         -3.07350       -9.12840       -0.21310
H          0.75630       -6.02800       -2.86200
H          3.72080       -3.24540       -8.51680
H          3.37620       -1.74590       -7.65020
H          4.39610       -1.16000       -9.76620
H          2.69360       -0.69820       -9.84630
H          3.26100       -2.15200      -10.67680
H          0.03350       -3.79920       -9.31760
H          1.13460       -2.99680      -10.43430
H          1.32060       -5.50130      -10.49430
H          1.82870       -5.49660       -8.80560
H          2.84800       -4.75200      -10.04110
H          3.34680       -4.44640       -6.58910
H         -0.97810        0.51510       -8.39210
H         -4.64660       -0.71660       -5.51580
H         -7.19100        0.87140       -2.02330
H         -8.57480       -1.31170       -1.91200
H         -9.41000       -2.84520       -5.20380
H         -9.47300       -3.19300       -3.46850
H         -7.11120       -3.79500       -5.32130
H         -8.25830       -4.98630       -4.69870
H         -7.16250       -4.14990       -3.59290
H         -5.66760        6.45030       -6.33160
H         -4.06310        8.18620       -7.39780
H         -0.44220        7.29160       -7.25590
H         -1.54030        8.47890       -7.97760
H         -1.87590        6.95380       -9.93460
H         -0.78170        5.77800       -9.20190
H         -0.16680        7.35120       -9.72330
H         -5.38090        6.14730       -3.99430
H        -10.72530        7.40440        0.28080
H         -9.63260        8.74260        0.62620
H        -11.64470        9.00780        1.98320
H        -10.27390        8.65860        3.03920
H        -11.45380        7.40010        2.68340
H         -9.65580        5.65470        2.99700
H         -8.62320        4.79660        1.86220
H        -10.57390        4.86500        0.18430
H        -10.85020        3.90950        1.63700
H        -11.57510        5.50370        1.48140
H         -8.69440        4.81140       -0.79080
H         -7.01290        9.20970        4.18280
H         -5.46430       13.44770        6.92470
H         -5.30730       11.73880        7.34210
H         -3.86520       13.99940        8.79520
H         -5.37480       13.26290        9.33880
H         -3.90210       12.29830        9.28350
H         -3.09260       10.76020        7.43760
H         -2.14960       11.02940        5.97550
H         -0.76350       11.20640        8.01690
H         -1.72070       12.58590        8.56650
H         -0.75920       12.70960        7.09690
H         -5.46570       10.64540        5.36040
H         -1.11430       15.95490        6.34790
H         -0.20820       16.53360        3.95050
