280

C         -0.13960        1.74210       14.68920
C          0.71060        2.46420       13.93270
C          0.76310        2.02290       12.57630
C          1.54850        2.52840       11.52890
C          2.39840        3.71300       11.70250
C          1.87790        4.89300       12.22560
C          2.66350        6.02060       12.36640
C          4.00110        6.00780       11.98800
S          5.11830        7.36260       12.13580
C          4.03200        8.81510       12.34930
C          3.25620        9.14340       11.08790
C          4.51210        4.81400       11.47500
F          5.80920        4.75990       11.11530
C          3.73860        3.68540       11.32360
C          1.46200        1.87030       10.31100
C          0.61980        0.75180       10.09980
C         -0.17930        0.25620       11.14210
C         -1.07450       -0.88280       10.90590
C         -0.59790       -2.05680       10.32340
C         -1.45540       -3.09660       10.03610
C         -2.81980       -3.00540       10.30400
S         -3.83950       -4.35940        9.79210
C         -5.02230       -4.57200       11.17140
C         -4.31590       -4.81520       12.48950
C         -3.27990       -1.83180       10.89240
C         -2.42860       -0.79190       11.20800
F         -4.59340       -1.66160       11.15850
C         -0.08960        0.91350       12.35930
S         -0.93870        0.47600       13.81940
C          0.65520        0.30950        8.75560
C          1.48730        1.04010        7.95770
S          2.28120        2.32940        8.83830
C          1.68820        0.82970        6.56290
S          2.32420        2.06110        5.51070
C          2.06590        1.04880        4.13530
C          2.25220        1.34750        2.76590
C          2.08890        0.32150        1.84410
O          1.82980       -0.95590        2.17640
C          1.19000       -1.21480        3.43980
C          1.67820       -2.60810        3.88430
C          1.54910       -3.67360        2.80240
C         -0.34340       -1.20400        3.24290
C         -0.91630        0.15530        2.85940
C          1.55710       -0.19020        4.48410
C          1.33970       -0.30230        5.85780
C          2.21730        0.75430        0.51930
C          2.42030        2.11600        0.41630
S          2.52750        2.86660        1.98530
C          2.29050        2.86950       -0.78610
C          2.17540        2.35080       -2.04460
C          1.64340        3.25930       -2.99030
C          1.21710        2.94530       -4.29720
C          1.54900        1.62060       -4.84080
C          0.57740        0.74650       -5.32200
C          0.89390       -0.55100       -5.68000
C          2.19720       -1.02490       -5.57710
S          2.70550       -2.68550       -5.88490
C          1.47740       -3.31710       -7.07670
C          1.55820       -2.60230       -8.41050
C          3.16810       -0.12790       -5.12670
F          4.44660       -0.54280       -5.01670
C          2.86620        1.16510       -4.76530
C          0.36830        3.86500       -4.88880
C          0.01770        5.09750       -4.27990
C          0.60080        5.48710       -3.06020
C          0.32980        6.81690       -2.50680
C         -0.05260        7.01550       -1.18390
C         -0.28710        8.28400       -0.68990
C         -0.13510        9.40540       -1.49740
S         -0.40100       11.07230       -1.00030
C         -0.45910       10.99280        0.82280
C          0.89840       10.69400        1.43030
C          0.23210        9.19060       -2.82820
C          0.45630        7.93250       -3.33610
F          0.37600       10.25200       -3.64660
C          1.35560        4.51980       -2.41160
S          1.89720        4.57880       -0.74970
C         -1.14240        5.67260       -4.86770
C         -1.66580        4.93490       -5.88460
S         -0.59390        3.59240       -6.32120
C         -3.04510        4.72690       -6.22430
C         -3.51940        3.91550       -7.21210
C         -4.66670        3.16880       -6.83010
C         -5.09420        1.96240       -7.40750
C         -4.60070        1.45980       -8.70110
C         -3.24270        1.25790       -8.92640
C         -2.78890        0.72540      -10.11750
C         -3.67970        0.37550      -11.12450
S         -3.23280       -0.31920      -12.68210
C         -1.45190        0.05580      -12.83770
C         -1.19280        1.53720      -13.03250
C         -5.04030        0.55490      -10.87230
F         -5.93330        0.19850      -11.81730
C         -5.50640        1.08150       -9.68810
C         -5.80490        1.10520       -6.58380
C         -6.15990        1.41530       -5.24880
C         -5.87670        2.68930       -4.73140
C         -6.07900        2.97360       -3.29700
C         -5.31110        2.28790       -2.36070
C         -5.47170        2.50260       -1.00630
C         -6.41610        3.40980       -0.54070
S         -6.73340        3.77030        1.15410
C         -5.83420        2.47380        2.07680
C         -6.49150        1.11070        1.96730
C         -7.15740        4.11110       -1.49420
C         -7.00090        3.91140       -2.84960
F         -8.06610        5.01440       -1.07790
C         -5.11130        3.52140       -5.52840
S         -4.19840        4.86900       -4.88740
C         -6.39640        0.24660       -4.47690
C         -6.11400       -0.90730       -5.15050
S         -5.90220       -0.61670       -6.88010
C         -5.47890       -2.05370       -4.58050
C         -4.62190       -2.86580       -5.26560
C         -3.60450       -3.43040       -4.46040
C         -2.45340       -4.09470       -4.90620
C         -2.18130       -4.27070       -6.33950
C         -1.83010       -5.50420       -6.88100
C         -1.56870       -5.62690       -8.22940
C         -1.61580       -4.52650       -9.08430
S         -1.21420       -4.80080      -10.78330
C         -2.31450       -3.66390      -11.70570
C         -3.77900       -3.87640      -11.38640
C         -1.91390       -3.29040       -8.51790
F         -1.89000       -2.15920       -9.26010
C         -2.21230       -3.15850       -7.17820
C         -1.51600       -4.42840       -3.94210
C         -1.66230       -4.10140       -2.57060
C         -2.82860       -3.45290       -2.12090
C         -3.02320       -3.12000       -0.70330
C         -3.39630       -1.83890       -0.29770
C         -3.61330       -1.55890        1.03170
C         -3.47530       -2.53320        2.02400
S         -3.84390       -2.00300        3.66570
C         -3.21680       -3.30300        4.79970
C         -3.21040       -2.74630        6.21040
C         -3.09910       -3.80540        1.60390
C         -2.86800       -4.09730        0.27350
F         -2.95050       -4.82240        2.48500
C         -3.76260       -3.11150       -3.08850
S         -5.19490       -2.13400       -2.84420
C         -0.47690       -4.38540       -1.83970
C          0.51690       -4.92510       -2.60000
S          0.03850       -5.13950       -4.26990
C          1.84260       -5.30610       -2.21290
C          2.61800       -4.79990       -1.21440
C          3.89450       -5.41790       -1.12530
C          4.92200       -5.15760       -0.20760
C          4.87600       -4.02820        0.73120
C          4.73510       -2.72860        0.25310
C          4.80270       -1.64460        1.10600
C          4.98750       -1.82680        2.47140
S          5.07080       -0.51990        3.65130
C          5.65990        0.89560        2.64830
C          5.94420        2.06370        3.57230
C          5.08770       -3.13710        2.94010
F          5.23480       -3.35220        4.26390
C          5.05160       -4.22550        2.09760
C          6.03800       -5.97940       -0.27000
C          6.19090       -7.01330       -1.22440
C          5.18120       -7.24930       -2.16760
C          5.29460       -8.30940       -3.17740
C          5.59860       -9.61960       -2.81150
C          5.69760      -10.60880       -3.76600
C          5.49170      -10.33720       -5.11760
S          5.60340      -11.70120       -6.23840
C          6.41850      -11.00260       -7.72180
C          7.76950      -10.39870       -7.39600
C          5.15850       -9.03140       -5.46370
C          5.07170       -8.02730       -4.52070
F          4.90720       -8.69700       -6.74840
C          4.05720       -6.43950       -2.09320
S          2.65350       -6.57040       -3.11420
C          7.46000       -7.65430       -1.10260
C          8.21290       -7.14230       -0.10830
S          7.44890       -5.84720        0.74820
H         -0.36260        1.86370       15.73110
H          1.30530        3.27530       14.31200
H          0.83640        4.93630       12.50720
H          2.22220        6.91280       12.78030
H          4.72820        9.61670       12.59580
H          3.38260        8.64640       13.20740
H          2.65610       10.03790       11.24450
H          2.59540        8.32490       10.81020
H          3.94180        9.32400       10.26330
H          4.18940        2.78970       10.92670
H          0.45650       -2.15840       10.11610
H         -1.08250       -4.00510        9.58890
H         -5.67670       -3.70410       11.21240
H         -5.60430       -5.44270       10.86880
H         -3.64670       -5.66990       12.41310
H         -3.73270       -3.94460       12.78450
H         -5.05110       -5.01470       13.26640
H         -2.84190        0.10040       11.65130
H          0.04660       -0.49460        8.38650
H          1.11440       -2.91040        4.76710
H          2.72570       -2.51440        4.17310
H          0.50680       -3.88850        2.57910
H          2.04340       -3.34270        1.89340
H          2.02140       -4.59370        3.13720
H         -0.79710       -1.52830        4.18030
H         -0.59510       -1.92410        2.46290
H         -0.56030        0.46690        1.87990
H         -2.00070        0.09190        2.82550
H         -0.64410        0.91440        3.58950
H          0.94300       -1.17850        6.33540
H          2.10310        0.09810       -0.32260
H          2.38130        1.32200       -2.27410
H         -0.45110        1.06820       -5.37720
H          0.10780       -1.20910       -6.01600
H          1.74360       -4.36900       -7.17930
H          0.48600       -3.25870       -6.62970
H          0.90260       -3.08890       -9.12900
H          1.26090       -1.55970       -8.31270
H          2.57500       -2.63780       -8.79510
H          3.65780        1.81460       -4.42480
H         -0.19890        6.16790       -0.53330
H         -0.60050        8.38850        0.33590
H         -0.80060       11.98790        1.10790
H         -1.21820       10.26940        1.11760
H          1.26830        9.72330        1.10680
H          0.82560       10.69380        2.51620
H          1.61790       11.45200        1.13000
H          0.75170        7.82610       -4.36840
H         -1.64560        6.52660       -4.44940
H         -2.97860        3.73900       -8.12420
H         -2.52830        1.48940       -8.15040
H         -1.73080        0.56600      -10.24260
H         -1.14950       -0.51090      -13.71840
H         -0.92960       -0.34580      -11.97010
H         -0.12640        1.71240      -13.16130
H         -1.71400        1.89630      -13.91670
H         -1.53760        2.10980      -12.17400
H         -6.56880        1.20190       -9.54460
H         -4.56700        1.58200       -2.69980
H         -4.84850        1.95710       -0.31680
H         -4.79560        2.46790        1.74770
H         -5.86670        2.83300        3.10540
H         -5.95890        0.39170        2.58810
H         -7.52190        1.16530        2.30970
H         -6.49180        0.75200        0.94000
H         -7.60600        4.47620       -3.54110
H         -6.58700        0.26940       -3.41870
H         -4.65930       -2.97120       -6.33460
H         -1.78830       -6.37460       -6.24500
H         -1.31870       -6.58780       -8.65070
H         -2.10100       -3.90620      -12.74660
H         -2.00580       -2.64050      -11.51140
H         -4.37900       -3.21770      -12.01080
H         -3.99030       -3.64280      -10.34440
H         -4.07010       -4.90690      -11.57780
H         -2.43350       -2.17420       -6.79280
H         -3.49790       -1.05270       -1.02900
H         -3.90460       -0.56570        1.33530
H         -3.87330       -4.16800        4.72240
H         -2.21210       -3.57000        4.47650
H         -2.86960       -3.50980        6.90640
H         -4.21070       -2.43850        6.50530
H         -2.55120       -1.88300        6.28310
H         -2.59880       -5.10860        0.00950
H         -0.36340       -4.18200       -0.79030
H          2.29910       -4.00890       -0.55990
H          4.60150       -2.56480       -0.80590
H          4.70950       -0.65060        0.69990
H          6.56020        0.56960        2.12720
H          4.88860        1.15700        1.92530
H          5.03970        2.36650        4.09550
H          6.69470        1.79270        4.31090
H          6.30930        2.90960        2.99390
H          5.15340       -5.21650        2.51070
H          5.74320       -9.86270       -1.76990
H          5.93520      -11.62190       -3.48090
H          5.75060      -10.28210       -8.18840
H          6.52220      -11.86740       -8.37720
H          7.66170       -9.53700       -6.73980
H          8.40680      -11.13070       -6.90420
H          8.25500      -10.07180       -8.31340
H          4.83320       -7.02770       -4.84970
H          7.78450       -8.44990       -1.74840
H          9.19770       -7.44210        0.19270
