
  xtb     03012200543D
 energy: -388.132075487422 gnorm: 0.000412531238 xtb: 6.4.1 (unknown)
212235  0     0  0            999 V2000
    3.8482   -4.5441    8.3054 C   0  0  0  0  0  0  0  0  0  0  0  0
    3.7765   -3.3556    7.6740 C   0  0  0  0  0  0  0  0  0  0  0  0
    2.4513   -3.0230    7.2721 C   0  0  0  0  0  0  0  0  0  0  0  0
    2.0143   -1.8650    6.6154 C   0  0  0  0  0  0  0  0  0  0  0  0
    2.9554   -0.8805    6.1030 C   0  0  0  0  0  0  0  0  0  0  0  0
    4.1711   -1.3637    4.9550 S   0  0  0  0  0  0  0  0  0  0  0  0
    4.7352    0.2620    4.7504 C   0  0  0  0  0  0  0  0  0  0  0  0
    5.8517    0.5773    3.8169 C   0  0  0  0  0  0  0  0  0  0  0  0
    7.1687   -0.0436    4.2805 C   0  0  0  0  0  0  0  0  0  0  0  0
    4.0260    1.1098    5.5469 C   0  0  0  0  0  0  0  0  0  0  0  0
    4.2974    2.8021    5.6331 Cl  0  0  0  0  0  0  0  0  0  0  0  0
    3.0108    0.4676    6.3081 C   0  0  0  0  0  0  0  0  0  0  0  0
    2.0133    1.3128    7.4150 Cl  0  0  0  0  0  0  0  0  0  0  0  0
    0.6480   -1.7406    6.4011 C   0  0  0  0  0  0  0  0  0  0  0  0
   -0.2738   -2.7699    6.7082 C   0  0  0  0  0  0  0  0  0  0  0  0
    0.1717   -3.9457    7.3311 C   0  0  0  0  0  0  0  0  0  0  0  0
   -0.7405   -5.0460    7.5942 C   0  0  0  0  0  0  0  0  0  0  0  0
   -1.6518   -5.7522    6.2944 S   0  0  0  0  0  0  0  0  0  0  0  0
   -2.3928   -6.9177    7.3393 C   0  0  0  0  0  0  0  0  0  0  0  0
   -3.4032   -7.8790    6.8185 C   0  0  0  0  0  0  0  0  0  0  0  0
   -4.7238   -7.1719    6.5069 C   0  0  0  0  0  0  0  0  0  0  0  0
   -1.9521   -6.7502    8.6174 C   0  0  0  0  0  0  0  0  0  0  0  0
   -1.0093   -5.6953    8.7648 C   0  0  0  0  0  0  0  0  0  0  0  0
   -0.3569   -5.2496   10.2857 Cl  0  0  0  0  0  0  0  0  0  0  0  0
   -2.4666   -7.7087    9.9448 Cl  0  0  0  0  0  0  0  0  0  0  0  0
    1.5240   -4.0244    7.6419 C   0  0  0  0  0  0  0  0  0  0  0  0
    2.3199   -5.3425    8.4506 S   0  0  0  0  0  0  0  0  0  0  0  0
   -1.5978   -2.4272    6.3233 C   0  0  0  0  0  0  0  0  0  0  0  0
   -1.6987   -1.1856    5.7783 C   0  0  0  0  0  0  0  0  0  0  0  0
   -0.1445   -0.3771    5.6741 S   0  0  0  0  0  0  0  0  0  0  0  0
   -2.8440   -0.5078    5.2491 C   0  0  0  0  0  0  0  0  0  0  0  0
   -3.9961   -1.3414    4.2405 S   0  0  0  0  0  0  0  0  0  0  0  0
   -4.7891    0.1518    3.8871 C   0  0  0  0  0  0  0  0  0  0  0  0
   -5.7794    0.3999    2.9065 C   0  0  0  0  0  0  0  0  0  0  0  0
   -6.3102    1.6788    2.8149 C   0  0  0  0  0  0  0  0  0  0  0  0
   -6.0743    2.6172    3.7565 O   0  0  0  0  0  0  0  0  0  0  0  0
   -4.7521    2.6243    4.3464 C   0  0  0  0  0  0  0  0  0  0  0  0
   -4.9166    3.3422    5.6952 C   0  0  0  0  0  0  0  0  0  0  0  0
   -5.4442    4.7660    5.5692 C   0  0  0  0  0  0  0  0  0  0  0  0
   -3.8366    3.3658    3.3438 C   0  0  0  0  0  0  0  0  0  0  0  0
   -2.4134    3.6284    3.8134 C   0  0  0  0  0  0  0  0  0  0  0  0
   -4.2346    1.2208    4.5667 C   0  0  0  0  0  0  0  0  0  0  0  0
   -3.1214    0.8353    5.3259 C   0  0  0  0  0  0  0  0  0  0  0  0
   -7.0661    1.8754    1.6502 C   0  0  0  0  0  0  0  0  0  0  0  0
   -7.0791    0.7669    0.8323 C   0  0  0  0  0  0  0  0  0  0  0  0
   -6.2258   -0.5771    1.5553 S   0  0  0  0  0  0  0  0  0  0  0  0
   -7.3815    0.7087   -0.5568 C   0  0  0  0  0  0  0  0  0  0  0  0
   -7.0687   -0.3210   -1.3994 C   0  0  0  0  0  0  0  0  0  0  0  0
   -7.0145    0.0557   -2.7593 C   0  0  0  0  0  0  0  0  0  0  0  0
   -6.5209   -0.6992   -3.8376 C   0  0  0  0  0  0  0  0  0  0  0  0
   -6.1187   -2.0893   -3.7055 C   0  0  0  0  0  0  0  0  0  0  0  0
   -5.0238   -2.6229   -2.4628 S   0  0  0  0  0  0  0  0  0  0  0  0
   -4.9965   -4.2422   -3.0679 C   0  0  0  0  0  0  0  0  0  0  0  0
   -4.1363   -5.2854   -2.4452 C   0  0  0  0  0  0  0  0  0  0  0  0
   -2.7786   -5.3583   -3.1485 C   0  0  0  0  0  0  0  0  0  0  0  0
   -5.7896   -4.3481   -4.1714 C   0  0  0  0  0  0  0  0  0  0  0  0
   -6.0206   -5.8073   -5.0434 Cl  0  0  0  0  0  0  0  0  0  0  0  0
   -6.4221   -3.1308   -4.5385 C   0  0  0  0  0  0  0  0  0  0  0  0
   -7.5092   -3.0163   -5.8579 Cl  0  0  0  0  0  0  0  0  0  0  0  0
   -6.2810   -0.0120   -5.0193 C   0  0  0  0  0  0  0  0  0  0  0  0
   -6.5858    1.3581   -5.2001 C   0  0  0  0  0  0  0  0  0  0  0  0
   -7.2016    2.0773   -4.1583 C   0  0  0  0  0  0  0  0  0  0  0  0
   -7.5404    3.4820   -4.3365 C   0  0  0  0  0  0  0  0  0  0  0  0
   -8.6736    3.9605   -5.5658 S   0  0  0  0  0  0  0  0  0  0  0  0
   -8.5304    5.6364   -5.1560 C   0  0  0  0  0  0  0  0  0  0  0  0
   -9.3454    6.6747   -5.8449 C   0  0  0  0  0  0  0  0  0  0  0  0
  -10.7157    6.8232   -5.1796 C   0  0  0  0  0  0  0  0  0  0  0  0
   -7.6535    5.7969   -4.1256 C   0  0  0  0  0  0  0  0  0  0  0  0
   -7.0837    4.5793   -3.6636 C   0  0  0  0  0  0  0  0  0  0  0  0
   -5.8803    4.5329   -2.4444 Cl  0  0  0  0  0  0  0  0  0  0  0  0
   -7.2474    7.3188   -3.4445 Cl  0  0  0  0  0  0  0  0  0  0  0  0
   -7.3610    1.4187   -2.9476 C   0  0  0  0  0  0  0  0  0  0  0  0
   -7.8249    2.1605   -1.4383 S   0  0  0  0  0  0  0  0  0  0  0  0
   -5.9550    1.8978   -6.3507 C   0  0  0  0  0  0  0  0  0  0  0  0
   -5.1453    1.0011   -6.9909 C   0  0  0  0  0  0  0  0  0  0  0  0
   -5.3048   -0.6160   -6.3251 S   0  0  0  0  0  0  0  0  0  0  0  0
   -4.0231    1.2668   -7.8317 C   0  0  0  0  0  0  0  0  0  0  0  0
   -2.6745    0.1659   -7.6733 S   0  0  0  0  0  0  0  0  0  0  0  0
   -1.6405    1.2980   -8.4541 C   0  0  0  0  0  0  0  0  0  0  0  0
   -0.2345    1.3431   -8.3178 C   0  0  0  0  0  0  0  0  0  0  0  0
    0.3922    2.5747   -8.4641 C   0  0  0  0  0  0  0  0  0  0  0  0
   -0.2266    3.6485   -8.9874 O   0  0  0  0  0  0  0  0  0  0  0  0
   -1.5026    3.4529   -9.6536 C   0  0  0  0  0  0  0  0  0  0  0  0
   -2.1476    4.8475   -9.6323 C   0  0  0  0  0  0  0  0  0  0  0  0
   -3.2756    5.0641  -10.6349 C   0  0  0  0  0  0  0  0  0  0  0  0
   -1.2171    2.9251  -11.0776 C   0  0  0  0  0  0  0  0  0  0  0  0
   -0.2565    3.8066  -11.8673 C   0  0  0  0  0  0  0  0  0  0  0  0
   -2.3192    2.4173   -8.9133 C   0  0  0  0  0  0  0  0  0  0  0  0
   -3.6686    2.4002   -8.5329 C   0  0  0  0  0  0  0  0  0  0  0  0
    1.6603    2.6173   -7.8582 C   0  0  0  0  0  0  0  0  0  0  0  0
    1.9810    1.4406   -7.2161 C   0  0  0  0  0  0  0  0  0  0  0  0
    0.7539    0.2226   -7.4505 S   0  0  0  0  0  0  0  0  0  0  0  0
    3.0181    1.1681   -6.2769 C   0  0  0  0  0  0  0  0  0  0  0  0
    2.6646   -0.0006   -5.0262 S   0  0  0  0  0  0  0  0  0  0  0  0
    4.1501    0.3654   -4.2370 C   0  0  0  0  0  0  0  0  0  0  0  0
    4.6133   -0.1430   -3.0050 C   0  0  0  0  0  0  0  0  0  0  0  0
    5.8635    0.2419   -2.5453 C   0  0  0  0  0  0  0  0  0  0  0  0
    6.6947    1.0447   -3.2301 O   0  0  0  0  0  0  0  0  0  0  0  0
    6.2425    1.7557   -4.4075 C   0  0  0  0  0  0  0  0  0  0  0  0
    7.3279    1.5139   -5.4758 C   0  0  0  0  0  0  0  0  0  0  0  0
    7.3973    0.0534   -5.9055 C   0  0  0  0  0  0  0  0  0  0  0  0
    6.1864    3.2533   -4.0354 C   0  0  0  0  0  0  0  0  0  0  0  0
    5.1257    3.5553   -2.9836 C   0  0  0  0  0  0  0  0  0  0  0  0
    4.8982    1.3035   -4.9220 C   0  0  0  0  0  0  0  0  0  0  0  0
    4.2425    1.7667   -6.0720 C   0  0  0  0  0  0  0  0  0  0  0  0
    6.1742   -0.3212   -1.2955 C   0  0  0  0  0  0  0  0  0  0  0  0
    5.1537   -1.0988   -0.7959 C   0  0  0  0  0  0  0  0  0  0  0  0
    3.7922   -1.1626   -1.8841 S   0  0  0  0  0  0  0  0  0  0  0  0
    5.0857   -1.8523    0.4101 C   0  0  0  0  0  0  0  0  0  0  0  0
    3.9672   -2.4270    0.9397 C   0  0  0  0  0  0  0  0  0  0  0  0
    4.2198   -3.2287    2.0776 C   0  0  0  0  0  0  0  0  0  0  0  0
    3.3007   -3.9804    2.8286 C   0  0  0  0  0  0  0  0  0  0  0  0
    1.8963   -4.0460    2.4644 C   0  0  0  0  0  0  0  0  0  0  0  0
    0.6442   -3.7377    3.6329 S   0  0  0  0  0  0  0  0  0  0  0  0
   -0.6125   -3.9973    2.4729 C   0  0  0  0  0  0  0  0  0  0  0  0
   -2.0503   -3.8965    2.8454 C   0  0  0  0  0  0  0  0  0  0  0  0
   -2.7355   -5.2638    2.8335 C   0  0  0  0  0  0  0  0  0  0  0  0
   -0.0771   -4.3116    1.2591 C   0  0  0  0  0  0  0  0  0  0  0  0
   -1.0105   -4.6162   -0.1446 Cl  0  0  0  0  0  0  0  0  0  0  0  0
    1.3421   -4.3467    1.2499 C   0  0  0  0  0  0  0  0  0  0  0  0
    2.2375   -4.8182   -0.1377 Cl  0  0  0  0  0  0  0  0  0  0  0  0
    3.8069   -4.6911    3.9095 C   0  0  0  0  0  0  0  0  0  0  0  0
    5.1772   -4.6976    4.2571 C   0  0  0  0  0  0  0  0  0  0  0  0
    6.0905   -3.9191    3.5257 C   0  0  0  0  0  0  0  0  0  0  0  0
    7.4965   -3.8610    3.8884 C   0  0  0  0  0  0  0  0  0  0  0  0
    8.7495   -4.1226    2.7122 S   0  0  0  0  0  0  0  0  0  0  0  0
   10.0053   -3.8682    3.8751 C   0  0  0  0  0  0  0  0  0  0  0  0
   11.4392   -3.8982    3.4771 C   0  0  0  0  0  0  0  0  0  0  0  0
   11.8539   -2.5676    2.8446 C   0  0  0  0  0  0  0  0  0  0  0  0
    9.4703   -3.5872    5.0967 C   0  0  0  0  0  0  0  0  0  0  0  0
    8.0503   -3.5900    5.1097 C   0  0  0  0  0  0  0  0  0  0  0  0
    7.1487   -3.1969    6.5145 Cl  0  0  0  0  0  0  0  0  0  0  0  0
   10.4014   -3.2571    6.5009 Cl  0  0  0  0  0  0  0  0  0  0  0  0
    5.5898   -3.2190    2.4358 C   0  0  0  0  0  0  0  0  0  0  0  0
    6.5206   -2.2214    1.3490 S   0  0  0  0  0  0  0  0  0  0  0  0
    5.4426   -5.6153    5.3146 C   0  0  0  0  0  0  0  0  0  0  0  0
    4.3336   -6.2471    5.7500 C   0  0  0  0  0  0  0  0  0  0  0  0
    2.8924   -5.7717    4.9205 S   0  0  0  0  0  0  0  0  0  0  0  0
    4.7169   -5.0184    8.7183 H   0  0  0  0  0  0  0  0  0  0  0  0
    4.6205   -2.7139    7.5036 H   0  0  0  0  0  0  0  0  0  0  0  0
    5.6080    0.1954    2.8221 H   0  0  0  0  0  0  0  0  0  0  0  0
    5.9518    1.6621    3.7541 H   0  0  0  0  0  0  0  0  0  0  0  0
    7.4487    0.3427    5.2573 H   0  0  0  0  0  0  0  0  0  0  0  0
    7.9604    0.1853    3.5724 H   0  0  0  0  0  0  0  0  0  0  0  0
    7.0674   -1.1231    4.3492 H   0  0  0  0  0  0  0  0  0  0  0  0
   -3.5655   -8.6534    7.5697 H   0  0  0  0  0  0  0  0  0  0  0  0
   -3.0234   -8.3494    5.9090 H   0  0  0  0  0  0  0  0  0  0  0  0
   -5.4506   -7.8864    6.1303 H   0  0  0  0  0  0  0  0  0  0  0  0
   -5.1245   -6.7086    7.4051 H   0  0  0  0  0  0  0  0  0  0  0  0
   -4.5691   -6.4007    5.7559 H   0  0  0  0  0  0  0  0  0  0  0  0
   -2.4496   -3.0637    6.4820 H   0  0  0  0  0  0  0  0  0  0  0  0
   -3.9593    3.3422    6.2151 H   0  0  0  0  0  0  0  0  0  0  0  0
   -5.6202    2.7517    6.2865 H   0  0  0  0  0  0  0  0  0  0  0  0
   -5.6732    5.1598    6.5565 H   0  0  0  0  0  0  0  0  0  0  0  0
   -6.3514    4.7751    4.9720 H   0  0  0  0  0  0  0  0  0  0  0  0
   -4.7101    5.4188    5.1045 H   0  0  0  0  0  0  0  0  0  0  0  0
   -3.8076    2.7655    2.4290 H   0  0  0  0  0  0  0  0  0  0  0  0
   -4.3263    4.3093    3.0971 H   0  0  0  0  0  0  0  0  0  0  0  0
   -1.8776    4.1789    3.0434 H   0  0  0  0  0  0  0  0  0  0  0  0
   -1.8815    2.6976    3.9924 H   0  0  0  0  0  0  0  0  0  0  0  0
   -2.4009    4.2219    4.7234 H   0  0  0  0  0  0  0  0  0  0  0  0
   -2.5235    1.5005    5.9216 H   0  0  0  0  0  0  0  0  0  0  0  0
   -7.5266    2.8096    1.3861 H   0  0  0  0  0  0  0  0  0  0  0  0
   -6.7894   -1.2932   -1.0367 H   0  0  0  0  0  0  0  0  0  0  0  0
   -3.9874   -5.0500   -1.3903 H   0  0  0  0  0  0  0  0  0  0  0  0
   -4.6388   -6.2518   -2.5237 H   0  0  0  0  0  0  0  0  0  0  0  0
   -2.1586   -6.1194   -2.6828 H   0  0  0  0  0  0  0  0  0  0  0  0
   -2.2658   -4.4020   -3.0793 H   0  0  0  0  0  0  0  0  0  0  0  0
   -2.9097   -5.6074   -4.1982 H   0  0  0  0  0  0  0  0  0  0  0  0
   -9.4779    6.3964   -6.8918 H   0  0  0  0  0  0  0  0  0  0  0  0
   -8.8121    7.6262   -5.7987 H   0  0  0  0  0  0  0  0  0  0  0  0
  -11.2970    7.5874   -5.6883 H   0  0  0  0  0  0  0  0  0  0  0  0
  -11.2597    5.8827   -5.2228 H   0  0  0  0  0  0  0  0  0  0  0  0
  -10.5987    7.1096   -4.1375 H   0  0  0  0  0  0  0  0  0  0  0  0
   -5.9952    2.9410   -6.6066 H   0  0  0  0  0  0  0  0  0  0  0  0
   -2.5151    5.0234   -8.6190 H   0  0  0  0  0  0  0  0  0  0  0  0
   -1.3522    5.5708   -9.8179 H   0  0  0  0  0  0  0  0  0  0  0  0
   -3.7651    6.0124  -10.4245 H   0  0  0  0  0  0  0  0  0  0  0  0
   -2.8994    5.1005  -11.6531 H   0  0  0  0  0  0  0  0  0  0  0  0
   -4.0198    4.2750  -10.5780 H   0  0  0  0  0  0  0  0  0  0  0  0
   -2.1644    2.8162  -11.6057 H   0  0  0  0  0  0  0  0  0  0  0  0
   -0.7786    1.9287  -10.9774 H   0  0  0  0  0  0  0  0  0  0  0  0
    0.6613    3.9582  -11.3046 H   0  0  0  0  0  0  0  0  0  0  0  0
   -0.0082    3.3268  -12.8111 H   0  0  0  0  0  0  0  0  0  0  0  0
   -0.6912    4.7789  -12.0809 H   0  0  0  0  0  0  0  0  0  0  0  0
   -4.3696    3.1912   -8.7235 H   0  0  0  0  0  0  0  0  0  0  0  0
    2.2695    3.5009   -7.8241 H   0  0  0  0  0  0  0  0  0  0  0  0
    7.1212    2.1472   -6.3387 H   0  0  0  0  0  0  0  0  0  0  0  0
    8.2860    1.8138   -5.0486 H   0  0  0  0  0  0  0  0  0  0  0  0
    8.2051   -0.0887   -6.6187 H   0  0  0  0  0  0  0  0  0  0  0  0
    6.4651   -0.2567   -6.3730 H   0  0  0  0  0  0  0  0  0  0  0  0
    7.5819   -0.5838   -5.0439 H   0  0  0  0  0  0  0  0  0  0  0  0
    7.1685    3.5401   -3.6557 H   0  0  0  0  0  0  0  0  0  0  0  0
    5.9845    3.8293   -4.9392 H   0  0  0  0  0  0  0  0  0  0  0  0
    4.1341    3.2952   -3.3485 H   0  0  0  0  0  0  0  0  0  0  0  0
    5.3186    2.9919   -2.0735 H   0  0  0  0  0  0  0  0  0  0  0  0
    5.1353    4.6143   -2.7384 H   0  0  0  0  0  0  0  0  0  0  0  0
    4.6406    2.5089   -6.7395 H   0  0  0  0  0  0  0  0  0  0  0  0
    7.1024   -0.1595   -0.7790 H   0  0  0  0  0  0  0  0  0  0  0  0
    2.9902   -2.2742    0.5202 H   0  0  0  0  0  0  0  0  0  0  0  0
   -2.5582   -3.2359    2.1381 H   0  0  0  0  0  0  0  0  0  0  0  0
   -2.1252   -3.4617    3.8422 H   0  0  0  0  0  0  0  0  0  0  0  0
   -2.6867   -5.7057    1.8426 H   0  0  0  0  0  0  0  0  0  0  0  0
   -2.2527   -5.9331    3.5406 H   0  0  0  0  0  0  0  0  0  0  0  0
   -3.7791   -5.1497    3.1131 H   0  0  0  0  0  0  0  0  0  0  0  0
   12.0459   -4.0891    4.3639 H   0  0  0  0  0  0  0  0  0  0  0  0
   11.6010   -4.7057    2.7610 H   0  0  0  0  0  0  0  0  0  0  0  0
   11.7137   -1.7544    3.5523 H   0  0  0  0  0  0  0  0  0  0  0  0
   11.2521   -2.3677    1.9612 H   0  0  0  0  0  0  0  0  0  0  0  0
   12.9007   -2.6017    2.5554 H   0  0  0  0  0  0  0  0  0  0  0  0
    6.4253   -5.8050    5.7045 H   0  0  0  0  0  0  0  0  0  0  0  0
    4.2573   -6.9894    6.5202 H   0  0  0  0  0  0  0  0  0  0  0  0
  1  2  2  0  0  0  0
  2  3  1  0  0  0  0
  3  4  2  0  0  0  0
  4  5  1  0  0  0  0
  5  6  1  0  0  0  0
  6  7  1  0  0  0  0
  7  8  1  0  0  0  0
  8  9  1  0  0  0  0
  7 10  2  0  0  0  0
 10 11  1  0  0  0  0
 10 12  1  0  0  0  0
 12 13  1  0  0  0  0
  4 14  1  0  0  0  0
 14 15  2  0  0  0  0
 15 16  1  0  0  0  0
 16 17  1  0  0  0  0
 17 18  1  0  0  0  0
 18 19  1  0  0  0  0
 19 20  1  0  0  0  0
 20 21  1  0  0  0  0
 19 22  2  0  0  0  0
 22 23  1  0  0  0  0
 23 24  1  0  0  0  0
 22 25  1  0  0  0  0
 16 26  2  0  0  0  0
 26 27  1  0  0  0  0
 15 28  1  0  0  0  0
 28 29  2  0  0  0  0
 29 30  1  0  0  0  0
 29 31  1  0  0  0  0
 31 32  1  0  0  0  0
 32 33  1  0  0  0  0
 33 34  1  0  0  0  0
 34 35  2  0  0  0  0
 35 36  1  0  0  0  0
 36 37  1  0  0  0  0
 37 38  1  0  0  0  0
 38 39  1  0  0  0  0
 37 40  1  0  0  0  0
 40 41  1  0  0  0  0
 37 42  1  0  0  0  0
 42 43  1  0  0  0  0
 35 44  1  0  0  0  0
 44 45  2  0  0  0  0
 45 46  1  0  0  0  0
 45 47  1  0  0  0  0
 47 48  2  0  0  0  0
 48 49  1  0  0  0  0
 49 50  2  0  0  0  0
 50 51  1  0  0  0  0
 51 52  1  0  0  0  0
 52 53  1  0  0  0  0
 53 54  1  0  0  0  0
 54 55  1  0  0  0  0
 53 56  2  0  0  0  0
 56 57  1  0  0  0  0
 56 58  1  0  0  0  0
 58 59  1  0  0  0  0
 50 60  1  0  0  0  0
 60 61  2  0  0  0  0
 61 62  1  0  0  0  0
 62 63  1  0  0  0  0
 63 64  1  0  0  0  0
 64 65  1  0  0  0  0
 65 66  1  0  0  0  0
 66 67  1  0  0  0  0
 65 68  2  0  0  0  0
 68 69  1  0  0  0  0
 69 70  1  0  0  0  0
 68 71  1  0  0  0  0
 62 72  2  0  0  0  0
 72 73  1  0  0  0  0
 61 74  1  0  0  0  0
 74 75  2  0  0  0  0
 75 76  1  0  0  0  0
 75 77  1  0  0  0  0
 77 78  1  0  0  0  0
 78 79  1  0  0  0  0
 79 80  1  0  0  0  0
 80 81  2  0  0  0  0
 81 82  1  0  0  0  0
 82 83  1  0  0  0  0
 83 84  1  0  0  0  0
 84 85  1  0  0  0  0
 83 86  1  0  0  0  0
 86 87  1  0  0  0  0
 83 88  1  0  0  0  0
 88 89  1  0  0  0  0
 81 90  1  0  0  0  0
 90 91  2  0  0  0  0
 91 92  1  0  0  0  0
 91 93  1  0  0  0  0
 93 94  1  0  0  0  0
 94 95  1  0  0  0  0
 95 96  1  0  0  0  0
 96 97  2  0  0  0  0
 97 98  1  0  0  0  0
 98 99  1  0  0  0  0
 99100  1  0  0  0  0
100101  1  0  0  0  0
 99102  1  0  0  0  0
102103  1  0  0  0  0
 99104  1  0  0  0  0
104105  1  0  0  0  0
 97106  1  0  0  0  0
106107  2  0  0  0  0
107108  1  0  0  0  0
107109  1  0  0  0  0
109110  2  0  0  0  0
110111  1  0  0  0  0
111112  2  0  0  0  0
112113  1  0  0  0  0
113114  1  0  0  0  0
114115  1  0  0  0  0
115116  1  0  0  0  0
116117  1  0  0  0  0
115118  2  0  0  0  0
118119  1  0  0  0  0
118120  1  0  0  0  0
120121  1  0  0  0  0
112122  1  0  0  0  0
122123  2  0  0  0  0
123124  1  0  0  0  0
124125  1  0  0  0  0
125126  1  0  0  0  0
126127  1  0  0  0  0
127128  1  0  0  0  0
128129  1  0  0  0  0
127130  2  0  0  0  0
130131  1  0  0  0  0
131132  1  0  0  0  0
130133  1  0  0  0  0
124134  2  0  0  0  0
134135  1  0  0  0  0
123136  1  0  0  0  0
136137  2  0  0  0  0
137138  1  0  0  0  0
 27  1  1  0  0  0  0
 43 31  2  0  0  0  0
 73 47  1  0  0  0  0
 89 77  2  0  0  0  0
105 93  2  0  0  0  0
135109  1  0  0  0  0
 26  3  1  0  0  0  0
 42 33  2  0  0  0  0
 72 49  1  0  0  0  0
 88 79  2  0  0  0  0
104 95  2  0  0  0  0
134111  1  0  0  0  0
 12  5  2  0  0  0  0
 30 14  1  0  0  0  0
 46 34  1  0  0  0  0
 58 51  2  0  0  0  0
 76 60  1  0  0  0  0
 92 80  1  0  0  0  0
108 96  1  0  0  0  0
120113  2  0  0  0  0
138122  1  0  0  0  0
 23 17  2  0  0  0  0
 69 63  2  0  0  0  0
131125  2  0  0  0  0
  1139  1  0  0  0  0
  2140  1  0  0  0  0
  8141  1  0  0  0  0
  8142  1  0  0  0  0
  9143  1  0  0  0  0
  9144  1  0  0  0  0
  9145  1  0  0  0  0
 20146  1  0  0  0  0
 20147  1  0  0  0  0
 21148  1  0  0  0  0
 21149  1  0  0  0  0
 21150  1  0  0  0  0
 28151  1  0  0  0  0
 38152  1  0  0  0  0
 38153  1  0  0  0  0
 39154  1  0  0  0  0
 39155  1  0  0  0  0
 39156  1  0  0  0  0
 40157  1  0  0  0  0
 40158  1  0  0  0  0
 41159  1  0  0  0  0
 41160  1  0  0  0  0
 41161  1  0  0  0  0
 43162  1  0  0  0  0
 44163  1  0  0  0  0
 48164  1  0  0  0  0
 54165  1  0  0  0  0
 54166  1  0  0  0  0
 55167  1  0  0  0  0
 55168  1  0  0  0  0
 55169  1  0  0  0  0
 66170  1  0  0  0  0
 66171  1  0  0  0  0
 67172  1  0  0  0  0
 67173  1  0  0  0  0
 67174  1  0  0  0  0
 74175  1  0  0  0  0
 84176  1  0  0  0  0
 84177  1  0  0  0  0
 85178  1  0  0  0  0
 85179  1  0  0  0  0
 85180  1  0  0  0  0
 86181  1  0  0  0  0
 86182  1  0  0  0  0
 87183  1  0  0  0  0
 87184  1  0  0  0  0
 87185  1  0  0  0  0
 89186  1  0  0  0  0
 90187  1  0  0  0  0
100188  1  0  0  0  0
100189  1  0  0  0  0
101190  1  0  0  0  0
101191  1  0  0  0  0
101192  1  0  0  0  0
102193  1  0  0  0  0
102194  1  0  0  0  0
103195  1  0  0  0  0
103196  1  0  0  0  0
103197  1  0  0  0  0
105198  1  0  0  0  0
106199  1  0  0  0  0
110200  1  0  0  0  0
116201  1  0  0  0  0
116202  1  0  0  0  0
117203  1  0  0  0  0
117204  1  0  0  0  0
117205  1  0  0  0  0
128206  1  0  0  0  0
128207  1  0  0  0  0
129208  1  0  0  0  0
129209  1  0  0  0  0
129210  1  0  0  0  0
136211  1  0  0  0  0
137212  1  0  0  0  0
M  END
