
  xtb     02282218123D
 energy: -339.535317217357 gnorm: 0.000209767193 xtb: 6.4.1 (unknown)
212235  0     0  0            999 V2000
    8.7635   -9.8157    9.1334 C   0  0  0  0  0  0  0  0  0  0  0  0
    9.3546   -9.4639    7.9747 C   0  0  0  0  0  0  0  0  0  0  0  0
    8.4267   -9.2863    6.9058 C   0  0  0  0  0  0  0  0  0  0  0  0
    8.6864   -8.8745    5.5863 C   0  0  0  0  0  0  0  0  0  0  0  0
   10.0244   -8.6268    5.0849 C   0  0  0  0  0  0  0  0  0  0  0  0
   10.4339   -7.6248    4.2512 C   0  0  0  0  0  0  0  0  0  0  0  0
   11.7999   -7.6997    3.9141 C   0  0  0  0  0  0  0  0  0  0  0  0
   12.4408   -8.7591    4.4773 C   0  0  0  0  0  0  0  0  0  0  0  0
   13.8615   -9.1784    4.3189 C   0  0  0  0  0  0  0  0  0  0  0  0
   13.9802  -10.4053    3.4122 C   0  0  0  0  0  0  0  0  0  0  0  0
   11.3528   -9.6932    5.4508 S   0  0  0  0  0  0  0  0  0  0  0  0
    7.5773   -8.7069    4.7629 C   0  0  0  0  0  0  0  0  0  0  0  0
    6.2451   -8.9303    5.1869 C   0  0  0  0  0  0  0  0  0  0  0  0
    5.9856   -9.3450    6.5066 C   0  0  0  0  0  0  0  0  0  0  0  0
    4.6453   -9.5670    7.0100 C   0  0  0  0  0  0  0  0  0  0  0  0
    4.2194  -10.5481    7.8612 C   0  0  0  0  0  0  0  0  0  0  0  0
    2.8554  -10.4446    8.1970 C   0  0  0  0  0  0  0  0  0  0  0  0
    2.2325   -9.3830    7.6170 C   0  0  0  0  0  0  0  0  0  0  0  0
    0.8203   -8.9342    7.7717 C   0  0  0  0  0  0  0  0  0  0  0  0
    0.7261   -7.7030    8.6756 C   0  0  0  0  0  0  0  0  0  0  0  0
    3.3339   -8.4847    6.6268 S   0  0  0  0  0  0  0  0  0  0  0  0
    7.0972   -9.5163    7.3284 C   0  0  0  0  0  0  0  0  0  0  0  0
    7.0447   -9.9624    9.0143 S   0  0  0  0  0  0  0  0  0  0  0  0
    5.3169   -8.7194    4.1357 C   0  0  0  0  0  0  0  0  0  0  0  0
    5.8940   -8.3435    2.9609 C   0  0  0  0  0  0  0  0  0  0  0  0
    7.6379   -8.2384    3.0845 S   0  0  0  0  0  0  0  0  0  0  0  0
    5.2464   -7.9882    1.7425 C   0  0  0  0  0  0  0  0  0  0  0  0
    5.8332   -7.6239    0.5677 C   0  0  0  0  0  0  0  0  0  0  0  0
    4.9113   -7.2357   -0.4348 C   0  0  0  0  0  0  0  0  0  0  0  0
    5.1837   -6.7518   -1.7304 C   0  0  0  0  0  0  0  0  0  0  0  0
    6.5318   -6.5637   -2.2278 C   0  0  0  0  0  0  0  0  0  0  0  0
    7.0040   -6.7995   -3.4882 C   0  0  0  0  0  0  0  0  0  0  0  0
    8.3625   -6.4613   -3.6491 C   0  0  0  0  0  0  0  0  0  0  0  0
    8.9313   -5.9485   -2.5246 C   0  0  0  0  0  0  0  0  0  0  0  0
   10.3363   -5.5028   -2.3071 C   0  0  0  0  0  0  0  0  0  0  0  0
   11.0618   -6.4060   -1.3082 C   0  0  0  0  0  0  0  0  0  0  0  0
    7.7863   -5.8874   -1.2258 S   0  0  0  0  0  0  0  0  0  0  0  0
    4.0816   -6.4095   -2.5056 C   0  0  0  0  0  0  0  0  0  0  0  0
    2.7455   -6.5045   -2.0471 C   0  0  0  0  0  0  0  0  0  0  0  0
    2.4745   -6.9828   -0.7509 C   0  0  0  0  0  0  0  0  0  0  0  0
    1.1212   -7.0310   -0.2319 C   0  0  0  0  0  0  0  0  0  0  0  0
    0.1453   -6.0794   -0.3201 C   0  0  0  0  0  0  0  0  0  0  0  0
   -1.0581   -6.4552    0.3099 C   0  0  0  0  0  0  0  0  0  0  0  0
   -1.0088   -7.6901    0.8786 C   0  0  0  0  0  0  0  0  0  0  0  0
   -2.0914   -8.4317    1.5843 C   0  0  0  0  0  0  0  0  0  0  0  0
   -2.6650   -9.5448    0.7049 C   0  0  0  0  0  0  0  0  0  0  0  0
    0.5466   -8.4194    0.6478 S   0  0  0  0  0  0  0  0  0  0  0  0
    3.5732   -7.3528    0.0140 C   0  0  0  0  0  0  0  0  0  0  0  0
    3.4996   -7.9139    1.6627 S   0  0  0  0  0  0  0  0  0  0  0  0
    1.8215   -6.0242   -3.0050 C   0  0  0  0  0  0  0  0  0  0  0  0
    2.4042   -5.5344   -4.1375 C   0  0  0  0  0  0  0  0  0  0  0  0
    4.1489   -5.7141   -4.1064 S   0  0  0  0  0  0  0  0  0  0  0  0
    1.7637   -4.8274   -5.1911 C   0  0  0  0  0  0  0  0  0  0  0  0
    0.0806   -4.3877   -5.0249 S   0  0  0  0  0  0  0  0  0  0  0  0
    0.1704   -3.4381   -6.4641 C   0  0  0  0  0  0  0  0  0  0  0  0
   -0.7591   -2.4656   -6.8966 C   0  0  0  0  0  0  0  0  0  0  0  0
   -0.3050   -1.4699   -7.7535 C   0  0  0  0  0  0  0  0  0  0  0  0
    0.8976   -1.5022   -8.3518 O   0  0  0  0  0  0  0  0  0  0  0  0
    1.6335   -2.7491   -8.3549 C   0  0  0  0  0  0  0  0  0  0  0  0
    3.1060   -2.3464   -8.5217 C   0  0  0  0  0  0  0  0  0  0  0  0
    3.3774   -1.5400   -9.7862 C   0  0  0  0  0  0  0  0  0  0  0  0
    1.0882   -3.5978   -9.5253 C   0  0  0  0  0  0  0  0  0  0  0  0
    1.8212   -4.9169   -9.7260 C   0  0  0  0  0  0  0  0  0  0  0  0
    1.4190   -3.4971   -7.0606 C   0  0  0  0  0  0  0  0  0  0  0  0
    2.3167   -4.2826   -6.3289 C   0  0  0  0  0  0  0  0  0  0  0  0
   -1.1782   -0.3734   -7.8224 C   0  0  0  0  0  0  0  0  0  0  0  0
   -2.2956   -0.5309   -7.0345 C   0  0  0  0  0  0  0  0  0  0  0  0
   -2.3053   -2.0788   -6.2272 S   0  0  0  0  0  0  0  0  0  0  0  0
   -3.2754    0.4373   -6.6835 C   0  0  0  0  0  0  0  0  0  0  0  0
   -4.3566    0.2561   -5.8701 C   0  0  0  0  0  0  0  0  0  0  0  0
   -4.9783    1.4615   -5.4700 C   0  0  0  0  0  0  0  0  0  0  0  0
   -6.0475    1.6135   -4.5620 C   0  0  0  0  0  0  0  0  0  0  0  0
   -6.8287    0.4819   -4.1104 C   0  0  0  0  0  0  0  0  0  0  0  0
   -7.3577    0.2365   -2.8741 C   0  0  0  0  0  0  0  0  0  0  0  0
   -8.0984   -0.9598   -2.8102 C   0  0  0  0  0  0  0  0  0  0  0  0
   -8.1571   -1.6279   -3.9944 C   0  0  0  0  0  0  0  0  0  0  0  0
   -8.8086   -2.9334   -4.2955 C   0  0  0  0  0  0  0  0  0  0  0  0
   -7.7683   -4.0387   -4.4895 C   0  0  0  0  0  0  0  0  0  0  0  0
   -7.2748   -0.7851   -5.2235 S   0  0  0  0  0  0  0  0  0  0  0  0
   -6.2800    2.9067   -4.1086 C   0  0  0  0  0  0  0  0  0  0  0  0
   -5.5763    4.0369   -4.5904 C   0  0  0  0  0  0  0  0  0  0  0  0
   -4.6292    3.8990   -5.6276 C   0  0  0  0  0  0  0  0  0  0  0  0
   -4.0219    5.0660   -6.2274 C   0  0  0  0  0  0  0  0  0  0  0  0
   -4.6237    6.2624   -6.5091 C   0  0  0  0  0  0  0  0  0  0  0  0
   -3.7565    7.1972   -7.1056 C   0  0  0  0  0  0  0  0  0  0  0  0
   -2.4898    6.7284   -7.2744 C   0  0  0  0  0  0  0  0  0  0  0  0
   -1.3207    7.4124   -7.8944 C   0  0  0  0  0  0  0  0  0  0  0  0
   -1.0157    6.8373   -9.2792 C   0  0  0  0  0  0  0  0  0  0  0  0
   -2.3488    5.0966   -6.7077 S   0  0  0  0  0  0  0  0  0  0  0  0
   -4.3146    2.5962   -5.9966 C   0  0  0  0  0  0  0  0  0  0  0  0
   -3.0237    2.1279   -7.0735 S   0  0  0  0  0  0  0  0  0  0  0  0
   -5.8763    5.2043   -3.8478 C   0  0  0  0  0  0  0  0  0  0  0  0
   -6.7904    5.0063   -2.8544 C   0  0  0  0  0  0  0  0  0  0  0  0
   -7.3892    3.3564   -2.8382 S   0  0  0  0  0  0  0  0  0  0  0  0
   -7.1568    5.8978   -1.8106 C   0  0  0  0  0  0  0  0  0  0  0  0
   -6.2759    7.3867   -1.5724 S   0  0  0  0  0  0  0  0  0  0  0  0
   -7.1337    7.6758   -0.1004 C   0  0  0  0  0  0  0  0  0  0  0  0
   -6.8250    8.6240    0.9011 C   0  0  0  0  0  0  0  0  0  0  0  0
   -7.3201    8.4012    2.1808 C   0  0  0  0  0  0  0  0  0  0  0  0
   -8.1804    7.4065    2.4742 O   0  0  0  0  0  0  0  0  0  0  0  0
   -8.9556    6.8535    1.3856 C   0  0  0  0  0  0  0  0  0  0  0  0
  -10.0925    7.8458    1.0506 C   0  0  0  0  0  0  0  0  0  0  0  0
  -10.9192    8.2486    2.2663 C   0  0  0  0  0  0  0  0  0  0  0  0
   -9.4513    5.5048    1.9356 C   0  0  0  0  0  0  0  0  0  0  0  0
  -10.6871    4.9179    1.2630 C   0  0  0  0  0  0  0  0  0  0  0  0
   -8.0833    6.6989    0.1605 C   0  0  0  0  0  0  0  0  0  0  0  0
   -8.0770    5.6903   -0.8068 C   0  0  0  0  0  0  0  0  0  0  0  0
   -6.7609    9.2534    3.1405 C   0  0  0  0  0  0  0  0  0  0  0  0
   -5.8458   10.1362    2.6038 C   0  0  0  0  0  0  0  0  0  0  0  0
   -5.6858    9.9241    0.8805 S   0  0  0  0  0  0  0  0  0  0  0  0
   -5.0579   11.0957    3.2939 C   0  0  0  0  0  0  0  0  0  0  0  0
   -4.0358   12.2140    2.4289 S   0  0  0  0  0  0  0  0  0  0  0  0
   -3.4468   12.8626    3.9162 C   0  0  0  0  0  0  0  0  0  0  0  0
   -2.5134   13.9104    4.1091 C   0  0  0  0  0  0  0  0  0  0  0  0
   -2.3083   14.3794    5.3935 C   0  0  0  0  0  0  0  0  0  0  0  0
   -2.9504   13.9073    6.4785 O   0  0  0  0  0  0  0  0  0  0  0  0
   -3.5665   12.6087    6.4195 C   0  0  0  0  0  0  0  0  0  0  0  0
   -4.7913   12.6991    7.3495 C   0  0  0  0  0  0  0  0  0  0  0  0
   -4.4560   13.0882    8.7835 C   0  0  0  0  0  0  0  0  0  0  0  0
   -2.5502   11.5165    6.8687 C   0  0  0  0  0  0  0  0  0  0  0  0
   -1.3787   12.0426    7.6916 C   0  0  0  0  0  0  0  0  0  0  0  0
   -4.0213   12.2565    5.0187 C   0  0  0  0  0  0  0  0  0  0  0  0
   -4.9302   11.2568    4.6588 C   0  0  0  0  0  0  0  0  0  0  0  0
   -1.3927   15.4543    5.4396 C   0  0  0  0  0  0  0  0  0  0  0  0
   -0.9163   15.7712    4.2057 C   0  0  0  0  0  0  0  0  0  0  0  0
   -1.5624   14.7811    2.9561 S   0  0  0  0  0  0  0  0  0  0  0  0
    9.2295  -10.0079   10.0800 H   0  0  0  0  0  0  0  0  0  0  0  0
   10.4141   -9.3194    7.8737 H   0  0  0  0  0  0  0  0  0  0  0  0
    9.7858   -6.8356    3.9158 H   0  0  0  0  0  0  0  0  0  0  0  0
   12.2908   -6.9859    3.2763 H   0  0  0  0  0  0  0  0  0  0  0  0
   14.2881   -9.4141    5.2971 H   0  0  0  0  0  0  0  0  0  0  0  0
   14.4262   -8.3477    3.8899 H   0  0  0  0  0  0  0  0  0  0  0  0
   13.4299  -11.2415    3.8376 H   0  0  0  0  0  0  0  0  0  0  0  0
   15.0224  -10.6941    3.3018 H   0  0  0  0  0  0  0  0  0  0  0  0
   13.5717  -10.1882    2.4278 H   0  0  0  0  0  0  0  0  0  0  0  0
    4.8545  -11.3422    8.2100 H   0  0  0  0  0  0  0  0  0  0  0  0
    2.3527  -11.1394    8.8465 H   0  0  0  0  0  0  0  0  0  0  0  0
    0.2371   -9.7515    8.2016 H   0  0  0  0  0  0  0  0  0  0  0  0
    0.4017   -8.6913    6.7919 H   0  0  0  0  0  0  0  0  0  0  0  0
   -0.3104   -7.3937    8.7859 H   0  0  0  0  0  0  0  0  0  0  0  0
    1.1306   -7.9255    9.6605 H   0  0  0  0  0  0  0  0  0  0  0  0
    1.2921   -6.8787    8.2477 H   0  0  0  0  0  0  0  0  0  0  0  0
    4.2541   -8.8446    4.2333 H   0  0  0  0  0  0  0  0  0  0  0  0
    6.9001   -7.6329    0.4388 H   0  0  0  0  0  0  0  0  0  0  0  0
    6.4069   -7.2362   -4.2683 H   0  0  0  0  0  0  0  0  0  0  0  0
    8.8983   -6.5931   -4.5726 H   0  0  0  0  0  0  0  0  0  0  0  0
   10.8592   -5.5148   -3.2658 H   0  0  0  0  0  0  0  0  0  0  0  0
   10.3415   -4.4768   -1.9288 H   0  0  0  0  0  0  0  0  0  0  0  0
   12.0848   -6.0663   -1.1661 H   0  0  0  0  0  0  0  0  0  0  0  0
   10.5522   -6.3905   -0.3473 H   0  0  0  0  0  0  0  0  0  0  0  0
   11.0825   -7.4314   -1.6706 H   0  0  0  0  0  0  0  0  0  0  0  0
    0.2969   -5.1211   -0.7840 H   0  0  0  0  0  0  0  0  0  0  0  0
   -1.9289   -5.8242    0.3435 H   0  0  0  0  0  0  0  0  0  0  0  0
   -1.6971   -8.8700    2.5042 H   0  0  0  0  0  0  0  0  0  0  0  0
   -2.8834   -7.7283    1.8506 H   0  0  0  0  0  0  0  0  0  0  0  0
   -1.8846  -10.2561    0.4442 H   0  0  0  0  0  0  0  0  0  0  0  0
   -3.4566  -10.0726    1.2310 H   0  0  0  0  0  0  0  0  0  0  0  0
   -3.0735   -9.1284   -0.2131 H   0  0  0  0  0  0  0  0  0  0  0  0
    0.7563   -6.0280   -2.8620 H   0  0  0  0  0  0  0  0  0  0  0  0
    3.7208   -3.2454   -8.5168 H   0  0  0  0  0  0  0  0  0  0  0  0
    3.3762   -1.7459   -7.6502 H   0  0  0  0  0  0  0  0  0  0  0  0
    4.3961   -1.1600   -9.7662 H   0  0  0  0  0  0  0  0  0  0  0  0
    2.6936   -0.6982   -9.8463 H   0  0  0  0  0  0  0  0  0  0  0  0
    3.2610   -2.1520  -10.6768 H   0  0  0  0  0  0  0  0  0  0  0  0
    0.0335   -3.7992   -9.3176 H   0  0  0  0  0  0  0  0  0  0  0  0
    1.1346   -2.9968  -10.4343 H   0  0  0  0  0  0  0  0  0  0  0  0
    1.3206   -5.5013  -10.4943 H   0  0  0  0  0  0  0  0  0  0  0  0
    1.8287   -5.4966   -8.8056 H   0  0  0  0  0  0  0  0  0  0  0  0
    2.8480   -4.7520  -10.0411 H   0  0  0  0  0  0  0  0  0  0  0  0
    3.3468   -4.4464   -6.5891 H   0  0  0  0  0  0  0  0  0  0  0  0
   -0.9781    0.5151   -8.3921 H   0  0  0  0  0  0  0  0  0  0  0  0
   -4.6466   -0.7166   -5.5158 H   0  0  0  0  0  0  0  0  0  0  0  0
   -7.1910    0.8714   -2.0233 H   0  0  0  0  0  0  0  0  0  0  0  0
   -8.5748   -1.3117   -1.9120 H   0  0  0  0  0  0  0  0  0  0  0  0
   -9.4100   -2.8452   -5.2038 H   0  0  0  0  0  0  0  0  0  0  0  0
   -9.4730   -3.1930   -3.4685 H   0  0  0  0  0  0  0  0  0  0  0  0
   -7.1112   -3.7950   -5.3213 H   0  0  0  0  0  0  0  0  0  0  0  0
   -8.2583   -4.9863   -4.6987 H   0  0  0  0  0  0  0  0  0  0  0  0
   -7.1625   -4.1499   -3.5929 H   0  0  0  0  0  0  0  0  0  0  0  0
   -5.6676    6.4503   -6.3316 H   0  0  0  0  0  0  0  0  0  0  0  0
   -4.0631    8.1862   -7.3978 H   0  0  0  0  0  0  0  0  0  0  0  0
   -0.4422    7.2916   -7.2559 H   0  0  0  0  0  0  0  0  0  0  0  0
   -1.5403    8.4789   -7.9776 H   0  0  0  0  0  0  0  0  0  0  0  0
   -1.8759    6.9538   -9.9346 H   0  0  0  0  0  0  0  0  0  0  0  0
   -0.7817    5.7780   -9.2019 H   0  0  0  0  0  0  0  0  0  0  0  0
   -0.1668    7.3512   -9.7233 H   0  0  0  0  0  0  0  0  0  0  0  0
   -5.3809    6.1473   -3.9943 H   0  0  0  0  0  0  0  0  0  0  0  0
  -10.7253    7.4044    0.2808 H   0  0  0  0  0  0  0  0  0  0  0  0
   -9.6326    8.7426    0.6262 H   0  0  0  0  0  0  0  0  0  0  0  0
  -11.6447    9.0078    1.9832 H   0  0  0  0  0  0  0  0  0  0  0  0
  -10.2739    8.6586    3.0392 H   0  0  0  0  0  0  0  0  0  0  0  0
  -11.4538    7.4001    2.6834 H   0  0  0  0  0  0  0  0  0  0  0  0
   -9.6558    5.6547    2.9970 H   0  0  0  0  0  0  0  0  0  0  0  0
   -8.6232    4.7966    1.8622 H   0  0  0  0  0  0  0  0  0  0  0  0
  -10.5739    4.8650    0.1843 H   0  0  0  0  0  0  0  0  0  0  0  0
  -10.8502    3.9095    1.6370 H   0  0  0  0  0  0  0  0  0  0  0  0
  -11.5751    5.5037    1.4814 H   0  0  0  0  0  0  0  0  0  0  0  0
   -8.6944    4.8114   -0.7908 H   0  0  0  0  0  0  0  0  0  0  0  0
   -7.0129    9.2097    4.1828 H   0  0  0  0  0  0  0  0  0  0  0  0
   -5.4643   13.4477    6.9247 H   0  0  0  0  0  0  0  0  0  0  0  0
   -5.3073   11.7388    7.3421 H   0  0  0  0  0  0  0  0  0  0  0  0
   -3.8652   13.9994    8.7952 H   0  0  0  0  0  0  0  0  0  0  0  0
   -5.3748   13.2629    9.3388 H   0  0  0  0  0  0  0  0  0  0  0  0
   -3.9021   12.2983    9.2835 H   0  0  0  0  0  0  0  0  0  0  0  0
   -3.0926   10.7602    7.4376 H   0  0  0  0  0  0  0  0  0  0  0  0
   -2.1496   11.0294    5.9755 H   0  0  0  0  0  0  0  0  0  0  0  0
   -0.7635   11.2064    8.0169 H   0  0  0  0  0  0  0  0  0  0  0  0
   -1.7207   12.5859    8.5665 H   0  0  0  0  0  0  0  0  0  0  0  0
   -0.7592   12.7096    7.0969 H   0  0  0  0  0  0  0  0  0  0  0  0
   -5.4657   10.6454    5.3604 H   0  0  0  0  0  0  0  0  0  0  0  0
   -1.1143   15.9549    6.3479 H   0  0  0  0  0  0  0  0  0  0  0  0
   -0.2082   16.5336    3.9505 H   0  0  0  0  0  0  0  0  0  0  0  0
  1  2  2  0  0  0  0
  2  3  1  0  0  0  0
  3  4  2  0  0  0  0
  4  5  1  0  0  0  0
  5  6  2  0  0  0  0
  6  7  1  0  0  0  0
  7  8  2  0  0  0  0
  8  9  1  0  0  0  0
  9 10  1  0  0  0  0
  8 11  1  0  0  0  0
  4 12  1  0  0  0  0
 12 13  2  0  0  0  0
 13 14  1  0  0  0  0
 14 15  1  0  0  0  0
 15 16  2  0  0  0  0
 16 17  1  0  0  0  0
 17 18  2  0  0  0  0
 18 19  1  0  0  0  0
 19 20  1  0  0  0  0
 18 21  1  0  0  0  0
 14 22  2  0  0  0  0
 22 23  1  0  0  0  0
 13 24  1  0  0  0  0
 24 25  2  0  0  0  0
 25 26  1  0  0  0  0
 25 27  1  0  0  0  0
 27 28  2  0  0  0  0
 28 29  1  0  0  0  0
 29 30  2  0  0  0  0
 30 31  1  0  0  0  0
 31 32  2  0  0  0  0
 32 33  1  0  0  0  0
 33 34  2  0  0  0  0
 34 35  1  0  0  0  0
 35 36  1  0  0  0  0
 34 37  1  0  0  0  0
 30 38  1  0  0  0  0
 38 39  2  0  0  0  0
 39 40  1  0  0  0  0
 40 41  1  0  0  0  0
 41 42  2  0  0  0  0
 42 43  1  0  0  0  0
 43 44  2  0  0  0  0
 44 45  1  0  0  0  0
 45 46  1  0  0  0  0
 44 47  1  0  0  0  0
 40 48  2  0  0  0  0
 48 49  1  0  0  0  0
 39 50  1  0  0  0  0
 50 51  2  0  0  0  0
 51 52  1  0  0  0  0
 51 53  1  0  0  0  0
 53 54  1  0  0  0  0
 54 55  1  0  0  0  0
 55 56  1  0  0  0  0
 56 57  2  0  0  0  0
 57 58  1  0  0  0  0
 58 59  1  0  0  0  0
 59 60  1  0  0  0  0
 60 61  1  0  0  0  0
 59 62  1  0  0  0  0
 62 63  1  0  0  0  0
 59 64  1  0  0  0  0
 64 65  1  0  0  0  0
 57 66  1  0  0  0  0
 66 67  2  0  0  0  0
 67 68  1  0  0  0  0
 67 69  1  0  0  0  0
 69 70  2  0  0  0  0
 70 71  1  0  0  0  0
 71 72  2  0  0  0  0
 72 73  1  0  0  0  0
 73 74  2  0  0  0  0
 74 75  1  0  0  0  0
 75 76  2  0  0  0  0
 76 77  1  0  0  0  0
 77 78  1  0  0  0  0
 76 79  1  0  0  0  0
 72 80  1  0  0  0  0
 80 81  2  0  0  0  0
 81 82  1  0  0  0  0
 82 83  1  0  0  0  0
 83 84  2  0  0  0  0
 84 85  1  0  0  0  0
 85 86  2  0  0  0  0
 86 87  1  0  0  0  0
 87 88  1  0  0  0  0
 86 89  1  0  0  0  0
 82 90  2  0  0  0  0
 90 91  1  0  0  0  0
 81 92  1  0  0  0  0
 92 93  2  0  0  0  0
 93 94  1  0  0  0  0
 93 95  1  0  0  0  0
 95 96  1  0  0  0  0
 96 97  1  0  0  0  0
 97 98  1  0  0  0  0
 98 99  2  0  0  0  0
 99100  1  0  0  0  0
100101  1  0  0  0  0
101102  1  0  0  0  0
102103  1  0  0  0  0
101104  1  0  0  0  0
104105  1  0  0  0  0
101106  1  0  0  0  0
106107  1  0  0  0  0
 99108  1  0  0  0  0
108109  2  0  0  0  0
109110  1  0  0  0  0
109111  1  0  0  0  0
111112  1  0  0  0  0
112113  1  0  0  0  0
113114  1  0  0  0  0
114115  2  0  0  0  0
115116  1  0  0  0  0
116117  1  0  0  0  0
117118  1  0  0  0  0
118119  1  0  0  0  0
117120  1  0  0  0  0
120121  1  0  0  0  0
117122  1  0  0  0  0
122123  1  0  0  0  0
115124  1  0  0  0  0
124125  2  0  0  0  0
125126  1  0  0  0  0
 23  1  1  0  0  0  0
 49 27  1  0  0  0  0
 65 53  2  0  0  0  0
 91 69  1  0  0  0  0
107 95  2  0  0  0  0
123111  2  0  0  0  0
 22  3  1  0  0  0  0
 48 29  1  0  0  0  0
 64 55  2  0  0  0  0
 90 71  1  0  0  0  0
106 97  2  0  0  0  0
122113  2  0  0  0  0
 11  5  1  0  0  0  0
 26 12  1  0  0  0  0
 37 31  1  0  0  0  0
 52 38  1  0  0  0  0
 68 56  1  0  0  0  0
 79 73  1  0  0  0  0
 94 80  1  0  0  0  0
110 98  1  0  0  0  0
126114  1  0  0  0  0
 21 15  1  0  0  0  0
 47 41  1  0  0  0  0
 89 83  1  0  0  0  0
  1127  1  0  0  0  0
  2128  1  0  0  0  0
  6129  1  0  0  0  0
  7130  1  0  0  0  0
  9131  1  0  0  0  0
  9132  1  0  0  0  0
 10133  1  0  0  0  0
 10134  1  0  0  0  0
 10135  1  0  0  0  0
 16136  1  0  0  0  0
 17137  1  0  0  0  0
 19138  1  0  0  0  0
 19139  1  0  0  0  0
 20140  1  0  0  0  0
 20141  1  0  0  0  0
 20142  1  0  0  0  0
 24143  1  0  0  0  0
 28144  1  0  0  0  0
 32145  1  0  0  0  0
 33146  1  0  0  0  0
 35147  1  0  0  0  0
 35148  1  0  0  0  0
 36149  1  0  0  0  0
 36150  1  0  0  0  0
 36151  1  0  0  0  0
 42152  1  0  0  0  0
 43153  1  0  0  0  0
 45154  1  0  0  0  0
 45155  1  0  0  0  0
 46156  1  0  0  0  0
 46157  1  0  0  0  0
 46158  1  0  0  0  0
 50159  1  0  0  0  0
 60160  1  0  0  0  0
 60161  1  0  0  0  0
 61162  1  0  0  0  0
 61163  1  0  0  0  0
 61164  1  0  0  0  0
 62165  1  0  0  0  0
 62166  1  0  0  0  0
 63167  1  0  0  0  0
 63168  1  0  0  0  0
 63169  1  0  0  0  0
 65170  1  0  0  0  0
 66171  1  0  0  0  0
 70172  1  0  0  0  0
 74173  1  0  0  0  0
 75174  1  0  0  0  0
 77175  1  0  0  0  0
 77176  1  0  0  0  0
 78177  1  0  0  0  0
 78178  1  0  0  0  0
 78179  1  0  0  0  0
 84180  1  0  0  0  0
 85181  1  0  0  0  0
 87182  1  0  0  0  0
 87183  1  0  0  0  0
 88184  1  0  0  0  0
 88185  1  0  0  0  0
 88186  1  0  0  0  0
 92187  1  0  0  0  0
102188  1  0  0  0  0
102189  1  0  0  0  0
103190  1  0  0  0  0
103191  1  0  0  0  0
103192  1  0  0  0  0
104193  1  0  0  0  0
104194  1  0  0  0  0
105195  1  0  0  0  0
105196  1  0  0  0  0
105197  1  0  0  0  0
107198  1  0  0  0  0
108199  1  0  0  0  0
118200  1  0  0  0  0
118201  1  0  0  0  0
119202  1  0  0  0  0
119203  1  0  0  0  0
119204  1  0  0  0  0
120205  1  0  0  0  0
120206  1  0  0  0  0
121207  1  0  0  0  0
121208  1  0  0  0  0
121209  1  0  0  0  0
123210  1  0  0  0  0
124211  1  0  0  0  0
125212  1  0  0  0  0
M  END
