
  xtb     03022211503D
 energy: -174.284062957536 gnorm: 0.000301199192 xtb: 6.4.1 (unknown)
115127  0     0  0            999 V2000
   14.5531    1.5450   -8.2799 C   0  0  0  0  0  0  0  0  0  0  0  0
   13.6700    0.5907   -7.9276 C   0  0  0  0  0  0  0  0  0  0  0  0
   12.5925    1.2293   -7.2377 C   0  0  0  0  0  0  0  0  0  0  0  0
   11.4218    0.9444   -6.6271 N   0  0  0  0  0  0  0  0  0  0  0  0
   10.8759    2.1184   -6.1526 C   0  0  0  0  0  0  0  0  0  0  0  0
   11.7410    3.1686   -6.4832 C   0  0  0  0  0  0  0  0  0  0  0  0
   12.8140    2.6047   -7.1624 C   0  0  0  0  0  0  0  0  0  0  0  0
   14.1073    2.9143   -7.8352 C   0  0  0  0  0  0  0  0  0  0  0  0
    9.6390    2.1142   -5.4563 C   0  0  0  0  0  0  0  0  0  0  0  0
    9.0173    3.2020   -4.9446 C   0  0  0  0  0  0  0  0  0  0  0  0
    7.7869    3.1659   -4.2403 C   0  0  0  0  0  0  0  0  0  0  0  0
    6.9222    1.6694   -3.9572 S   0  0  0  0  0  0  0  0  0  0  0  0
    5.6756    2.5168   -3.1079 C   0  0  0  0  0  0  0  0  0  0  0  0
    4.5296    1.9879   -2.4797 C   0  0  0  0  0  0  0  0  0  0  0  0
    3.7528    2.8269   -1.6903 C   0  0  0  0  0  0  0  0  0  0  0  0
    4.0402    4.1302   -1.4843 O   0  0  0  0  0  0  0  0  0  0  0  0
    4.9128    4.8051   -2.4108 C   0  0  0  0  0  0  0  0  0  0  0  0
    5.5956    5.9075   -1.5868 C   0  0  0  0  0  0  0  0  0  0  0  0
    6.5551    5.3374   -0.5485 C   0  0  0  0  0  0  0  0  0  0  0  0
    4.0489    5.3867   -3.5576 C   0  0  0  0  0  0  0  0  0  0  0  0
    2.9537    6.3330   -3.0816 C   0  0  0  0  0  0  0  0  0  0  0  0
    5.9219    3.8765   -3.0415 C   0  0  0  0  0  0  0  0  0  0  0  0
    7.1081    4.2340   -3.6885 C   0  0  0  0  0  0  0  0  0  0  0  0
    2.6835    2.1685   -1.0753 C   0  0  0  0  0  0  0  0  0  0  0  0
    2.6176    0.8242   -1.3933 C   0  0  0  0  0  0  0  0  0  0  0  0
    3.9131    0.3732   -2.4800 S   0  0  0  0  0  0  0  0  0  0  0  0
    1.6844   -0.1501   -0.9685 C   0  0  0  0  0  0  0  0  0  0  0  0
    0.6432    0.0164   -0.0874 C   0  0  0  0  0  0  0  0  0  0  0  0
   -0.0175   -1.2247    0.0481 C   0  0  0  0  0  0  0  0  0  0  0  0
   -1.0570   -1.7892    0.7051 N   0  0  0  0  0  0  0  0  0  0  0  0
   -1.1459   -3.1105    0.3291 C   0  0  0  0  0  0  0  0  0  0  0  0
   -0.1110   -3.3809   -0.5816 C   0  0  0  0  0  0  0  0  0  0  0  0
    0.5925   -2.2014   -0.7522 C   0  0  0  0  0  0  0  0  0  0  0  0
    1.7410   -1.5813   -1.4655 C   0  0  0  0  0  0  0  0  0  0  0  0
   -2.1309   -4.0146    0.7982 C   0  0  0  0  0  0  0  0  0  0  0  0
   -3.1053   -3.7415    1.7043 C   0  0  0  0  0  0  0  0  0  0  0  0
   -4.0844   -4.6665    2.1456 C   0  0  0  0  0  0  0  0  0  0  0  0
   -5.0677   -4.4041    3.0670 C   0  0  0  0  0  0  0  0  0  0  0  0
   -5.8380   -5.5784    3.2382 C   0  0  0  0  0  0  0  0  0  0  0  0
   -6.9036   -6.0345    3.9324 N   0  0  0  0  0  0  0  0  0  0  0  0
   -7.1223   -7.3491    3.5869 C   0  0  0  0  0  0  0  0  0  0  0  0
   -6.1552   -7.7236    2.6468 C   0  0  0  0  0  0  0  0  0  0  0  0
   -5.3572   -6.6090    2.4234 C   0  0  0  0  0  0  0  0  0  0  0  0
   -4.1857   -6.1006    1.6556 C   0  0  0  0  0  0  0  0  0  0  0  0
   -8.1558   -8.1593    4.1588 C   0  0  0  0  0  0  0  0  0  0  0  0
   -9.1920   -7.7304    4.9022 C   0  0  0  0  0  0  0  0  0  0  0  0
   -9.5179   -6.3250    5.1014 C   0  0  0  0  0  0  0  0  0  0  0  0
   -9.4751   -5.6094    6.2538 C   0  0  0  0  0  0  0  0  0  0  0  0
   -9.7230   -4.2386    5.9317 C   0  0  0  0  0  0  0  0  0  0  0  0
   -9.7105   -3.0090    6.5001 N   0  0  0  0  0  0  0  0  0  0  0  0
   -9.8828   -2.0668    5.5080 C   0  0  0  0  0  0  0  0  0  0  0  0
  -10.0730   -2.7309    4.3005 C   0  0  0  0  0  0  0  0  0  0  0  0
   -9.9558   -4.0938    4.5671 C   0  0  0  0  0  0  0  0  0  0  0  0
   -9.9231   -5.4390    3.9310 C   0  0  0  0  0  0  0  0  0  0  0  0
   -9.8817   -0.6615    5.8244 C   0  0  0  0  0  0  0  0  0  0  0  0
   -9.2474    0.3421    5.1799 C   0  0  0  0  0  0  0  0  0  0  0  0
   -8.2633    0.2973    4.1457 C   0  0  0  0  0  0  0  0  0  0  0  0
   -7.6451    1.4186    3.6542 C   0  0  0  0  0  0  0  0  0  0  0  0
   -6.6354    1.0160    2.7446 C   0  0  0  0  0  0  0  0  0  0  0  0
   -5.6917    1.5302    1.9216 N   0  0  0  0  0  0  0  0  0  0  0  0
   -5.0542    0.4897    1.2815 C   0  0  0  0  0  0  0  0  0  0  0  0
   -5.6091   -0.7111    1.7293 C   0  0  0  0  0  0  0  0  0  0  0  0
   -6.5935   -0.3764    2.6516 C   0  0  0  0  0  0  0  0  0  0  0  0
   -7.6460   -0.9458    3.5361 C   0  0  0  0  0  0  0  0  0  0  0  0
   -4.0122    0.7387    0.3289 C   0  0  0  0  0  0  0  0  0  0  0  0
   -3.4220   -0.1848   -0.4312 C   0  0  0  0  0  0  0  0  0  0  0  0
   15.4741    1.3913   -8.8126 H   0  0  0  0  0  0  0  0  0  0  0  0
   13.7511   -0.4634   -8.1243 H   0  0  0  0  0  0  0  0  0  0  0  0
   10.9968    0.0383   -6.5199 H   0  0  0  0  0  0  0  0  0  0  0  0
   11.5837    4.2020   -6.2461 H   0  0  0  0  0  0  0  0  0  0  0  0
   13.9887    3.5879   -8.6865 H   0  0  0  0  0  0  0  0  0  0  0  0
   14.8353    3.3672   -7.1589 H   0  0  0  0  0  0  0  0  0  0  0  0
    9.1661    1.1468   -5.3285 H   0  0  0  0  0  0  0  0  0  0  0  0
    9.4630    4.1804   -5.0562 H   0  0  0  0  0  0  0  0  0  0  0  0
    6.1236    6.5805   -2.2629 H   0  0  0  0  0  0  0  0  0  0  0  0
    4.8151    6.4705   -1.0753 H   0  0  0  0  0  0  0  0  0  0  0  0
    7.3735    4.8030   -1.0255 H   0  0  0  0  0  0  0  0  0  0  0  0
    6.0263    4.6474    0.1045 H   0  0  0  0  0  0  0  0  0  0  0  0
    6.9710    6.1390    0.0572 H   0  0  0  0  0  0  0  0  0  0  0  0
    3.5901    4.5402   -4.0767 H   0  0  0  0  0  0  0  0  0  0  0  0
    4.7088    5.8927   -4.2644 H   0  0  0  0  0  0  0  0  0  0  0  0
    2.2723    6.5529   -3.9002 H   0  0  0  0  0  0  0  0  0  0  0  0
    3.3725    7.2702   -2.7246 H   0  0  0  0  0  0  0  0  0  0  0  0
    2.3898    5.8715   -2.2746 H   0  0  0  0  0  0  0  0  0  0  0  0
    7.4756    5.2420   -3.7626 H   0  0  0  0  0  0  0  0  0  0  0  0
    1.9879    2.6589   -0.4211 H   0  0  0  0  0  0  0  0  0  0  0  0
    0.3786    0.9296    0.4128 H   0  0  0  0  0  0  0  0  0  0  0  0
   -1.7089   -1.3207    1.3112 H   0  0  0  0  0  0  0  0  0  0  0  0
    0.0715   -4.3338   -1.0388 H   0  0  0  0  0  0  0  0  0  0  0  0
    1.6360   -1.6228   -2.5513 H   0  0  0  0  0  0  0  0  0  0  0  0
    2.6959   -2.0456   -1.2124 H   0  0  0  0  0  0  0  0  0  0  0  0
   -2.0712   -5.0064    0.3730 H   0  0  0  0  0  0  0  0  0  0  0  0
   -3.1646   -2.7546    2.1475 H   0  0  0  0  0  0  0  0  0  0  0  0
   -5.2243   -3.4652    3.5675 H   0  0  0  0  0  0  0  0  0  0  0  0
   -7.4308   -5.5424    4.6345 H   0  0  0  0  0  0  0  0  0  0  0  0
   -6.0793   -8.6932    2.1936 H   0  0  0  0  0  0  0  0  0  0  0  0
   -3.2732   -6.6571    1.8769 H   0  0  0  0  0  0  0  0  0  0  0  0
   -4.3475   -6.1386    0.5768 H   0  0  0  0  0  0  0  0  0  0  0  0
   -8.0361   -9.2213    3.9898 H   0  0  0  0  0  0  0  0  0  0  0  0
   -9.8344   -8.4587    5.3814 H   0  0  0  0  0  0  0  0  0  0  0  0
   -9.2355   -5.9948    7.2290 H   0  0  0  0  0  0  0  0  0  0  0  0
   -9.5426   -2.7907    7.4681 H   0  0  0  0  0  0  0  0  0  0  0  0
  -10.3099   -2.2639    3.3651 H   0  0  0  0  0  0  0  0  0  0  0  0
   -9.2482   -5.5162    3.0793 H   0  0  0  0  0  0  0  0  0  0  0  0
  -10.9136   -5.7455    3.5841 H   0  0  0  0  0  0  0  0  0  0  0  0
  -10.4488   -0.3998    6.7126 H   0  0  0  0  0  0  0  0  0  0  0  0
   -9.4379    1.3451    5.5463 H   0  0  0  0  0  0  0  0  0  0  0  0
   -7.8835    2.4331    3.9218 H   0  0  0  0  0  0  0  0  0  0  0  0
   -5.4914    2.5039    1.7632 H   0  0  0  0  0  0  0  0  0  0  0  0
   -5.3188   -1.6918    1.4076 H   0  0  0  0  0  0  0  0  0  0  0  0
   -7.2563   -1.6098    4.3092 H   0  0  0  0  0  0  0  0  0  0  0  0
   -8.3706   -1.5131    2.9569 H   0  0  0  0  0  0  0  0  0  0  0  0
   -3.7093    1.7761    0.2366 H   0  0  0  0  0  0  0  0  0  0  0  0
   -2.6434    0.0719   -1.1275 H   0  0  0  0  0  0  0  0  0  0  0  0
   -3.7073   -1.2215   -0.3877 H   0  0  0  0  0  0  0  0  0  0  0  0
  1  2  2  0  0  0  0
  2  3  1  0  0  0  0
  3  4  1  0  0  0  0
  4  5  1  0  0  0  0
  5  6  2  0  0  0  0
  6  7  1  0  0  0  0
  7  8  1  0  0  0  0
  5  9  1  0  0  0  0
  9 10  2  0  0  0  0
 10 11  1  0  0  0  0
 11 12  1  0  0  0  0
 12 13  1  0  0  0  0
 13 14  1  0  0  0  0
 14 15  2  0  0  0  0
 15 16  1  0  0  0  0
 16 17  1  0  0  0  0
 17 18  1  0  0  0  0
 18 19  1  0  0  0  0
 17 20  1  0  0  0  0
 20 21  1  0  0  0  0
 17 22  1  0  0  0  0
 22 23  1  0  0  0  0
 15 24  1  0  0  0  0
 24 25  2  0  0  0  0
 25 26  1  0  0  0  0
 25 27  1  0  0  0  0
 27 28  2  0  0  0  0
 28 29  1  0  0  0  0
 29 30  1  0  0  0  0
 30 31  1  0  0  0  0
 31 32  2  0  0  0  0
 32 33  1  0  0  0  0
 33 34  1  0  0  0  0
 31 35  1  0  0  0  0
 35 36  2  0  0  0  0
 36 37  1  0  0  0  0
 37 38  2  0  0  0  0
 38 39  1  0  0  0  0
 39 40  1  0  0  0  0
 40 41  1  0  0  0  0
 41 42  2  0  0  0  0
 42 43  1  0  0  0  0
 43 44  1  0  0  0  0
 41 45  1  0  0  0  0
 45 46  2  0  0  0  0
 46 47  1  0  0  0  0
 47 48  2  0  0  0  0
 48 49  1  0  0  0  0
 49 50  1  0  0  0  0
 50 51  1  0  0  0  0
 51 52  2  0  0  0  0
 52 53  1  0  0  0  0
 53 54  1  0  0  0  0
 51 55  1  0  0  0  0
 55 56  2  0  0  0  0
 56 57  1  0  0  0  0
 57 58  2  0  0  0  0
 58 59  1  0  0  0  0
 59 60  1  0  0  0  0
 60 61  1  0  0  0  0
 61 62  2  0  0  0  0
 62 63  1  0  0  0  0
 63 64  1  0  0  0  0
 61 65  1  0  0  0  0
 65 66  2  0  0  0  0
  8  1  1  0  0  0  0
 23 11  2  0  0  0  0
 34 27  1  0  0  0  0
 44 37  1  0  0  0  0
 54 47  1  0  0  0  0
 64 57  1  0  0  0  0
  7  3  2  0  0  0  0
 22 13  2  0  0  0  0
 33 29  2  0  0  0  0
 43 39  2  0  0  0  0
 53 49  2  0  0  0  0
 63 59  2  0  0  0  0
 26 14  1  0  0  0  0
  1 67  1  0  0  0  0
  2 68  1  0  0  0  0
  4 69  1  0  0  0  0
  6 70  1  0  0  0  0
  8 71  1  0  0  0  0
  8 72  1  0  0  0  0
  9 73  1  0  0  0  0
 10 74  1  0  0  0  0
 18 75  1  0  0  0  0
 18 76  1  0  0  0  0
 19 77  1  0  0  0  0
 19 78  1  0  0  0  0
 19 79  1  0  0  0  0
 20 80  1  0  0  0  0
 20 81  1  0  0  0  0
 21 82  1  0  0  0  0
 21 83  1  0  0  0  0
 21 84  1  0  0  0  0
 23 85  1  0  0  0  0
 24 86  1  0  0  0  0
 28 87  1  0  0  0  0
 30 88  1  0  0  0  0
 32 89  1  0  0  0  0
 34 90  1  0  0  0  0
 34 91  1  0  0  0  0
 35 92  1  0  0  0  0
 36 93  1  0  0  0  0
 38 94  1  0  0  0  0
 40 95  1  0  0  0  0
 42 96  1  0  0  0  0
 44 97  1  0  0  0  0
 44 98  1  0  0  0  0
 45 99  1  0  0  0  0
 46100  1  0  0  0  0
 48101  1  0  0  0  0
 50102  1  0  0  0  0
 52103  1  0  0  0  0
 54104  1  0  0  0  0
 54105  1  0  0  0  0
 55106  1  0  0  0  0
 56107  1  0  0  0  0
 58108  1  0  0  0  0
 60109  1  0  0  0  0
 62110  1  0  0  0  0
 64111  1  0  0  0  0
 64112  1  0  0  0  0
 65113  1  0  0  0  0
 66114  1  0  0  0  0
 66115  1  0  0  0  0
M  END
