130

C          4.65750        2.89450       -2.23530
S          3.00710        2.48630       -2.04670
C          2.52920        4.14800       -2.17770
C          3.63820        4.96550       -2.34350
C          4.86290        4.24000       -2.35870
O          6.14330        4.72800       -2.40930
C          6.41360        5.76320       -3.32680
C          5.72520        7.08550       -2.99040
C          4.23240        7.05680       -3.31500
O          3.45690        6.32300       -2.39420
C          1.19030        4.63490       -2.25160
C          0.00360        4.07850       -1.92590
C         -0.35150        2.90370       -1.20410
S          0.66750        1.96480       -0.16000
C         -0.66920        1.00650        0.39910
C         -1.84220        1.36680       -0.25220
C         -1.66670        2.45200       -1.13330
O         -2.62770        3.05560       -1.90400
C         -3.82460        3.41250       -1.24670
C         -4.70710        2.21860       -0.88570
C         -4.15280        1.41030        0.28800
O         -2.99810        0.65960       -0.02100
C         -0.55370        0.01500        1.40390
C          0.54600       -0.21300        2.15890
C          0.60690       -1.18440        3.18800
S         -0.67690       -2.30490        3.49390
C          0.12100       -2.95410        4.88670
C          1.34230       -2.30440        5.09470
C          1.61870       -1.31100        4.13760
O          2.66980       -0.43310        4.09520
C          3.96100       -0.93590        4.35390
C          4.16990       -1.40510        5.79270
C          3.47590       -2.73840        6.06500
O          2.07680       -2.63660        6.20480
C         -0.30180       -4.04190        5.69690
C         -1.38190       -4.85520        5.63880
C         -2.53040       -4.77310        4.79250
S         -3.19580       -6.23560        4.12750
C         -4.33640       -5.34670        3.17460
C         -4.24900       -3.98960        3.41850
C         -3.24530       -3.66470        4.37190
O         -2.89320       -2.46410        4.91140
C         -3.81140       -1.40300        4.97000
C         -4.39960       -0.99470        3.62270
C         -5.50500       -1.95330        3.18850
O         -5.03410       -3.16560        2.65730
C         -5.22740       -6.00640        2.25250
C         -5.40410       -5.64530        0.96760
C         -4.61740       -4.71970        0.21480
S         -3.01410       -4.22720        0.69360
C         -2.82620       -3.32570       -0.76200
C         -1.67620       -2.63930       -1.20820
C         -1.66060       -2.13240       -2.49980
O         -2.69410       -2.25900       -3.35740
C         -4.00890       -2.55130       -2.83120
C         -4.65320       -1.18780       -2.49090
C         -6.09790       -1.26760       -2.01710
C         -4.72870       -3.31710       -3.95370
C         -4.81460       -2.54360       -5.26410
C         -3.94670       -3.38470       -1.57260
C         -4.94440       -4.19390       -1.01850
C         -0.43050       -1.55600       -2.84550
C          0.49420       -1.62960       -1.82550
S         -0.15970       -2.41870       -0.41630
C          1.85060       -1.20040       -1.81710
S          2.73100       -1.09250       -0.32990
C          4.17800       -0.62020       -1.15520
C          3.97040       -0.53140       -2.52040
C          2.64040       -0.84500       -2.90090
O          2.07840       -0.78120       -4.14560
C          2.82270       -1.26370       -5.24140
C          4.06500       -0.43380       -5.55790
C          5.19390       -0.69940       -4.56500
O          5.00410       -0.09420       -3.30680
C          5.40150       -0.32820       -0.46760
C          5.52800       -0.27280        0.85590
H          5.40440        2.12880       -2.21170
H          7.49900        5.88470       -3.27950
H          6.13810        5.45040       -4.34600
H          5.85710        7.29780       -1.92770
H          6.19410        7.88250       -3.56880
H          3.82020        8.06810       -3.26350
H          4.08250        6.66610       -4.33360
H          1.15160        5.63130       -2.67810
H         -0.87960        4.63060       -2.22970
H         -4.34590        4.05380       -1.96250
H         -3.60040        3.99970       -0.34300
H         -4.79220        1.57210       -1.76000
H         -5.69960        2.58400       -0.61750
H         -4.88530        0.66020        0.59930
H         -3.94910        2.08080        1.13690
H         -1.45030       -0.56450        1.58310
H          1.43570        0.38470        2.01590
H          4.62260       -0.09310        4.13690
H          4.19320       -1.75910        3.66060
H          3.78010       -0.65050        6.47870
H          5.23940       -1.52320        5.97110
H          3.80990       -3.14550        7.02320
H          3.72660       -3.45600        5.26870
H          0.43770       -4.28140        6.45270
H         -1.36020       -5.73670        6.26850
H         -4.62830       -1.65120        5.66740
H         -3.22900       -0.58080        5.39440
H         -3.60950       -0.98400        2.86940
H         -4.81590        0.00960        3.71070
H         -6.08720       -1.51970        2.37030
H         -6.18350       -2.14470        4.03570
H         -5.78210       -6.84760        2.64710
H         -6.18720       -6.13250        0.39950
H         -4.03560       -0.74120       -1.70730
H         -4.57960       -0.55440       -3.37700
H         -6.46160       -0.27380       -1.76380
H         -6.17630       -1.89450       -1.13200
H         -6.74410       -1.67460       -2.79080
H         -5.72860       -3.58680       -3.61630
H         -4.16920       -4.24050       -4.11950
H         -3.82980       -2.18440       -5.54810
H         -5.48670       -1.69390       -5.17660
H         -5.18980       -3.19380       -6.05130
H         -5.89200       -4.39650       -1.48530
H         -0.22480       -1.09920       -3.79360
H          2.12050       -1.22190       -6.07810
H          3.10840       -2.31350       -5.07380
H          4.41190       -0.68630       -6.56060
H          3.80400        0.62590       -5.53000
H          5.33640       -1.78480       -4.44680
H          6.12660       -0.26160       -4.93110
H          6.24710       -0.14240       -1.11700
H          4.67960       -0.43730        1.49840
H          6.46940       -0.05340        1.32690
