
  xtb     03032208393D
 energy: -223.968786894640 gnorm: 0.000249858594 xtb: 6.4.1 (unknown)
150157  0     0  0            999 V2000
   -0.4478   10.9034   -6.6330 C   0  0  0  0  0  0  0  0  0  0  0  0
    0.1438   11.0220   -5.3828 C   0  0  0  0  0  0  0  0  0  0  0  0
   -0.0459   10.0620   -4.4026 C   0  0  0  0  0  0  0  0  0  0  0  0
    0.5122   10.1147   -3.1557 O   0  0  0  0  0  0  0  0  0  0  0  0
    1.4476   11.1295   -2.8648 C   0  0  0  0  0  0  0  0  0  0  0  0
    1.9718   10.8783   -1.4587 C   0  0  0  0  0  0  0  0  0  0  0  0
   -0.8500    8.9419   -4.6910 C   0  0  0  0  0  0  0  0  0  0  0  0
   -1.4356    8.8393   -5.9390 C   0  0  0  0  0  0  0  0  0  0  0  0
   -1.2471    9.8088   -6.9229 C   0  0  0  0  0  0  0  0  0  0  0  0
   -1.9086    9.5874   -8.0990 O   0  0  0  0  0  0  0  0  0  0  0  0
   -1.6541   10.4215   -9.2080 C   0  0  0  0  0  0  0  0  0  0  0  0
   -0.3049   10.1375   -9.8635 C   0  0  0  0  0  0  0  0  0  0  0  0
   -1.0578    7.8902   -3.6811 C   0  0  0  0  0  0  0  0  0  0  0  0
   -1.4476    8.2315   -2.3941 C   0  0  0  0  0  0  0  0  0  0  0  0
   -1.6375    7.2883   -1.3962 C   0  0  0  0  0  0  0  0  0  0  0  0
   -1.9755    7.6006   -0.1083 O   0  0  0  0  0  0  0  0  0  0  0  0
   -2.1135    8.9513    0.2794 C   0  0  0  0  0  0  0  0  0  0  0  0
   -3.4753    9.5354   -0.0888 C   0  0  0  0  0  0  0  0  0  0  0  0
   -1.4421    5.9265   -1.7044 C   0  0  0  0  0  0  0  0  0  0  0  0
   -1.0542    5.5911   -3.0048 C   0  0  0  0  0  0  0  0  0  0  0  0
   -0.8540    6.5360   -3.9944 C   0  0  0  0  0  0  0  0  0  0  0  0
   -0.4231    6.2608   -5.2590 O   0  0  0  0  0  0  0  0  0  0  0  0
   -0.2646    4.9214   -5.6745 C   0  0  0  0  0  0  0  0  0  0  0  0
   -1.5938    4.2372   -5.9842 C   0  0  0  0  0  0  0  0  0  0  0  0
   -1.5916    4.8708   -0.7304 C   0  0  0  0  0  0  0  0  0  0  0  0
   -0.9762    3.2701   -1.0924 S   0  0  0  0  0  0  0  0  0  0  0  0
   -1.4541    2.6944    0.4616 C   0  0  0  0  0  0  0  0  0  0  0  0
   -1.3327    1.3879    0.9911 C   0  0  0  0  0  0  0  0  0  0  0  0
   -1.9720    1.0944    2.1824 C   0  0  0  0  0  0  0  0  0  0  0  0
   -2.7287    1.9894    2.8560 O   0  0  0  0  0  0  0  0  0  0  0  0
   -2.4704    3.3943    2.6411 C   0  0  0  0  0  0  0  0  0  0  0  0
   -3.7907    4.1029    2.9822 C   0  0  0  0  0  0  0  0  0  0  0  0
   -4.2723    3.8430    4.4046 C   0  0  0  0  0  0  0  0  0  0  0  0
   -1.2994    3.7788    3.5766 C   0  0  0  0  0  0  0  0  0  0  0  0
   -0.9630    5.2628    3.6024 C   0  0  0  0  0  0  0  0  0  0  0  0
   -2.0682    3.6769    1.2118 C   0  0  0  0  0  0  0  0  0  0  0  0
   -2.1448    4.8984    0.5270 C   0  0  0  0  0  0  0  0  0  0  0  0
   -1.8088   -0.2430    2.5811 C   0  0  0  0  0  0  0  0  0  0  0  0
   -1.0457   -0.9785    1.7085 C   0  0  0  0  0  0  0  0  0  0  0  0
   -0.5197    0.0032    0.3586 S   0  0  0  0  0  0  0  0  0  0  0  0
   -0.6325   -2.3612    1.7721 C   0  0  0  0  0  0  0  0  0  0  0  0
   -0.1760   -2.9801    0.6052 C   0  0  0  0  0  0  0  0  0  0  0  0
    0.2680   -4.2891    0.5808 C   0  0  0  0  0  0  0  0  0  0  0  0
    0.7502   -4.9294   -0.5251 O   0  0  0  0  0  0  0  0  0  0  0  0
    0.7582   -4.2696   -1.7727 C   0  0  0  0  0  0  0  0  0  0  0  0
   -0.6176   -4.2412   -2.4354 C   0  0  0  0  0  0  0  0  0  0  0  0
    0.2674   -5.0219    1.7795 C   0  0  0  0  0  0  0  0  0  0  0  0
   -0.1910   -4.4157    2.9401 C   0  0  0  0  0  0  0  0  0  0  0  0
   -0.6423   -3.1048    2.9691 C   0  0  0  0  0  0  0  0  0  0  0  0
   -1.0700   -2.4683    4.0976 O   0  0  0  0  0  0  0  0  0  0  0  0
   -0.9858   -3.1174    5.3493 C   0  0  0  0  0  0  0  0  0  0  0  0
   -2.1619   -4.0558    5.6103 C   0  0  0  0  0  0  0  0  0  0  0  0
    0.7484   -6.4128    1.8190 C   0  0  0  0  0  0  0  0  0  0  0  0
    0.2500   -7.3434    0.9159 C   0  0  0  0  0  0  0  0  0  0  0  0
    0.6764   -8.6627    0.9151 C   0  0  0  0  0  0  0  0  0  0  0  0
    0.1981   -9.6213    0.0666 O   0  0  0  0  0  0  0  0  0  0  0  0
   -0.8172   -9.2773   -0.8501 C   0  0  0  0  0  0  0  0  0  0  0  0
   -1.1567  -10.5297   -1.6445 C   0  0  0  0  0  0  0  0  0  0  0  0
    1.6457   -9.0643    1.8465 C   0  0  0  0  0  0  0  0  0  0  0  0
    2.1488   -8.1305    2.7418 C   0  0  0  0  0  0  0  0  0  0  0  0
    1.7080   -6.8161    2.7584 C   0  0  0  0  0  0  0  0  0  0  0  0
    2.1790   -5.8518    3.6105 O   0  0  0  0  0  0  0  0  0  0  0  0
    2.9875   -6.2280    4.7029 C   0  0  0  0  0  0  0  0  0  0  0  0
    2.2101   -6.9749    5.7852 C   0  0  0  0  0  0  0  0  0  0  0  0
    2.1442  -10.4508    1.8831 C   0  0  0  0  0  0  0  0  0  0  0  0
    2.5678  -11.0562    0.7069 C   0  0  0  0  0  0  0  0  0  0  0  0
    3.0488  -12.3580    0.7008 C   0  0  0  0  0  0  0  0  0  0  0  0
    3.4824  -13.0284   -0.4062 O   0  0  0  0  0  0  0  0  0  0  0  0
    3.3771  -12.3938   -1.6634 C   0  0  0  0  0  0  0  0  0  0  0  0
    3.8516  -13.3799   -2.7197 C   0  0  0  0  0  0  0  0  0  0  0  0
    3.1092  -13.0539    1.9038 C   0  0  0  0  0  0  0  0  0  0  0  0
    2.6931  -12.4631    3.0808 C   0  0  0  0  0  0  0  0  0  0  0  0
    2.2053  -11.1617    3.0922 C   0  0  0  0  0  0  0  0  0  0  0  0
    1.7313  -10.5153    4.2054 O   0  0  0  0  0  0  0  0  0  0  0  0
    1.8541  -11.1192    5.4736 C   0  0  0  0  0  0  0  0  0  0  0  0
    3.2752  -11.0457    6.0287 C   0  0  0  0  0  0  0  0  0  0  0  0
   -0.2682   11.6832   -7.3562 H   0  0  0  0  0  0  0  0  0  0  0  0
    0.7607   11.8867   -5.1936 H   0  0  0  0  0  0  0  0  0  0  0  0
    0.9693   12.1188   -2.9176 H   0  0  0  0  0  0  0  0  0  0  0  0
    2.2753   11.1023   -3.5876 H   0  0  0  0  0  0  0  0  0  0  0  0
    1.1588   10.9397   -0.7402 H   0  0  0  0  0  0  0  0  0  0  0  0
    2.4077    9.8848   -1.4013 H   0  0  0  0  0  0  0  0  0  0  0  0
    2.7265   11.6177   -1.2058 H   0  0  0  0  0  0  0  0  0  0  0  0
   -2.0605    7.9932   -6.1711 H   0  0  0  0  0  0  0  0  0  0  0  0
   -1.7350   11.4796   -8.9273 H   0  0  0  0  0  0  0  0  0  0  0  0
   -2.4616   10.1926   -9.9096 H   0  0  0  0  0  0  0  0  0  0  0  0
   -0.1797   10.7700  -10.7383 H   0  0  0  0  0  0  0  0  0  0  0  0
    0.5095   10.3268   -9.1686 H   0  0  0  0  0  0  0  0  0  0  0  0
   -0.2578    9.0954  -10.1692 H   0  0  0  0  0  0  0  0  0  0  0  0
   -1.5949    9.2783   -2.1917 H   0  0  0  0  0  0  0  0  0  0  0  0
   -1.3001    9.5584   -0.1348 H   0  0  0  0  0  0  0  0  0  0  0  0
   -2.0058    8.9314    1.3690 H   0  0  0  0  0  0  0  0  0  0  0  0
   -4.2655    8.9347    0.3551 H   0  0  0  0  0  0  0  0  0  0  0  0
   -3.5517   10.5524    0.2868 H   0  0  0  0  0  0  0  0  0  0  0  0
   -3.6172    9.5437   -1.1663 H   0  0  0  0  0  0  0  0  0  0  0  0
   -0.8994    4.5441   -3.2126 H   0  0  0  0  0  0  0  0  0  0  0  0
    0.3331    4.9952   -6.5878 H   0  0  0  0  0  0  0  0  0  0  0  0
    0.3068    4.3460   -4.9354 H   0  0  0  0  0  0  0  0  0  0  0  0
   -1.4114    3.2287   -6.3455 H   0  0  0  0  0  0  0  0  0  0  0  0
   -2.1256    4.7968   -6.7497 H   0  0  0  0  0  0  0  0  0  0  0  0
   -2.2203    4.1860   -5.0974 H   0  0  0  0  0  0  0  0  0  0  0  0
   -3.6712    5.1731    2.8190 H   0  0  0  0  0  0  0  0  0  0  0  0
   -4.5413    3.7361    2.2783 H   0  0  0  0  0  0  0  0  0  0  0  0
   -4.2981    2.7746    4.5986 H   0  0  0  0  0  0  0  0  0  0  0  0
   -5.2749    4.2451    4.5328 H   0  0  0  0  0  0  0  0  0  0  0  0
   -3.6201    4.3164    5.1339 H   0  0  0  0  0  0  0  0  0  0  0  0
   -1.5448    3.4304    4.5814 H   0  0  0  0  0  0  0  0  0  0  0  0
   -0.4231    3.2160    3.2410 H   0  0  0  0  0  0  0  0  0  0  0  0
   -0.7450    5.6268    2.6013 H   0  0  0  0  0  0  0  0  0  0  0  0
   -1.7840    5.8444    4.0136 H   0  0  0  0  0  0  0  0  0  0  0  0
   -0.0859    5.4271    4.2248 H   0  0  0  0  0  0  0  0  0  0  0  0
   -2.5961    5.7835    0.9282 H   0  0  0  0  0  0  0  0  0  0  0  0
   -2.2469   -0.6462    3.4720 H   0  0  0  0  0  0  0  0  0  0  0  0
   -0.1746   -2.3836   -0.2934 H   0  0  0  0  0  0  0  0  0  0  0  0
    1.4489   -4.8592   -2.3832 H   0  0  0  0  0  0  0  0  0  0  0  0
    1.1645   -3.2554   -1.6776 H   0  0  0  0  0  0  0  0  0  0  0  0
   -0.9859   -5.2558   -2.5672 H   0  0  0  0  0  0  0  0  0  0  0  0
   -0.5458   -3.7631   -3.4084 H   0  0  0  0  0  0  0  0  0  0  0  0
   -1.3311   -3.6933   -1.8253 H   0  0  0  0  0  0  0  0  0  0  0  0
   -0.1799   -5.0108    3.8370 H   0  0  0  0  0  0  0  0  0  0  0  0
   -1.0022   -2.3008    6.0784 H   0  0  0  0  0  0  0  0  0  0  0  0
   -0.0304   -3.6465    5.4469 H   0  0  0  0  0  0  0  0  0  0  0  0
   -2.0793   -4.4777    6.6086 H   0  0  0  0  0  0  0  0  0  0  0  0
   -2.1860   -4.8647    4.8847 H   0  0  0  0  0  0  0  0  0  0  0  0
   -3.0956   -3.5036    5.5373 H   0  0  0  0  0  0  0  0  0  0  0  0
   -0.4945   -7.0059    0.2146 H   0  0  0  0  0  0  0  0  0  0  0  0
   -1.7072   -8.9159   -0.3155 H   0  0  0  0  0  0  0  0  0  0  0  0
   -0.4680   -8.4827   -1.5254 H   0  0  0  0  0  0  0  0  0  0  0  0
   -1.4691  -11.3205   -0.9681 H   0  0  0  0  0  0  0  0  0  0  0  0
   -1.9587  -10.3197   -2.3466 H   0  0  0  0  0  0  0  0  0  0  0  0
   -0.2830  -10.8711   -2.1933 H   0  0  0  0  0  0  0  0  0  0  0  0
    2.9122   -8.4645    3.4239 H   0  0  0  0  0  0  0  0  0  0  0  0
    3.3599   -5.2781    5.0985 H   0  0  0  0  0  0  0  0  0  0  0  0
    3.8499   -6.8189    4.3688 H   0  0  0  0  0  0  0  0  0  0  0  0
    1.8012   -7.9024    5.3919 H   0  0  0  0  0  0  0  0  0  0  0  0
    2.8676   -7.1990    6.6214 H   0  0  0  0  0  0  0  0  0  0  0  0
    1.3875   -6.3594    6.1423 H   0  0  0  0  0  0  0  0  0  0  0  0
    2.5155  -10.4778   -0.1998 H   0  0  0  0  0  0  0  0  0  0  0  0
    3.9997  -11.4879   -1.6848 H   0  0  0  0  0  0  0  0  0  0  0  0
    2.3336  -12.1052   -1.8526 H   0  0  0  0  0  0  0  0  0  0  0  0
    4.8824  -13.6632   -2.5249 H   0  0  0  0  0  0  0  0  0  0  0  0
    3.7851  -12.9287   -3.7057 H   0  0  0  0  0  0  0  0  0  0  0  0
    3.2368  -14.2753   -2.6932 H   0  0  0  0  0  0  0  0  0  0  0  0
    3.4856  -14.0646    1.9018 H   0  0  0  0  0  0  0  0  0  0  0  0
    2.7494  -13.0435    3.9881 H   0  0  0  0  0  0  0  0  0  0  0  0
    1.4986  -12.1568    5.4515 H   0  0  0  0  0  0  0  0  0  0  0  0
    1.1783  -10.5433    6.1136 H   0  0  0  0  0  0  0  0  0  0  0  0
    3.3065  -11.4911    7.0194 H   0  0  0  0  0  0  0  0  0  0  0  0
    3.9709  -11.5733    5.3809 H   0  0  0  0  0  0  0  0  0  0  0  0
    3.5916  -10.0078    6.0989 H   0  0  0  0  0  0  0  0  0  0  0  0
  1  2  2  0  0  0  0
  2  3  1  0  0  0  0
  3  4  1  0  0  0  0
  4  5  1  0  0  0  0
  5  6  1  0  0  0  0
  3  7  2  0  0  0  0
  7  8  1  0  0  0  0
  8  9  2  0  0  0  0
  9 10  1  0  0  0  0
 10 11  1  0  0  0  0
 11 12  1  0  0  0  0
  7 13  1  0  0  0  0
 13 14  2  0  0  0  0
 14 15  1  0  0  0  0
 15 16  1  0  0  0  0
 16 17  1  0  0  0  0
 17 18  1  0  0  0  0
 15 19  2  0  0  0  0
 19 20  1  0  0  0  0
 20 21  2  0  0  0  0
 21 22  1  0  0  0  0
 22 23  1  0  0  0  0
 23 24  1  0  0  0  0
 19 25  1  0  0  0  0
 25 26  1  0  0  0  0
 26 27  1  0  0  0  0
 27 28  1  0  0  0  0
 28 29  2  0  0  0  0
 29 30  1  0  0  0  0
 30 31  1  0  0  0  0
 31 32  1  0  0  0  0
 32 33  1  0  0  0  0
 31 34  1  0  0  0  0
 34 35  1  0  0  0  0
 31 36  1  0  0  0  0
 36 37  1  0  0  0  0
 29 38  1  0  0  0  0
 38 39  2  0  0  0  0
 39 40  1  0  0  0  0
 39 41  1  0  0  0  0
 41 42  2  0  0  0  0
 42 43  1  0  0  0  0
 43 44  1  0  0  0  0
 44 45  1  0  0  0  0
 45 46  1  0  0  0  0
 43 47  2  0  0  0  0
 47 48  1  0  0  0  0
 48 49  2  0  0  0  0
 49 50  1  0  0  0  0
 50 51  1  0  0  0  0
 51 52  1  0  0  0  0
 47 53  1  0  0  0  0
 53 54  2  0  0  0  0
 54 55  1  0  0  0  0
 55 56  1  0  0  0  0
 56 57  1  0  0  0  0
 57 58  1  0  0  0  0
 55 59  2  0  0  0  0
 59 60  1  0  0  0  0
 60 61  2  0  0  0  0
 61 62  1  0  0  0  0
 62 63  1  0  0  0  0
 63 64  1  0  0  0  0
 59 65  1  0  0  0  0
 65 66  2  0  0  0  0
 66 67  1  0  0  0  0
 67 68  1  0  0  0  0
 68 69  1  0  0  0  0
 69 70  1  0  0  0  0
 67 71  2  0  0  0  0
 71 72  1  0  0  0  0
 72 73  2  0  0  0  0
 73 74  1  0  0  0  0
 74 75  1  0  0  0  0
 75 76  1  0  0  0  0
  9  1  1  0  0  0  0
 21 13  1  0  0  0  0
 37 25  2  0  0  0  0
 49 41  1  0  0  0  0
 61 53  1  0  0  0  0
 73 65  1  0  0  0  0
 36 27  2  0  0  0  0
 40 28  1  0  0  0  0
  1 77  1  0  0  0  0
  2 78  1  0  0  0  0
  5 79  1  0  0  0  0
  5 80  1  0  0  0  0
  6 81  1  0  0  0  0
  6 82  1  0  0  0  0
  6 83  1  0  0  0  0
  8 84  1  0  0  0  0
 11 85  1  0  0  0  0
 11 86  1  0  0  0  0
 12 87  1  0  0  0  0
 12 88  1  0  0  0  0
 12 89  1  0  0  0  0
 14 90  1  0  0  0  0
 17 91  1  0  0  0  0
 17 92  1  0  0  0  0
 18 93  1  0  0  0  0
 18 94  1  0  0  0  0
 18 95  1  0  0  0  0
 20 96  1  0  0  0  0
 23 97  1  0  0  0  0
 23 98  1  0  0  0  0
 24 99  1  0  0  0  0
 24100  1  0  0  0  0
 24101  1  0  0  0  0
 32102  1  0  0  0  0
 32103  1  0  0  0  0
 33104  1  0  0  0  0
 33105  1  0  0  0  0
 33106  1  0  0  0  0
 34107  1  0  0  0  0
 34108  1  0  0  0  0
 35109  1  0  0  0  0
 35110  1  0  0  0  0
 35111  1  0  0  0  0
 37112  1  0  0  0  0
 38113  1  0  0  0  0
 42114  1  0  0  0  0
 45115  1  0  0  0  0
 45116  1  0  0  0  0
 46117  1  0  0  0  0
 46118  1  0  0  0  0
 46119  1  0  0  0  0
 48120  1  0  0  0  0
 51121  1  0  0  0  0
 51122  1  0  0  0  0
 52123  1  0  0  0  0
 52124  1  0  0  0  0
 52125  1  0  0  0  0
 54126  1  0  0  0  0
 57127  1  0  0  0  0
 57128  1  0  0  0  0
 58129  1  0  0  0  0
 58130  1  0  0  0  0
 58131  1  0  0  0  0
 60132  1  0  0  0  0
 63133  1  0  0  0  0
 63134  1  0  0  0  0
 64135  1  0  0  0  0
 64136  1  0  0  0  0
 64137  1  0  0  0  0
 66138  1  0  0  0  0
 69139  1  0  0  0  0
 69140  1  0  0  0  0
 70141  1  0  0  0  0
 70142  1  0  0  0  0
 70143  1  0  0  0  0
 71144  1  0  0  0  0
 72145  1  0  0  0  0
 75146  1  0  0  0  0
 75147  1  0  0  0  0
 76148  1  0  0  0  0
 76149  1  0  0  0  0
 76150  1  0  0  0  0
M  END
