
  xtb     03022216523D
 energy: -172.358263760571 gnorm: 0.000301975839 xtb: 6.4.1 (unknown)
105112  0     0  0            999 V2000
    8.5120    2.5732    4.9662 C   0  0  0  0  0  0  0  0  0  0  0  0
    8.8264    3.8534    4.6610 C   0  0  0  0  0  0  0  0  0  0  0  0
    7.7698    4.5681    4.0313 C   0  0  0  0  0  0  0  0  0  0  0  0
    7.9309    5.9656    3.5998 C   0  0  0  0  0  0  0  0  0  0  0  0
    7.0503    6.7978    3.6603 O   0  0  0  0  0  0  0  0  0  0  0  0
    9.2989    6.3193    3.0495 C   0  0  0  0  0  0  0  0  0  0  0  0
    9.6728    5.4335    1.8625 C   0  0  0  0  0  0  0  0  0  0  0  0
    6.6411    3.7748    3.8642 C   0  0  0  0  0  0  0  0  0  0  0  0
    6.9191    2.1652    4.4709 S   0  0  0  0  0  0  0  0  0  0  0  0
    5.3933    4.0316    3.2215 C   0  0  0  0  0  0  0  0  0  0  0  0
    4.4440    2.6741    2.6485 S   0  0  0  0  0  0  0  0  0  0  0  0
    3.2243    3.7425    2.0604 C   0  0  0  0  0  0  0  0  0  0  0  0
    2.0366    3.4248    1.3635 C   0  0  0  0  0  0  0  0  0  0  0  0
    1.2861    4.4632    0.8258 C   0  0  0  0  0  0  0  0  0  0  0  0
    1.6146    5.7607    0.9310 O   0  0  0  0  0  0  0  0  0  0  0  0
    2.5716    6.1709    1.9327 C   0  0  0  0  0  0  0  0  0  0  0  0
    1.7939    6.5459    3.2169 C   0  0  0  0  0  0  0  0  0  0  0  0
    0.7668    7.6521    3.0094 C   0  0  0  0  0  0  0  0  0  0  0  0
    3.3033    7.3765    1.3238 C   0  0  0  0  0  0  0  0  0  0  0  0
    4.2018    6.9774    0.1587 C   0  0  0  0  0  0  0  0  0  0  0  0
    3.5355    5.0693    2.2974 C   0  0  0  0  0  0  0  0  0  0  0  0
    4.7543    5.2242    2.9634 C   0  0  0  0  0  0  0  0  0  0  0  0
    0.1769    4.0112    0.0975 C   0  0  0  0  0  0  0  0  0  0  0  0
    0.0709    2.6364    0.0835 C   0  0  0  0  0  0  0  0  0  0  0  0
    1.3567    1.8836    0.9860 S   0  0  0  0  0  0  0  0  0  0  0  0
   -0.9191    1.8466   -0.5664 C   0  0  0  0  0  0  0  0  0  0  0  0
   -1.9742    2.2739   -1.3320 C   0  0  0  0  0  0  0  0  0  0  0  0
   -2.7580    1.2345   -1.8810 C   0  0  0  0  0  0  0  0  0  0  0  0
   -3.9633    1.5122   -2.6845 C   0  0  0  0  0  0  0  0  0  0  0  0
   -4.3869    0.7744   -3.5469 O   0  0  0  0  0  0  0  0  0  0  0  0
   -4.6530    2.8240   -2.3560 C   0  0  0  0  0  0  0  0  0  0  0  0
   -6.0674    2.8705   -2.9193 C   0  0  0  0  0  0  0  0  0  0  0  0
   -2.2844   -0.0230   -1.5146 C   0  0  0  0  0  0  0  0  0  0  0  0
   -0.8966    0.1113   -0.4739 S   0  0  0  0  0  0  0  0  0  0  0  0
   -2.7601   -1.3402   -1.7944 C   0  0  0  0  0  0  0  0  0  0  0  0
   -3.4712   -1.8251   -2.8556 C   0  0  0  0  0  0  0  0  0  0  0  0
   -3.7177   -3.2167   -2.8093 C   0  0  0  0  0  0  0  0  0  0  0  0
   -4.4617   -3.9246   -3.8489 C   0  0  0  0  0  0  0  0  0  0  0  0
   -4.5984   -5.1349   -3.8534 O   0  0  0  0  0  0  0  0  0  0  0  0
   -5.0631   -3.0679   -4.9418 C   0  0  0  0  0  0  0  0  0  0  0  0
   -5.8750   -3.8982   -5.9265 C   0  0  0  0  0  0  0  0  0  0  0  0
   -3.1719   -3.8195   -1.6735 C   0  0  0  0  0  0  0  0  0  0  0  0
   -2.3617   -2.6355   -0.6878 S   0  0  0  0  0  0  0  0  0  0  0  0
   -3.1737   -5.1613   -1.2009 C   0  0  0  0  0  0  0  0  0  0  0  0
   -2.6683   -5.5490    0.0189 C   0  0  0  0  0  0  0  0  0  0  0  0
   -2.7493   -6.9281    0.2870 C   0  0  0  0  0  0  0  0  0  0  0  0
   -2.2844   -7.5301    1.5351 C   0  0  0  0  0  0  0  0  0  0  0  0
   -2.3038   -8.7293    1.7377 O   0  0  0  0  0  0  0  0  0  0  0  0
   -1.7684   -6.5738    2.5940 C   0  0  0  0  0  0  0  0  0  0  0  0
   -1.3659   -7.3105    3.8644 C   0  0  0  0  0  0  0  0  0  0  0  0
   -3.3320   -7.6222   -0.7799 C   0  0  0  0  0  0  0  0  0  0  0  0
   -3.7837   -6.5417   -2.0679 S   0  0  0  0  0  0  0  0  0  0  0  0
   -3.6153   -9.0039   -0.9817 C   0  0  0  0  0  0  0  0  0  0  0  0
   -4.2322   -9.4956   -2.1132 C   0  0  0  0  0  0  0  0  0  0  0  0
   -4.3979  -10.8936   -2.1101 C   0  0  0  0  0  0  0  0  0  0  0  0
   -5.0085  -11.7200   -3.1653 C   0  0  0  0  0  0  0  0  0  0  0  0
   -5.2496  -12.8955   -2.9930 O   0  0  0  0  0  0  0  0  0  0  0  0
   -5.2836  -11.0326   -4.4866 C   0  0  0  0  0  0  0  0  0  0  0  0
   -3.9721  -10.7534   -5.2226 C   0  0  0  0  0  0  0  0  0  0  0  0
   -3.8975  -11.4454   -0.9505 C   0  0  0  0  0  0  0  0  0  0  0  0
   -3.2274  -10.3069    0.1175 S   0  0  0  0  0  0  0  0  0  0  0  0
    9.1197    1.8368    5.4529 H   0  0  0  0  0  0  0  0  0  0  0  0
    9.7760    4.2933    4.9056 H   0  0  0  0  0  0  0  0  0  0  0  0
    9.2694    7.3662    2.7418 H   0  0  0  0  0  0  0  0  0  0  0  0
   10.0454    6.2179    3.8392 H   0  0  0  0  0  0  0  0  0  0  0  0
    8.9264    5.5226    1.0760 H   0  0  0  0  0  0  0  0  0  0  0  0
   10.6350    5.7390    1.4586 H   0  0  0  0  0  0  0  0  0  0  0  0
    9.7373    4.3893    2.1591 H   0  0  0  0  0  0  0  0  0  0  0  0
    1.2839    5.6423    3.5637 H   0  0  0  0  0  0  0  0  0  0  0  0
    2.5156    6.8367    3.9814 H   0  0  0  0  0  0  0  0  0  0  0  0
    0.1366    7.4219    2.1539 H   0  0  0  0  0  0  0  0  0  0  0  0
    0.1366    7.7405    3.8911 H   0  0  0  0  0  0  0  0  0  0  0  0
    1.2520    8.6092    2.8398 H   0  0  0  0  0  0  0  0  0  0  0  0
    2.5473    8.0751    0.9658 H   0  0  0  0  0  0  0  0  0  0  0  0
    3.8918    7.8633    2.1008 H   0  0  0  0  0  0  0  0  0  0  0  0
    5.0191    6.3449    0.4973 H   0  0  0  0  0  0  0  0  0  0  0  0
    4.6240    7.8649   -0.3056 H   0  0  0  0  0  0  0  0  0  0  0  0
    3.6280    6.4349   -0.5894 H   0  0  0  0  0  0  0  0  0  0  0  0
    5.1652    6.1697    3.2617 H   0  0  0  0  0  0  0  0  0  0  0  0
   -0.5068    4.6735   -0.3982 H   0  0  0  0  0  0  0  0  0  0  0  0
   -2.1582    3.3150   -1.5186 H   0  0  0  0  0  0  0  0  0  0  0  0
   -4.6603    2.9694   -1.2743 H   0  0  0  0  0  0  0  0  0  0  0  0
   -4.0574    3.6267   -2.7997 H   0  0  0  0  0  0  0  0  0  0  0  0
   -6.6821    2.1005   -2.4593 H   0  0  0  0  0  0  0  0  0  0  0  0
   -6.0484    2.6926   -3.9912 H   0  0  0  0  0  0  0  0  0  0  0  0
   -6.5199    3.8402   -2.7292 H   0  0  0  0  0  0  0  0  0  0  0  0
   -3.7947   -1.1853   -3.6527 H   0  0  0  0  0  0  0  0  0  0  0  0
   -4.2486   -2.5590   -5.4628 H   0  0  0  0  0  0  0  0  0  0  0  0
   -5.6890   -2.3007   -4.4811 H   0  0  0  0  0  0  0  0  0  0  0  0
   -6.2902   -3.2618   -6.7035 H   0  0  0  0  0  0  0  0  0  0  0  0
   -6.6888   -4.4041   -5.4130 H   0  0  0  0  0  0  0  0  0  0  0  0
   -5.2468   -4.6556   -6.3885 H   0  0  0  0  0  0  0  0  0  0  0  0
   -2.2459   -4.8327    0.7006 H   0  0  0  0  0  0  0  0  0  0  0  0
   -0.9101   -6.0365    2.1837 H   0  0  0  0  0  0  0  0  0  0  0  0
   -2.5502   -5.8428    2.8126 H   0  0  0  0  0  0  0  0  0  0  0  0
   -0.5909   -8.0405    3.6457 H   0  0  0  0  0  0  0  0  0  0  0  0
   -0.9926   -6.6096    4.6068 H   0  0  0  0  0  0  0  0  0  0  0  0
   -2.2194   -7.8418    4.2776 H   0  0  0  0  0  0  0  0  0  0  0  0
   -4.5610   -8.8450   -2.9036 H   0  0  0  0  0  0  0  0  0  0  0  0
   -5.8229  -10.1003   -4.3154 H   0  0  0  0  0  0  0  0  0  0  0  0
   -5.9066  -11.6957   -5.0892 H   0  0  0  0  0  0  0  0  0  0  0  0
   -4.1761  -10.2767   -6.1786 H   0  0  0  0  0  0  0  0  0  0  0  0
   -3.3283  -10.0997   -4.6392 H   0  0  0  0  0  0  0  0  0  0  0  0
   -3.4409  -11.6845   -5.4072 H   0  0  0  0  0  0  0  0  0  0  0  0
   -3.9029  -12.4902   -0.7072 H   0  0  0  0  0  0  0  0  0  0  0  0
  1  2  2  0  0  0  0
  2  3  1  0  0  0  0
  3  4  1  0  0  0  0
  4  5  2  0  0  0  0
  4  6  1  0  0  0  0
  6  7  1  0  0  0  0
  3  8  2  0  0  0  0
  8  9  1  0  0  0  0
  8 10  1  0  0  0  0
 10 11  1  0  0  0  0
 11 12  1  0  0  0  0
 12 13  1  0  0  0  0
 13 14  2  0  0  0  0
 14 15  1  0  0  0  0
 15 16  1  0  0  0  0
 16 17  1  0  0  0  0
 17 18  1  0  0  0  0
 16 19  1  0  0  0  0
 19 20  1  0  0  0  0
 16 21  1  0  0  0  0
 21 22  1  0  0  0  0
 14 23  1  0  0  0  0
 23 24  2  0  0  0  0
 24 25  1  0  0  0  0
 24 26  1  0  0  0  0
 26 27  2  0  0  0  0
 27 28  1  0  0  0  0
 28 29  1  0  0  0  0
 29 30  2  0  0  0  0
 29 31  1  0  0  0  0
 31 32  1  0  0  0  0
 28 33  2  0  0  0  0
 33 34  1  0  0  0  0
 33 35  1  0  0  0  0
 35 36  2  0  0  0  0
 36 37  1  0  0  0  0
 37 38  1  0  0  0  0
 38 39  2  0  0  0  0
 38 40  1  0  0  0  0
 40 41  1  0  0  0  0
 37 42  2  0  0  0  0
 42 43  1  0  0  0  0
 42 44  1  0  0  0  0
 44 45  2  0  0  0  0
 45 46  1  0  0  0  0
 46 47  1  0  0  0  0
 47 48  2  0  0  0  0
 47 49  1  0  0  0  0
 49 50  1  0  0  0  0
 46 51  2  0  0  0  0
 51 52  1  0  0  0  0
 51 53  1  0  0  0  0
 53 54  2  0  0  0  0
 54 55  1  0  0  0  0
 55 56  1  0  0  0  0
 56 57  2  0  0  0  0
 56 58  1  0  0  0  0
 58 59  1  0  0  0  0
 55 60  2  0  0  0  0
 60 61  1  0  0  0  0
  9  1  1  0  0  0  0
 22 10  2  0  0  0  0
 34 26  1  0  0  0  0
 43 35  1  0  0  0  0
 52 44  1  0  0  0  0
 61 53  1  0  0  0  0
 21 12  2  0  0  0  0
 25 13  1  0  0  0  0
  1 62  1  0  0  0  0
  2 63  1  0  0  0  0
  6 64  1  0  0  0  0
  6 65  1  0  0  0  0
  7 66  1  0  0  0  0
  7 67  1  0  0  0  0
  7 68  1  0  0  0  0
 17 69  1  0  0  0  0
 17 70  1  0  0  0  0
 18 71  1  0  0  0  0
 18 72  1  0  0  0  0
 18 73  1  0  0  0  0
 19 74  1  0  0  0  0
 19 75  1  0  0  0  0
 20 76  1  0  0  0  0
 20 77  1  0  0  0  0
 20 78  1  0  0  0  0
 22 79  1  0  0  0  0
 23 80  1  0  0  0  0
 27 81  1  0  0  0  0
 31 82  1  0  0  0  0
 31 83  1  0  0  0  0
 32 84  1  0  0  0  0
 32 85  1  0  0  0  0
 32 86  1  0  0  0  0
 36 87  1  0  0  0  0
 40 88  1  0  0  0  0
 40 89  1  0  0  0  0
 41 90  1  0  0  0  0
 41 91  1  0  0  0  0
 41 92  1  0  0  0  0
 45 93  1  0  0  0  0
 49 94  1  0  0  0  0
 49 95  1  0  0  0  0
 50 96  1  0  0  0  0
 50 97  1  0  0  0  0
 50 98  1  0  0  0  0
 54 99  1  0  0  0  0
 58100  1  0  0  0  0
 58101  1  0  0  0  0
 59102  1  0  0  0  0
 59103  1  0  0  0  0
 59104  1  0  0  0  0
 60105  1  0  0  0  0
M  END
