105

C          8.51200        2.57320        4.96620
C          8.82640        3.85340        4.66100
C          7.76980        4.56810        4.03130
C          7.93090        5.96560        3.59980
O          7.05030        6.79780        3.66030
C          9.29890        6.31930        3.04950
C          9.67280        5.43350        1.86250
C          6.64110        3.77480        3.86420
S          6.91910        2.16520        4.47090
C          5.39330        4.03160        3.22150
S          4.44400        2.67410        2.64850
C          3.22430        3.74250        2.06040
C          2.03660        3.42480        1.36350
C          1.28610        4.46320        0.82580
O          1.61460        5.76070        0.93100
C          2.57160        6.17090        1.93270
C          1.79390        6.54590        3.21690
C          0.76680        7.65210        3.00940
C          3.30330        7.37650        1.32380
C          4.20180        6.97740        0.15870
C          3.53550        5.06930        2.29740
C          4.75430        5.22420        2.96340
C          0.17690        4.01120        0.09750
C          0.07090        2.63640        0.08350
S          1.35670        1.88360        0.98600
C         -0.91910        1.84660       -0.56640
C         -1.97420        2.27390       -1.33200
C         -2.75800        1.23450       -1.88100
C         -3.96330        1.51220       -2.68450
O         -4.38690        0.77440       -3.54690
C         -4.65300        2.82400       -2.35600
C         -6.06740        2.87050       -2.91930
C         -2.28440       -0.02300       -1.51460
S         -0.89660        0.11130       -0.47390
C         -2.76010       -1.34020       -1.79440
C         -3.47120       -1.82510       -2.85560
C         -3.71770       -3.21670       -2.80930
C         -4.46170       -3.92460       -3.84890
O         -4.59840       -5.13490       -3.85340
C         -5.06310       -3.06790       -4.94180
C         -5.87500       -3.89820       -5.92650
C         -3.17190       -3.81950       -1.67350
S         -2.36170       -2.63550       -0.68780
C         -3.17370       -5.16130       -1.20090
C         -2.66830       -5.54900        0.01890
C         -2.74930       -6.92810        0.28700
C         -2.28440       -7.53010        1.53510
O         -2.30380       -8.72930        1.73770
C         -1.76840       -6.57380        2.59400
C         -1.36590       -7.31050        3.86440
C         -3.33200       -7.62220       -0.77990
S         -3.78370       -6.54170       -2.06790
C         -3.61530       -9.00390       -0.98170
C         -4.23220       -9.49560       -2.11320
C         -4.39790      -10.89360       -2.11010
C         -5.00850      -11.72000       -3.16530
O         -5.24960      -12.89550       -2.99300
C         -5.28360      -11.03260       -4.48660
C         -3.97210      -10.75340       -5.22260
C         -3.89750      -11.44540       -0.95050
S         -3.22740      -10.30690        0.11750
H          9.11970        1.83680        5.45290
H          9.77600        4.29330        4.90560
H          9.26940        7.36620        2.74180
H         10.04540        6.21790        3.83920
H          8.92640        5.52260        1.07600
H         10.63500        5.73900        1.45860
H          9.73730        4.38930        2.15910
H          1.28390        5.64230        3.56370
H          2.51560        6.83670        3.98140
H          0.13660        7.42190        2.15390
H          0.13660        7.74050        3.89110
H          1.25200        8.60920        2.83980
H          2.54730        8.07510        0.96580
H          3.89180        7.86330        2.10080
H          5.01910        6.34490        0.49730
H          4.62400        7.86490       -0.30560
H          3.62800        6.43490       -0.58940
H          5.16520        6.16970        3.26170
H         -0.50680        4.67350       -0.39820
H         -2.15820        3.31500       -1.51860
H         -4.66030        2.96940       -1.27430
H         -4.05740        3.62670       -2.79970
H         -6.68210        2.10050       -2.45930
H         -6.04840        2.69260       -3.99120
H         -6.51990        3.84020       -2.72920
H         -3.79470       -1.18530       -3.65270
H         -4.24860       -2.55900       -5.46280
H         -5.68900       -2.30070       -4.48110
H         -6.29020       -3.26180       -6.70350
H         -6.68880       -4.40410       -5.41300
H         -5.24680       -4.65560       -6.38850
H         -2.24590       -4.83270        0.70060
H         -0.91010       -6.03650        2.18370
H         -2.55020       -5.84280        2.81260
H         -0.59090       -8.04050        3.64570
H         -0.99260       -6.60960        4.60680
H         -2.21940       -7.84180        4.27760
H         -4.56100       -8.84500       -2.90360
H         -5.82290      -10.10030       -4.31540
H         -5.90660      -11.69570       -5.08920
H         -4.17610      -10.27670       -6.17860
H         -3.32830      -10.09970       -4.63920
H         -3.44090      -11.68450       -5.40720
H         -3.90290      -12.49020       -0.70720
