258

C          3.39170       -7.74920       13.17890
S          1.93710       -7.53590       12.28450
C          2.52720       -6.03660       11.65940
C          1.91980       -5.18790       10.69880
C          2.69050       -4.18240       10.13400
O          3.97820       -3.96080       10.46320
C          4.44020       -4.42360       11.75270
C          5.95910       -4.59590       11.59490
C          6.67670       -3.31990       11.17100
C          4.04030       -3.34230       12.78330
C          4.55080       -3.58940       14.19540
C          3.78870       -5.73420       12.12880
C          4.27480       -6.72930       13.00090
C          2.01450       -3.47530        9.13070
C          0.72820       -3.93060        8.93320
S          0.34230       -5.24820       10.00450
C         -0.21900       -3.45860        7.98020
C         -0.06720       -2.42160        7.10390
C         -1.17530       -2.23670        6.24080
C         -1.31900       -1.29560        5.20660
C         -0.20680       -0.42030        4.81770
C          1.05900       -0.96000        4.60040
C          2.12170       -0.17000        4.20740
C          1.95660        1.19600        4.01330
S          3.21670        2.32910        3.52610
C          4.69550        1.30070        3.24420
C          4.65530        0.55210        1.92540
C          0.68200        1.72370        4.23150
F          0.49070        3.04800        4.06040
C         -0.38590        0.94760        4.62180
C         -2.52790       -1.30210        4.52510
C         -3.55190       -2.25120        4.77080
C         -3.39420       -3.20990        5.78450
C         -4.40280       -4.24740        6.03280
C         -4.87390       -5.05300        4.99710
C         -5.78690       -6.05460        5.24710
C         -6.27810       -6.28400        6.53100
S         -7.47190       -7.57410        6.72470
C         -7.01170       -8.36840        8.30910
C         -5.57810       -8.85920        8.30430
C         -5.82370       -5.45060        7.54860
C         -4.88910       -4.46190        7.31750
F         -6.29170       -5.57830        8.80900
C         -2.21740       -3.15720        6.51500
S         -1.77290       -4.24890        7.80090
C         -4.64320       -2.10020        3.87490
C         -4.47150       -1.09430        2.97430
S         -2.95360       -0.24590        3.20610
C         -5.28030       -0.77220        1.83590
C         -5.99480       -1.64590        1.07100
C         -6.46910       -1.08100       -0.14120
C         -7.08550       -1.73840       -1.22160
C         -7.39910       -3.17230       -1.19730
C         -6.44540       -4.12600       -0.84570
C         -6.75680       -5.46830       -0.86560
C         -8.02770       -5.91560       -1.22330
S         -8.31460       -7.65900       -1.15820
C         -9.38510       -7.99580       -2.60460
C         -8.74750       -7.54130       -3.90180
C         -8.97400       -4.95080       -1.55550
F        -10.23790       -5.30080       -1.88010
C         -8.66850       -3.60510       -1.56500
C         -7.29870       -0.98570       -2.36530
C         -7.01400        0.39810       -2.43990
C         -6.48500        1.07770       -1.33060
C         -6.26210        2.52680       -1.39500
C         -7.31580        3.36050       -1.76210
C         -7.16050        4.73110       -1.81670
C         -5.93530        5.31630       -1.52000
S         -5.59860        7.04700       -1.55870
C         -7.24780        7.82670       -1.50900
C         -7.93810        7.62840       -0.17340
C         -4.87850        4.46600       -1.19140
C         -5.02500        3.09900       -1.11100
F         -3.66350        5.00290       -0.95620
C         -6.15730        0.30010       -0.23180
S         -5.25920        0.84170        1.15990
C         -7.07350        0.88290       -3.76740
C         -7.32160       -0.08610       -4.69800
S         -7.70700       -1.62840       -3.94310
C         -6.96480       -0.00710       -6.07370
S         -6.06440        1.40750       -6.58270
C         -5.49020        0.55860       -7.97210
C         -4.29350        0.85950       -8.65970
C         -3.65480       -0.18300       -9.32030
O         -4.25680       -1.33640       -9.63720
C         -5.63650       -1.57730       -9.25340
C         -6.53860       -1.32880      -10.48140
C         -6.57370        0.11970      -10.95400
C         -5.68620       -3.05940       -8.82730
C         -5.12620       -4.02170       -9.86860
C         -6.05530       -0.69910       -8.09960
C         -6.88960       -1.00990       -7.01590
C         -2.27410        0.03860       -9.47400
C         -1.85810        1.22830       -8.92030
S         -3.20430        2.15320       -8.29560
C         -0.54810        1.62650       -8.53030
C         -0.24630        2.70660       -7.75060
C          1.02820        2.63550       -7.14360
C          1.55280        3.50330       -6.17490
C          0.82500        4.68230       -5.68760
C         -0.45670        4.56640       -5.15920
C         -1.11830        5.66330       -4.64170
C         -0.52670        6.92180       -4.65340
S         -1.24260        8.40110       -4.02890
C         -2.93510        7.92040       -3.55050
C         -3.85010        7.75090       -4.74850
C          0.76020        7.02110       -5.18830
F          1.36440        8.22560       -5.21660
C          1.43880        5.93270       -5.68650
C          2.75760        3.13330       -5.60190
C          3.46870        1.96560       -5.97030
C          2.97620        1.13120       -6.99420
C          3.72780       -0.06300       -7.39770
C          3.12150       -1.31290       -7.50970
C          3.86180       -2.42540       -7.84840
C          5.22970       -2.34040       -8.09790
S          6.07280       -3.82780       -8.55340
C          7.64830       -3.73930       -7.62140
C          7.42010       -3.59140       -6.13120
C          5.81620       -1.08100       -8.01690
C          5.09180        0.03770       -7.66110
F          7.13140       -0.91230       -8.28240
C          1.74310        1.47160       -7.53040
S          0.81420        0.52570       -8.67330
C          4.54950        1.71600       -5.08650
C          4.65880        2.63670       -4.08330
S          3.47660        3.91940       -4.22460
C          5.50320        2.57940       -2.93140
C          6.48670        1.67630       -2.65320
C          7.01760        1.80420       -1.34400
C          8.02210        1.03070       -0.74180
C          8.63570       -0.10040       -1.44860
C          7.84360       -1.09970       -2.01240
C          8.41780       -2.14690       -2.70030
C          9.79940       -2.24120       -2.85040
S         10.43420       -3.63110       -3.74600
C         11.75730       -2.90680       -4.78530
C         11.23950       -1.79670       -5.67740
C         10.57980       -1.26240       -2.24330
F         11.92730       -1.31630       -2.30830
C         10.01750       -0.20150       -1.56220
C          8.37670        1.37190        0.55460
C          7.76630        2.42720        1.27480
C          6.76460        3.20560        0.67320
C          6.09830        4.29370        1.39910
C          4.70990        4.38970        1.42620
C          4.07050        5.37170        2.15570
C          4.79870        6.30480        2.88420
S          4.11130        7.59100        3.86630
C          2.35250        7.12990        4.03860
C          2.15740        5.91310        4.92150
C          6.19160        6.22610        2.81180
C          6.84090        5.24700        2.09520
F          6.93710        7.13370        3.47650
C          6.41300        2.86600       -0.62670
S          5.20600        3.66960       -1.59360
C          8.25970        2.49630        2.61330
C          9.19300        1.56140        2.88090
S          9.54450        0.52570        1.53930
H          3.50540       -8.62210       13.78960
H          6.11720       -5.36410       10.83450
H          6.37530       -4.95940       12.53320
H          7.71480       -3.54420       10.93710
H          6.66000       -2.57660       11.96350
H          6.20360       -2.90170       10.28720
H          2.94720       -3.29890       12.79750
H          4.40070       -2.38010       12.41630
H          5.63650       -3.56120       14.23190
H          4.21310       -4.55490       14.56460
H          4.16950       -2.81830       14.86060
H          5.23590       -6.70100       13.48050
H          2.46160       -2.67430        8.57360
H          0.80430       -1.79430        7.08400
H          1.20990       -2.02280        4.71580
H          3.08230       -0.63380        4.05320
H          5.51070        2.02410        3.24660
H          4.81890        0.63530        4.09770
H          4.57130        1.25160        1.09760
H          5.57450       -0.01750        1.79880
H          3.81060       -0.13200        1.88290
H         -1.34250        1.41710        4.78730
H         -4.49070       -4.91470        3.99750
H         -6.13690       -6.68790        4.44660
H         -7.71240       -9.20050        8.38060
H         -7.20260       -7.67340        9.12370
H         -4.88080       -8.02620        8.23480
H         -5.40530       -9.52600        7.46200
H         -5.37410       -9.39960        9.22640
H         -4.57220       -3.84570        8.14430
H         -5.52920       -2.70730        3.91330
H         -6.13240       -2.67680        1.34050
H         -5.44350       -3.81300       -0.59460
H         -6.01260       -6.20540       -0.60660
H         -9.49820       -9.07980       -2.58050
H        -10.35680       -7.53460       -2.44300
H         -7.76590       -7.99450       -4.02440
H         -8.63330       -6.45890       -3.92110
H         -9.37610       -7.83470       -4.74020
H         -9.43970       -2.89990       -1.83390
H         -8.27790        2.92740       -1.99170
H         -8.00300        5.34060       -2.10080
H         -7.03210        8.88120       -1.68190
H         -7.83900        7.45370       -2.34470
H         -8.89680        8.14340       -0.17300
H         -7.32540        8.03280        0.62900
H         -8.11030        6.57250        0.02580
H         -4.17230        2.49320       -0.84900
H         -6.80900        1.89070       -4.03550
H         -6.16920       -1.95220      -11.29580
H         -7.54860       -1.65400      -10.22460
H         -6.96430        0.77870      -10.18160
H         -7.21580        0.20140      -11.82780
H         -5.57880        0.46030      -11.23110
H         -6.72100       -3.32250       -8.60650
H         -5.10480       -3.15580       -7.90730
H         -4.13970       -3.69790      -10.18680
H         -5.04400       -5.01630       -9.43700
H         -5.77360       -4.08320      -10.73890
H         -7.38300       -1.95440       -6.87400
H         -1.60060       -0.68100       -9.90200
H         -0.94650        3.50100       -7.56380
H         -0.93270        3.59790       -5.12140
H         -2.09710        5.52280       -4.21390
H         -2.88280        7.02790       -2.92970
H         -3.27090        8.74760       -2.92580
H         -3.91110        8.68080       -5.30920
H         -3.48790        6.97260       -5.41660
H         -4.84780        7.48090       -4.40870
H          2.43230        6.06710       -6.08470
H          2.06980       -1.42020       -7.29670
H          3.39040       -3.39320       -7.91910
H          8.12560       -4.69160       -7.85220
H          8.25360       -2.93130       -8.02720
H          6.98080       -2.62230       -5.89930
H          6.75130       -4.37030       -5.77030
H          8.36810       -3.67820       -5.60390
H          5.59480        0.99190       -7.62210
H          5.17580        0.84520       -5.15230
H          6.83170        0.94320       -3.35860
H          6.77080       -1.05640       -1.89930
H          7.80120       -2.91640       -3.13800
H         12.56490       -2.56800       -4.14030
H         12.10550       -3.75590       -5.37360
H         12.04270       -1.44110       -6.31940
H         10.42450       -2.15300       -6.30380
H         10.87820       -0.95820       -5.08460
H         10.66880        0.54250       -1.13080
H          4.10790        3.67210        0.89170
H          2.99400        5.39300        2.15520
H          1.90430        8.01530        4.49010
H          1.92830        6.99600        3.04490
H          2.65550        5.04040        4.50540
H          1.09690        5.68690        5.00700
H          2.55860        6.10030        5.91480
H          7.91940        5.24580        2.06540
H          7.91430        3.21140        3.33770
H          9.71940        1.40060        3.80150
