
  xtb     03022207563D
 energy: -388.118707788749 gnorm: 0.000599851036 xtb: 6.4.1 (unknown)
212235  0     0  0            999 V2000
    3.4577   -8.8836   10.4946 C   0  0  0  0  0  0  0  0  0  0  0  0
    3.5950   -7.6865    9.8890 C   0  0  0  0  0  0  0  0  0  0  0  0
    2.7049   -7.5182    8.7886 C   0  0  0  0  0  0  0  0  0  0  0  0
    2.6012   -6.4259    7.9115 C   0  0  0  0  0  0  0  0  0  0  0  0
    3.3219   -5.1887    8.1568 C   0  0  0  0  0  0  0  0  0  0  0  0
    4.2499   -4.3955    6.9191 S   0  0  0  0  0  0  0  0  0  0  0  0
    4.6876   -3.0945    7.9710 C   0  0  0  0  0  0  0  0  0  0  0  0
    5.4981   -1.9394    7.4948 C   0  0  0  0  0  0  0  0  0  0  0  0
    4.5904   -0.7847    7.0630 C   0  0  0  0  0  0  0  0  0  0  0  0
    4.1305   -3.2719    9.2026 C   0  0  0  0  0  0  0  0  0  0  0  0
    4.3353   -2.1778   10.5089 Cl  0  0  0  0  0  0  0  0  0  0  0  0
    3.3579   -4.4574    9.3135 C   0  0  0  0  0  0  0  0  0  0  0  0
    2.4891   -4.8576   10.7394 Cl  0  0  0  0  0  0  0  0  0  0  0  0
    1.7551   -6.5758    6.8198 C   0  0  0  0  0  0  0  0  0  0  0  0
    0.9551   -7.7264    6.6160 C   0  0  0  0  0  0  0  0  0  0  0  0
    0.9999   -8.7859    7.5377 C   0  0  0  0  0  0  0  0  0  0  0  0
    0.1528   -9.9566    7.3839 C   0  0  0  0  0  0  0  0  0  0  0  0
    0.1131  -10.8604    5.8981 S   0  0  0  0  0  0  0  0  0  0  0  0
   -1.0513  -11.9815    6.5158 C   0  0  0  0  0  0  0  0  0  0  0  0
   -1.6106  -13.0585    5.6538 C   0  0  0  0  0  0  0  0  0  0  0  0
   -2.6825  -12.5000    4.7143 C   0  0  0  0  0  0  0  0  0  0  0  0
   -1.3818  -11.6596    7.7979 C   0  0  0  0  0  0  0  0  0  0  0  0
   -0.6974  -10.5179    8.2960 C   0  0  0  0  0  0  0  0  0  0  0  0
   -1.0010   -9.8763    9.8555 Cl  0  0  0  0  0  0  0  0  0  0  0  0
   -2.5148  -12.5347    8.7438 Cl  0  0  0  0  0  0  0  0  0  0  0  0
    1.8969   -8.6636    8.5931 C   0  0  0  0  0  0  0  0  0  0  0  0
    2.2434   -9.8862    9.7821 S   0  0  0  0  0  0  0  0  0  0  0  0
    0.1507   -7.6102    5.4548 C   0  0  0  0  0  0  0  0  0  0  0  0
    0.3333   -6.4408    4.7810 C   0  0  0  0  0  0  0  0  0  0  0  0
    1.4995   -5.3947    5.5668 S   0  0  0  0  0  0  0  0  0  0  0  0
   -0.2831   -6.0315    3.5635 C   0  0  0  0  0  0  0  0  0  0  0  0
   -0.0465   -4.8892    2.8592 C   0  0  0  0  0  0  0  0  0  0  0  0
   -0.8029   -4.7939    1.6670 C   0  0  0  0  0  0  0  0  0  0  0  0
   -0.7497   -3.7870    0.6875 C   0  0  0  0  0  0  0  0  0  0  0  0
    0.2367   -2.7234    0.7708 C   0  0  0  0  0  0  0  0  0  0  0  0
   -0.2008   -1.0462    0.6450 S   0  0  0  0  0  0  0  0  0  0  0  0
    1.4322   -0.5208    0.8586 C   0  0  0  0  0  0  0  0  0  0  0  0
    1.7898    0.9224    0.9228 C   0  0  0  0  0  0  0  0  0  0  0  0
    1.9587    1.3805    2.3733 C   0  0  0  0  0  0  0  0  0  0  0  0
    2.2580   -1.5947    1.0113 C   0  0  0  0  0  0  0  0  0  0  0  0
    3.9522   -1.4638    1.2433 Cl  0  0  0  0  0  0  0  0  0  0  0  0
    1.5877   -2.8444    0.9566 C   0  0  0  0  0  0  0  0  0  0  0  0
    2.4257   -4.3417    1.0355 Cl  0  0  0  0  0  0  0  0  0  0  0  0
   -1.6529   -3.8826   -0.3607 C   0  0  0  0  0  0  0  0  0  0  0  0
   -2.5668   -4.9569   -0.5012 C   0  0  0  0  0  0  0  0  0  0  0  0
   -2.5742   -5.9974    0.4463 C   0  0  0  0  0  0  0  0  0  0  0  0
   -3.4442   -7.1517    0.2935 C   0  0  0  0  0  0  0  0  0  0  0  0
   -3.4303   -8.0861   -1.1751 S   0  0  0  0  0  0  0  0  0  0  0  0
   -4.5943   -9.2136   -0.5651 C   0  0  0  0  0  0  0  0  0  0  0  0
   -5.0974  -10.3315   -1.4102 C   0  0  0  0  0  0  0  0  0  0  0  0
   -6.1121   -9.8273   -2.4388 C   0  0  0  0  0  0  0  0  0  0  0  0
   -4.9692   -8.8661    0.6975 C   0  0  0  0  0  0  0  0  0  0  0  0
   -4.3177   -7.7020    1.1893 C   0  0  0  0  0  0  0  0  0  0  0  0
   -4.6844   -7.0299    2.7225 Cl  0  0  0  0  0  0  0  0  0  0  0  0
   -6.1129   -9.7396    1.6330 Cl  0  0  0  0  0  0  0  0  0  0  0  0
   -1.6908   -5.8872    1.5130 C   0  0  0  0  0  0  0  0  0  0  0  0
   -1.4853   -7.0475    2.7947 S   0  0  0  0  0  0  0  0  0  0  0  0
   -3.3895   -4.8063   -1.6438 C   0  0  0  0  0  0  0  0  0  0  0  0
   -3.1097   -3.6857   -2.3739 C   0  0  0  0  0  0  0  0  0  0  0  0
   -1.8013   -2.7520   -1.6715 S   0  0  0  0  0  0  0  0  0  0  0  0
   -3.7503   -3.1915   -3.5449 C   0  0  0  0  0  0  0  0  0  0  0  0
   -3.0143   -1.8781   -4.4237 S   0  0  0  0  0  0  0  0  0  0  0  0
   -4.3505   -1.8346   -5.5073 C   0  0  0  0  0  0  0  0  0  0  0  0
   -4.6472   -0.8077   -6.4274 C   0  0  0  0  0  0  0  0  0  0  0  0
   -5.9707   -0.6323   -6.8120 C   0  0  0  0  0  0  0  0  0  0  0  0
   -6.9326   -1.5250   -6.5070 O   0  0  0  0  0  0  0  0  0  0  0  0
   -6.5212   -2.8657   -6.1170 C   0  0  0  0  0  0  0  0  0  0  0  0
   -6.1785   -3.6188   -7.4267 C   0  0  0  0  0  0  0  0  0  0  0  0
   -5.2447   -4.8132   -7.2706 C   0  0  0  0  0  0  0  0  0  0  0  0
   -7.7756   -3.3974   -5.3998 C   0  0  0  0  0  0  0  0  0  0  0  0
   -7.9400   -4.9085   -5.3081 C   0  0  0  0  0  0  0  0  0  0  0  0
   -5.3079   -2.7954   -5.2195 C   0  0  0  0  0  0  0  0  0  0  0  0
   -4.9576   -3.5618   -4.1035 C   0  0  0  0  0  0  0  0  0  0  0  0
   -6.1980    0.6089   -7.4298 C   0  0  0  0  0  0  0  0  0  0  0  0
   -5.0519    1.3706   -7.5240 C   0  0  0  0  0  0  0  0  0  0  0  0
   -3.6625    0.5294   -6.8824 S   0  0  0  0  0  0  0  0  0  0  0  0
   -4.8646    2.7454   -7.8431 C   0  0  0  0  0  0  0  0  0  0  0  0
   -3.2203    3.3328   -7.9212 S   0  0  0  0  0  0  0  0  0  0  0  0
   -3.7792    4.9581   -7.7914 C   0  0  0  0  0  0  0  0  0  0  0  0
   -3.0169    6.0128   -7.2264 C   0  0  0  0  0  0  0  0  0  0  0  0
   -3.7088    6.9397   -6.4615 C   0  0  0  0  0  0  0  0  0  0  0  0
   -5.0397    7.1051   -6.5436 O   0  0  0  0  0  0  0  0  0  0  0  0
   -5.7418    6.4340   -7.6268 C   0  0  0  0  0  0  0  0  0  0  0  0
   -5.5180    7.2455   -8.9209 C   0  0  0  0  0  0  0  0  0  0  0  0
   -5.9245    8.7092   -8.7945 C   0  0  0  0  0  0  0  0  0  0  0  0
   -7.2051    6.4131   -7.1628 C   0  0  0  0  0  0  0  0  0  0  0  0
   -8.2249    6.1118   -8.2551 C   0  0  0  0  0  0  0  0  0  0  0  0
   -5.1615    5.0499   -7.8029 C   0  0  0  0  0  0  0  0  0  0  0  0
   -5.7707    3.7857   -7.8315 C   0  0  0  0  0  0  0  0  0  0  0  0
   -2.9004    7.5320   -5.4647 C   0  0  0  0  0  0  0  0  0  0  0  0
   -1.6164    7.0658   -5.4822 C   0  0  0  0  0  0  0  0  0  0  0  0
   -1.3474    5.9331   -6.7843 S   0  0  0  0  0  0  0  0  0  0  0  0
   -0.6113    7.0587   -4.4360 C   0  0  0  0  0  0  0  0  0  0  0  0
   -0.6501    6.1308   -3.4464 C   0  0  0  0  0  0  0  0  0  0  0  0
    0.5292    6.0838   -2.6620 C   0  0  0  0  0  0  0  0  0  0  0  0
    0.8564    5.1464   -1.6704 C   0  0  0  0  0  0  0  0  0  0  0  0
   -0.0527    4.0516   -1.3579 C   0  0  0  0  0  0  0  0  0  0  0  0
   -0.6939    3.8056    0.2387 S   0  0  0  0  0  0  0  0  0  0  0  0
   -1.6307    2.4370   -0.2650 C   0  0  0  0  0  0  0  0  0  0  0  0
   -2.5469    1.7150    0.6624 C   0  0  0  0  0  0  0  0  0  0  0  0
   -2.1050    1.8005    2.1164 C   0  0  0  0  0  0  0  0  0  0  0  0
   -1.4336    2.1917   -1.5917 C   0  0  0  0  0  0  0  0  0  0  0  0
   -2.1813    0.9033   -2.4459 Cl  0  0  0  0  0  0  0  0  0  0  0  0
   -0.5453    3.1087   -2.2161 C   0  0  0  0  0  0  0  0  0  0  0  0
   -0.1152    2.9955   -3.8749 Cl  0  0  0  0  0  0  0  0  0  0  0  0
    2.0979    5.2804   -1.0732 C   0  0  0  0  0  0  0  0  0  0  0  0
    3.0250    6.2915   -1.4302 C   0  0  0  0  0  0  0  0  0  0  0  0
    2.7147    7.1908   -2.4659 C   0  0  0  0  0  0  0  0  0  0  0  0
    3.6865    8.1601   -2.9430 C   0  0  0  0  0  0  0  0  0  0  0  0
    3.2896    9.8455   -3.0956 S   0  0  0  0  0  0  0  0  0  0  0  0
    4.8544   10.2376   -3.7206 C   0  0  0  0  0  0  0  0  0  0  0  0
    5.2295   11.6413   -4.0450 C   0  0  0  0  0  0  0  0  0  0  0  0
    5.7985   12.3550   -2.8164 C   0  0  0  0  0  0  0  0  0  0  0  0
    5.6295    9.1188   -3.7945 C   0  0  0  0  0  0  0  0  0  0  0  0
    4.9702    7.9382   -3.3599 C   0  0  0  0  0  0  0  0  0  0  0  0
    5.7038    6.3887   -3.4442 Cl  0  0  0  0  0  0  0  0  0  0  0  0
    7.2452    9.1121   -4.3718 Cl  0  0  0  0  0  0  0  0  0  0  0  0
    1.4624    7.0678   -3.0576 C   0  0  0  0  0  0  0  0  0  0  0  0
    0.8721    7.9851   -4.4211 S   0  0  0  0  0  0  0  0  0  0  0  0
    4.2189    6.1990   -0.6713 C   0  0  0  0  0  0  0  0  0  0  0  0
    4.2459    5.1327    0.1794 C   0  0  0  0  0  0  0  0  0  0  0  0
    2.7527    4.2104    0.1294 S   0  0  0  0  0  0  0  0  0  0  0  0
    5.3066    4.6897    1.0154 C   0  0  0  0  0  0  0  0  0  0  0  0
    6.7686    5.6235    1.1995 S   0  0  0  0  0  0  0  0  0  0  0  0
    7.4288    4.4150    2.2411 C   0  0  0  0  0  0  0  0  0  0  0  0
    8.7242    4.3658    2.8140 C   0  0  0  0  0  0  0  0  0  0  0  0
    9.1451    3.1752    3.3802 C   0  0  0  0  0  0  0  0  0  0  0  0
    8.3854    2.0658    3.4391 O   0  0  0  0  0  0  0  0  0  0  0  0
    6.9504    2.2148    3.3516 C   0  0  0  0  0  0  0  0  0  0  0  0
    6.4353    0.8757    2.8009 C   0  0  0  0  0  0  0  0  0  0  0  0
    6.8211   -0.3285    3.6508 C   0  0  0  0  0  0  0  0  0  0  0  0
    6.4519    2.5348    4.7803 C   0  0  0  0  0  0  0  0  0  0  0  0
    4.9388    2.6129    4.9242 C   0  0  0  0  0  0  0  0  0  0  0  0
    6.5684    3.3476    2.4267 C   0  0  0  0  0  0  0  0  0  0  0  0
    5.3679    3.5132    1.7292 C   0  0  0  0  0  0  0  0  0  0  0  0
   10.4830    3.2322    3.8300 C   0  0  0  0  0  0  0  0  0  0  0  0
   11.0426    4.4525    3.6127 C   0  0  0  0  0  0  0  0  0  0  0  0
    9.9713    5.5636    2.8548 S   0  0  0  0  0  0  0  0  0  0  0  0
    4.0030   -9.2611   11.3374 H   0  0  0  0  0  0  0  0  0  0  0  0
    4.3161   -6.9481   10.1868 H   0  0  0  0  0  0  0  0  0  0  0  0
    6.1202   -2.2531    6.6554 H   0  0  0  0  0  0  0  0  0  0  0  0
    6.1461   -1.6053    8.3079 H   0  0  0  0  0  0  0  0  0  0  0  0
    3.9478   -0.4836    7.8862 H   0  0  0  0  0  0  0  0  0  0  0  0
    5.1895    0.0711    6.7642 H   0  0  0  0  0  0  0  0  0  0  0  0
    3.9645   -1.0885    6.2271 H   0  0  0  0  0  0  0  0  0  0  0  0
   -2.0460  -13.8277    6.2938 H   0  0  0  0  0  0  0  0  0  0  0  0
   -0.8091  -13.5061    5.0631 H   0  0  0  0  0  0  0  0  0  0  0  0
   -2.2587  -11.7313    4.0721 H   0  0  0  0  0  0  0  0  0  0  0  0
   -3.0834  -13.2942    4.0904 H   0  0  0  0  0  0  0  0  0  0  0  0
   -3.4963  -12.0633    5.2877 H   0  0  0  0  0  0  0  0  0  0  0  0
   -0.5374   -8.3651    5.1208 H   0  0  0  0  0  0  0  0  0  0  0  0
    0.6429   -4.1363    3.1956 H   0  0  0  0  0  0  0  0  0  0  0  0
    1.0107    1.5112    0.4397 H   0  0  0  0  0  0  0  0  0  0  0  0
    2.7253    1.0821    0.3824 H   0  0  0  0  0  0  0  0  0  0  0  0
    2.7716    0.8364    2.8473 H   0  0  0  0  0  0  0  0  0  0  0  0
    2.1734    2.4450    2.4027 H   0  0  0  0  0  0  0  0  0  0  0  0
    1.0501    1.1973    2.9412 H   0  0  0  0  0  0  0  0  0  0  0  0
   -4.2595  -10.8004   -1.9299 H   0  0  0  0  0  0  0  0  0  0  0  0
   -5.5668  -11.0734   -0.7623 H   0  0  0  0  0  0  0  0  0  0  0  0
   -6.4757  -10.6547   -3.0420 H   0  0  0  0  0  0  0  0  0  0  0  0
   -5.6493   -9.0936   -3.0948 H   0  0  0  0  0  0  0  0  0  0  0  0
   -6.9581   -9.3633   -1.9378 H   0  0  0  0  0  0  0  0  0  0  0  0
   -4.1587   -5.5046   -1.9162 H   0  0  0  0  0  0  0  0  0  0  0  0
   -7.1117   -3.9243   -7.9024 H   0  0  0  0  0  0  0  0  0  0  0  0
   -5.6965   -2.8967   -8.0915 H   0  0  0  0  0  0  0  0  0  0  0  0
   -5.6555   -5.5623   -6.6019 H   0  0  0  0  0  0  0  0  0  0  0  0
   -4.2792   -4.5000   -6.8812 H   0  0  0  0  0  0  0  0  0  0  0  0
   -5.0850   -5.2728   -8.2433 H   0  0  0  0  0  0  0  0  0  0  0  0
   -7.7895   -2.9659   -4.3965 H   0  0  0  0  0  0  0  0  0  0  0  0
   -8.6290   -2.9852   -5.9429 H   0  0  0  0  0  0  0  0  0  0  0  0
   -8.8525   -5.1294   -4.7584 H   0  0  0  0  0  0  0  0  0  0  0  0
   -7.1110   -5.3754   -4.7847 H   0  0  0  0  0  0  0  0  0  0  0  0
   -8.0259   -5.3572   -6.2935 H   0  0  0  0  0  0  0  0  0  0  0  0
   -5.5609   -4.3447   -3.6848 H   0  0  0  0  0  0  0  0  0  0  0  0
   -7.1649    0.9365   -7.7619 H   0  0  0  0  0  0  0  0  0  0  0  0
   -6.0630    6.7622   -9.7320 H   0  0  0  0  0  0  0  0  0  0  0  0
   -4.4537    7.1950   -9.1635 H   0  0  0  0  0  0  0  0  0  0  0  0
   -5.6240    9.2530   -9.6869 H   0  0  0  0  0  0  0  0  0  0  0  0
   -5.4363    9.1606   -7.9343 H   0  0  0  0  0  0  0  0  0  0  0  0
   -6.9989    8.8158   -8.6745 H   0  0  0  0  0  0  0  0  0  0  0  0
   -7.2860    5.6721   -6.3649 H   0  0  0  0  0  0  0  0  0  0  0  0
   -7.4180    7.3876   -6.7213 H   0  0  0  0  0  0  0  0  0  0  0  0
   -8.3152    6.9403   -8.9516 H   0  0  0  0  0  0  0  0  0  0  0  0
   -7.9536    5.2236   -8.8190 H   0  0  0  0  0  0  0  0  0  0  0  0
   -9.2000    5.9467   -7.8023 H   0  0  0  0  0  0  0  0  0  0  0  0
   -6.8289    3.6146   -7.7689 H   0  0  0  0  0  0  0  0  0  0  0  0
   -3.2765    8.2230   -4.7333 H   0  0  0  0  0  0  0  0  0  0  0  0
   -1.4868    5.4720   -3.3024 H   0  0  0  0  0  0  0  0  0  0  0  0
   -3.5503    2.1411    0.5628 H   0  0  0  0  0  0  0  0  0  0  0  0
   -2.5993    0.6716    0.3447 H   0  0  0  0  0  0  0  0  0  0  0  0
   -2.8176    1.2852    2.7544 H   0  0  0  0  0  0  0  0  0  0  0  0
   -2.0386    2.8386    2.4341 H   0  0  0  0  0  0  0  0  0  0  0  0
   -1.1315    1.3355    2.2392 H   0  0  0  0  0  0  0  0  0  0  0  0
    5.9792   11.6288   -4.8386 H   0  0  0  0  0  0  0  0  0  0  0  0
    4.3487   12.1769   -4.4026 H   0  0  0  0  0  0  0  0  0  0  0  0
    6.6860   11.8391   -2.4591 H   0  0  0  0  0  0  0  0  0  0  0  0
    6.0673   13.3769   -3.0695 H   0  0  0  0  0  0  0  0  0  0  0  0
    5.0616   12.3746   -2.0170 H   0  0  0  0  0  0  0  0  0  0  0  0
    5.0379    6.8898   -0.7559 H   0  0  0  0  0  0  0  0  0  0  0  0
    6.8574    0.7556    1.8007 H   0  0  0  0  0  0  0  0  0  0  0  0
    5.3522    0.9246    2.7026 H   0  0  0  0  0  0  0  0  0  0  0  0
    6.3182   -0.3076    4.6133 H   0  0  0  0  0  0  0  0  0  0  0  0
    6.5318   -1.2423    3.1375 H   0  0  0  0  0  0  0  0  0  0  0  0
    7.8949   -0.3448    3.8138 H   0  0  0  0  0  0  0  0  0  0  0  0
    6.8578    1.7765    5.4518 H   0  0  0  0  0  0  0  0  0  0  0  0
    6.8918    3.4943    5.0681 H   0  0  0  0  0  0  0  0  0  0  0  0
    4.6831    2.8999    5.9415 H   0  0  0  0  0  0  0  0  0  0  0  0
    4.5247    3.3561    4.2474 H   0  0  0  0  0  0  0  0  0  0  0  0
    4.4725    1.6542    4.7157 H   0  0  0  0  0  0  0  0  0  0  0  0
    4.5602    2.8046    1.7205 H   0  0  0  0  0  0  0  0  0  0  0  0
   10.9883    2.4020    4.2866 H   0  0  0  0  0  0  0  0  0  0  0  0
   12.0331    4.7751    3.8630 H   0  0  0  0  0  0  0  0  0  0  0  0
  1  2  2  0  0  0  0
  2  3  1  0  0  0  0
  3  4  2  0  0  0  0
  4  5  1  0  0  0  0
  5  6  1  0  0  0  0
  6  7  1  0  0  0  0
  7  8  1  0  0  0  0
  8  9  1  0  0  0  0
  7 10  2  0  0  0  0
 10 11  1  0  0  0  0
 10 12  1  0  0  0  0
 12 13  1  0  0  0  0
  4 14  1  0  0  0  0
 14 15  2  0  0  0  0
 15 16  1  0  0  0  0
 16 17  1  0  0  0  0
 17 18  1  0  0  0  0
 18 19  1  0  0  0  0
 19 20  1  0  0  0  0
 20 21  1  0  0  0  0
 19 22  2  0  0  0  0
 22 23  1  0  0  0  0
 23 24  1  0  0  0  0
 22 25  1  0  0  0  0
 16 26  2  0  0  0  0
 26 27  1  0  0  0  0
 15 28  1  0  0  0  0
 28 29  2  0  0  0  0
 29 30  1  0  0  0  0
 29 31  1  0  0  0  0
 31 32  2  0  0  0  0
 32 33  1  0  0  0  0
 33 34  2  0  0  0  0
 34 35  1  0  0  0  0
 35 36  1  0  0  0  0
 36 37  1  0  0  0  0
 37 38  1  0  0  0  0
 38 39  1  0  0  0  0
 37 40  2  0  0  0  0
 40 41  1  0  0  0  0
 40 42  1  0  0  0  0
 42 43  1  0  0  0  0
 34 44  1  0  0  0  0
 44 45  2  0  0  0  0
 45 46  1  0  0  0  0
 46 47  1  0  0  0  0
 47 48  1  0  0  0  0
 48 49  1  0  0  0  0
 49 50  1  0  0  0  0
 50 51  1  0  0  0  0
 49 52  2  0  0  0  0
 52 53  1  0  0  0  0
 53 54  1  0  0  0  0
 52 55  1  0  0  0  0
 46 56  2  0  0  0  0
 56 57  1  0  0  0  0
 45 58  1  0  0  0  0
 58 59  2  0  0  0  0
 59 60  1  0  0  0  0
 59 61  1  0  0  0  0
 61 62  1  0  0  0  0
 62 63  1  0  0  0  0
 63 64  1  0  0  0  0
 64 65  2  0  0  0  0
 65 66  1  0  0  0  0
 66 67  1  0  0  0  0
 67 68  1  0  0  0  0
 68 69  1  0  0  0  0
 67 70  1  0  0  0  0
 70 71  1  0  0  0  0
 67 72  1  0  0  0  0
 72 73  1  0  0  0  0
 65 74  1  0  0  0  0
 74 75  2  0  0  0  0
 75 76  1  0  0  0  0
 75 77  1  0  0  0  0
 77 78  1  0  0  0  0
 78 79  1  0  0  0  0
 79 80  1  0  0  0  0
 80 81  2  0  0  0  0
 81 82  1  0  0  0  0
 82 83  1  0  0  0  0
 83 84  1  0  0  0  0
 84 85  1  0  0  0  0
 83 86  1  0  0  0  0
 86 87  1  0  0  0  0
 83 88  1  0  0  0  0
 88 89  1  0  0  0  0
 81 90  1  0  0  0  0
 90 91  2  0  0  0  0
 91 92  1  0  0  0  0
 91 93  1  0  0  0  0
 93 94  2  0  0  0  0
 94 95  1  0  0  0  0
 95 96  2  0  0  0  0
 96 97  1  0  0  0  0
 97 98  1  0  0  0  0
 98 99  1  0  0  0  0
 99100  1  0  0  0  0
100101  1  0  0  0  0
 99102  2  0  0  0  0
102103  1  0  0  0  0
102104  1  0  0  0  0
104105  1  0  0  0  0
 96106  1  0  0  0  0
106107  2  0  0  0  0
107108  1  0  0  0  0
108109  1  0  0  0  0
109110  1  0  0  0  0
110111  1  0  0  0  0
111112  1  0  0  0  0
112113  1  0  0  0  0
111114  2  0  0  0  0
114115  1  0  0  0  0
115116  1  0  0  0  0
114117  1  0  0  0  0
108118  2  0  0  0  0
118119  1  0  0  0  0
107120  1  0  0  0  0
120121  2  0  0  0  0
121122  1  0  0  0  0
121123  1  0  0  0  0
123124  1  0  0  0  0
124125  1  0  0  0  0
125126  1  0  0  0  0
126127  2  0  0  0  0
127128  1  0  0  0  0
128129  1  0  0  0  0
129130  1  0  0  0  0
130131  1  0  0  0  0
129132  1  0  0  0  0
132133  1  0  0  0  0
129134  1  0  0  0  0
134135  1  0  0  0  0
127136  1  0  0  0  0
136137  2  0  0  0  0
137138  1  0  0  0  0
 27  1  1  0  0  0  0
 57 31  1  0  0  0  0
 73 61  2  0  0  0  0
 89 77  2  0  0  0  0
119 93  1  0  0  0  0
135123  2  0  0  0  0
 26  3  1  0  0  0  0
 56 33  1  0  0  0  0
 72 63  2  0  0  0  0
 88 79  2  0  0  0  0
118 95  1  0  0  0  0
134125  2  0  0  0  0
 12  5  2  0  0  0  0
 30 14  1  0  0  0  0
 42 35  2  0  0  0  0
 60 44  1  0  0  0  0
 76 64  1  0  0  0  0
 92 80  1  0  0  0  0
104 97  2  0  0  0  0
122106  1  0  0  0  0
138126  1  0  0  0  0
 23 17  2  0  0  0  0
 53 47  2  0  0  0  0
115109  2  0  0  0  0
  1139  1  0  0  0  0
  2140  1  0  0  0  0
  8141  1  0  0  0  0
  8142  1  0  0  0  0
  9143  1  0  0  0  0
  9144  1  0  0  0  0
  9145  1  0  0  0  0
 20146  1  0  0  0  0
 20147  1  0  0  0  0
 21148  1  0  0  0  0
 21149  1  0  0  0  0
 21150  1  0  0  0  0
 28151  1  0  0  0  0
 32152  1  0  0  0  0
 38153  1  0  0  0  0
 38154  1  0  0  0  0
 39155  1  0  0  0  0
 39156  1  0  0  0  0
 39157  1  0  0  0  0
 50158  1  0  0  0  0
 50159  1  0  0  0  0
 51160  1  0  0  0  0
 51161  1  0  0  0  0
 51162  1  0  0  0  0
 58163  1  0  0  0  0
 68164  1  0  0  0  0
 68165  1  0  0  0  0
 69166  1  0  0  0  0
 69167  1  0  0  0  0
 69168  1  0  0  0  0
 70169  1  0  0  0  0
 70170  1  0  0  0  0
 71171  1  0  0  0  0
 71172  1  0  0  0  0
 71173  1  0  0  0  0
 73174  1  0  0  0  0
 74175  1  0  0  0  0
 84176  1  0  0  0  0
 84177  1  0  0  0  0
 85178  1  0  0  0  0
 85179  1  0  0  0  0
 85180  1  0  0  0  0
 86181  1  0  0  0  0
 86182  1  0  0  0  0
 87183  1  0  0  0  0
 87184  1  0  0  0  0
 87185  1  0  0  0  0
 89186  1  0  0  0  0
 90187  1  0  0  0  0
 94188  1  0  0  0  0
100189  1  0  0  0  0
100190  1  0  0  0  0
101191  1  0  0  0  0
101192  1  0  0  0  0
101193  1  0  0  0  0
112194  1  0  0  0  0
112195  1  0  0  0  0
113196  1  0  0  0  0
113197  1  0  0  0  0
113198  1  0  0  0  0
120199  1  0  0  0  0
130200  1  0  0  0  0
130201  1  0  0  0  0
131202  1  0  0  0  0
131203  1  0  0  0  0
131204  1  0  0  0  0
132205  1  0  0  0  0
132206  1  0  0  0  0
133207  1  0  0  0  0
133208  1  0  0  0  0
133209  1  0  0  0  0
135210  1  0  0  0  0
136211  1  0  0  0  0
137212  1  0  0  0  0
M  END
