
  xtb     03012207363D
 energy: -222.567164171103 gnorm: 0.000162619850 xtb: 6.4.1 (unknown)
137151  0     0  0            999 V2000
    6.1166    3.2206   12.0428 C   0  0  0  0  0  0  0  0  0  0  0  0
    6.4035    2.3070   11.0546 C   0  0  0  0  0  0  0  0  0  0  0  0
    7.6174    1.8201   10.6988 N   0  0  0  0  0  0  0  0  0  0  0  0
    7.6432    0.9621    9.7150 C   0  0  0  0  0  0  0  0  0  0  0  0
    8.9809    0.4291    9.3179 C   0  0  0  0  0  0  0  0  0  0  0  0
    6.4563    0.5354    9.0251 C   0  0  0  0  0  0  0  0  0  0  0  0
    6.5207   -0.4422    7.8999 C   0  0  0  0  0  0  0  0  0  0  0  0
    5.2731    0.9890    9.3545 N   0  0  0  0  0  0  0  0  0  0  0  0
    5.2250    1.8726   10.3626 C   0  0  0  0  0  0  0  0  0  0  0  0
    4.0600    2.4735   10.8404 C   0  0  0  0  0  0  0  0  0  0  0  0
    4.4342    3.5588   12.1331 S   0  0  0  0  0  0  0  0  0  0  0  0
    2.7703    2.2628   10.3354 C   0  0  0  0  0  0  0  0  0  0  0  0
    1.5835    2.8918   10.7173 C   0  0  0  0  0  0  0  0  0  0  0  0
    1.4780    3.8164   11.6863 N   0  0  0  0  0  0  0  0  0  0  0  0
    0.2869    4.3157   11.9019 C   0  0  0  0  0  0  0  0  0  0  0  0
    0.1668    5.3460   12.9748 C   0  0  0  0  0  0  0  0  0  0  0  0
   -0.8519    3.8958   11.1427 C   0  0  0  0  0  0  0  0  0  0  0  0
   -2.2035    4.4761   11.4030 C   0  0  0  0  0  0  0  0  0  0  0  0
   -0.7648    2.9960   10.1939 N   0  0  0  0  0  0  0  0  0  0  0  0
    0.4514    2.4710    9.9543 C   0  0  0  0  0  0  0  0  0  0  0  0
    0.7789    1.5077    8.9897 C   0  0  0  0  0  0  0  0  0  0  0  0
    2.4812    1.1438    9.0456 S   0  0  0  0  0  0  0  0  0  0  0  0
   -0.0820    0.9255    8.0405 C   0  0  0  0  0  0  0  0  0  0  0  0
    0.4877   -0.2789    6.9082 S   0  0  0  0  0  0  0  0  0  0  0  0
   -1.0693   -0.3353    6.1584 C   0  0  0  0  0  0  0  0  0  0  0  0
   -1.4474   -1.0132    4.9831 C   0  0  0  0  0  0  0  0  0  0  0  0
   -2.6317   -0.6368    4.3555 C   0  0  0  0  0  0  0  0  0  0  0  0
   -3.4862    0.2681    4.8636 O   0  0  0  0  0  0  0  0  0  0  0  0
   -3.4034    0.5785    6.2666 C   0  0  0  0  0  0  0  0  0  0  0  0
   -3.9776    2.0007    6.4497 C   0  0  0  0  0  0  0  0  0  0  0  0
   -5.0079    2.4144    5.4037 C   0  0  0  0  0  0  0  0  0  0  0  0
   -4.1746   -0.5028    7.0632 C   0  0  0  0  0  0  0  0  0  0  0  0
   -5.6479   -0.6342    6.7016 C   0  0  0  0  0  0  0  0  0  0  0  0
   -1.9744    0.5300    6.7602 C   0  0  0  0  0  0  0  0  0  0  0  0
   -1.4175    1.2279    7.8276 C   0  0  0  0  0  0  0  0  0  0  0  0
   -2.7930   -1.2287    3.0969 C   0  0  0  0  0  0  0  0  0  0  0  0
   -1.7602   -2.0813    2.7695 C   0  0  0  0  0  0  0  0  0  0  0  0
   -0.5652   -2.1650    4.0416 S   0  0  0  0  0  0  0  0  0  0  0  0
   -1.5456   -2.7743    1.5527 C   0  0  0  0  0  0  0  0  0  0  0  0
   -2.4083   -2.3119    0.1046 S   0  0  0  0  0  0  0  0  0  0  0  0
   -1.4857   -3.4400   -0.8270 C   0  0  0  0  0  0  0  0  0  0  0  0
   -1.4349   -3.5750   -2.2302 C   0  0  0  0  0  0  0  0  0  0  0  0
   -0.3927   -4.3122   -2.7827 C   0  0  0  0  0  0  0  0  0  0  0  0
    0.5048   -5.0017   -2.0594 O   0  0  0  0  0  0  0  0  0  0  0  0
    0.2362   -5.2586   -0.6695 C   0  0  0  0  0  0  0  0  0  0  0  0
    1.6027   -5.3646    0.0442 C   0  0  0  0  0  0  0  0  0  0  0  0
    2.7545   -5.8216   -0.8451 C   0  0  0  0  0  0  0  0  0  0  0  0
   -0.6148   -6.5486   -0.5606 C   0  0  0  0  0  0  0  0  0  0  0  0
    0.0312   -7.7921   -1.1562 C   0  0  0  0  0  0  0  0  0  0  0  0
   -0.5905   -4.1558   -0.0478 C   0  0  0  0  0  0  0  0  0  0  0  0
   -0.6261   -3.7700    1.2929 C   0  0  0  0  0  0  0  0  0  0  0  0
   -0.3091   -4.1804   -4.1743 C   0  0  0  0  0  0  0  0  0  0  0  0
   -1.2780   -3.3485   -4.6942 C   0  0  0  0  0  0  0  0  0  0  0  0
   -2.3416   -2.7431   -3.4476 S   0  0  0  0  0  0  0  0  0  0  0  0
   -1.4138   -2.9027   -6.0309 C   0  0  0  0  0  0  0  0  0  0  0  0
   -0.2408   -3.3575   -7.2429 S   0  0  0  0  0  0  0  0  0  0  0  0
   -1.0165   -2.3366   -8.4028 C   0  0  0  0  0  0  0  0  0  0  0  0
   -0.5627   -1.9912   -9.6927 C   0  0  0  0  0  0  0  0  0  0  0  0
   -1.1370   -0.8876  -10.3200 C   0  0  0  0  0  0  0  0  0  0  0  0
   -2.1597   -0.1904   -9.7920 O   0  0  0  0  0  0  0  0  0  0  0  0
   -2.9748   -0.8293   -8.7847 C   0  0  0  0  0  0  0  0  0  0  0  0
   -4.0011   -1.7156   -9.5277 C   0  0  0  0  0  0  0  0  0  0  0  0
   -5.0228   -2.3875   -8.6215 C   0  0  0  0  0  0  0  0  0  0  0  0
   -3.6141    0.3223   -7.9939 C   0  0  0  0  0  0  0  0  0  0  0  0
   -4.4354    1.2713   -8.8585 C   0  0  0  0  0  0  0  0  0  0  0  0
   -2.1353   -1.7021   -7.8821 C   0  0  0  0  0  0  0  0  0  0  0  0
   -2.3503   -2.0257   -6.5419 C   0  0  0  0  0  0  0  0  0  0  0  0
   -0.4859   -0.5331  -11.5054 C   0  0  0  0  0  0  0  0  0  0  0  0
    0.5740   -1.3673  -11.8010 C   0  0  0  0  0  0  0  0  0  0  0  0
    0.7692   -2.6182  -10.5984 S   0  0  0  0  0  0  0  0  0  0  0  0
    1.4463   -1.2662  -12.9098 C   0  0  0  0  0  0  0  0  0  0  0  0
    1.4859   -0.2565  -13.8738 C   0  0  0  0  0  0  0  0  0  0  0  0
    0.6769    0.8185  -13.9423 N   0  0  0  0  0  0  0  0  0  0  0  0
    0.8908    1.6659  -14.9143 C   0  0  0  0  0  0  0  0  0  0  0  0
   -0.0013    2.8610  -14.9828 C   0  0  0  0  0  0  0  0  0  0  0  0
    1.9371    1.4684  -15.8809 C   0  0  0  0  0  0  0  0  0  0  0  0
    2.1581    2.4553  -16.9791 C   0  0  0  0  0  0  0  0  0  0  0  0
    2.7303    0.4346  -15.8421 N   0  0  0  0  0  0  0  0  0  0  0  0
    2.5328   -0.4547  -14.8399 C   0  0  0  0  0  0  0  0  0  0  0  0
    3.2609   -1.5976  -14.6073 C   0  0  0  0  0  0  0  0  0  0  0  0
    2.6929   -2.4282  -13.2257 S   0  0  0  0  0  0  0  0  0  0  0  0
    6.7999    3.7050   12.7094 H   0  0  0  0  0  0  0  0  0  0  0  0
    9.0056   -0.6546    9.4217 H   0  0  0  0  0  0  0  0  0  0  0  0
    9.1940    0.6733    8.2782 H   0  0  0  0  0  0  0  0  0  0  0  0
    9.7430    0.8695    9.9543 H   0  0  0  0  0  0  0  0  0  0  0  0
    6.9550   -1.3832    8.2347 H   0  0  0  0  0  0  0  0  0  0  0  0
    7.1398   -0.0544    7.0920 H   0  0  0  0  0  0  0  0  0  0  0  0
    5.5154   -0.6212    7.5287 H   0  0  0  0  0  0  0  0  0  0  0  0
   -0.5268    5.0150   13.7464 H   0  0  0  0  0  0  0  0  0  0  0  0
   -0.2079    6.2825   12.5639 H   0  0  0  0  0  0  0  0  0  0  0  0
    1.1451    5.5122   13.4167 H   0  0  0  0  0  0  0  0  0  0  0  0
   -2.1911    5.5540   11.2483 H   0  0  0  0  0  0  0  0  0  0  0  0
   -2.9246    4.0255   10.7270 H   0  0  0  0  0  0  0  0  0  0  0  0
   -2.5078    4.2869   12.4313 H   0  0  0  0  0  0  0  0  0  0  0  0
   -3.1473    2.7084    6.3993 H   0  0  0  0  0  0  0  0  0  0  0  0
   -4.4120    2.0660    7.4480 H   0  0  0  0  0  0  0  0  0  0  0  0
   -5.3432    3.4279    5.6134 H   0  0  0  0  0  0  0  0  0  0  0  0
   -4.5661    2.3937    4.4119 H   0  0  0  0  0  0  0  0  0  0  0  0
   -5.8702    1.7568    5.4046 H   0  0  0  0  0  0  0  0  0  0  0  0
   -4.0642   -0.2793    8.1260 H   0  0  0  0  0  0  0  0  0  0  0  0
   -3.6762   -1.4578    6.8719 H   0  0  0  0  0  0  0  0  0  0  0  0
   -5.7626   -0.7379    5.6255 H   0  0  0  0  0  0  0  0  0  0  0  0
   -6.0649   -1.5179    7.1800 H   0  0  0  0  0  0  0  0  0  0  0  0
   -6.2122    0.2311    7.0377 H   0  0  0  0  0  0  0  0  0  0  0  0
   -1.9266    1.9431    8.4458 H   0  0  0  0  0  0  0  0  0  0  0  0
   -3.6254   -1.0339    2.4462 H   0  0  0  0  0  0  0  0  0  0  0  0
    1.4939   -6.0440    0.8907 H   0  0  0  0  0  0  0  0  0  0  0  0
    1.8566   -4.3774    0.4369 H   0  0  0  0  0  0  0  0  0  0  0  0
    2.5718   -6.8028   -1.2690 H   0  0  0  0  0  0  0  0  0  0  0  0
    3.6671   -5.8619   -0.2544 H   0  0  0  0  0  0  0  0  0  0  0  0
    2.9009   -5.1208   -1.6617 H   0  0  0  0  0  0  0  0  0  0  0  0
   -0.8470   -6.7117    0.4937 H   0  0  0  0  0  0  0  0  0  0  0  0
   -1.5573   -6.3547   -1.0814 H   0  0  0  0  0  0  0  0  0  0  0  0
    0.3691   -7.5903   -2.1696 H   0  0  0  0  0  0  0  0  0  0  0  0
   -0.6949   -8.6016   -1.1889 H   0  0  0  0  0  0  0  0  0  0  0  0
    0.8766   -8.1190   -0.5574 H   0  0  0  0  0  0  0  0  0  0  0  0
   -0.0096   -4.1888    2.0677 H   0  0  0  0  0  0  0  0  0  0  0  0
    0.4479   -4.6512   -4.7738 H   0  0  0  0  0  0  0  0  0  0  0  0
   -3.4368   -2.4824  -10.0664 H   0  0  0  0  0  0  0  0  0  0  0  0
   -4.5053   -1.0973  -10.2717 H   0  0  0  0  0  0  0  0  0  0  0  0
   -5.6474   -3.0567   -9.2086 H   0  0  0  0  0  0  0  0  0  0  0  0
   -4.5283   -2.9719   -7.8491 H   0  0  0  0  0  0  0  0  0  0  0  0
   -5.6674   -1.6545   -8.1441 H   0  0  0  0  0  0  0  0  0  0  0  0
   -2.8009    0.8799   -7.5242 H   0  0  0  0  0  0  0  0  0  0  0  0
   -4.2386   -0.0931   -7.2044 H   0  0  0  0  0  0  0  0  0  0  0  0
   -3.8444    1.6118   -9.7037 H   0  0  0  0  0  0  0  0  0  0  0  0
   -5.3346    0.7872   -9.2302 H   0  0  0  0  0  0  0  0  0  0  0  0
   -4.7335    2.1362   -8.2705 H   0  0  0  0  0  0  0  0  0  0  0  0
   -3.1471   -1.6381   -5.9332 H   0  0  0  0  0  0  0  0  0  0  0  0
   -0.7516    0.3002  -12.1271 H   0  0  0  0  0  0  0  0  0  0  0  0
   -0.5340    2.8864  -15.9323 H   0  0  0  0  0  0  0  0  0  0  0  0
    0.5826    3.7766  -14.8997 H   0  0  0  0  0  0  0  0  0  0  0  0
   -0.7196    2.8199  -14.1689 H   0  0  0  0  0  0  0  0  0  0  0  0
    1.2654    2.5457  -17.5962 H   0  0  0  0  0  0  0  0  0  0  0  0
    2.9891    2.1228  -17.5945 H   0  0  0  0  0  0  0  0  0  0  0  0
    2.3847    3.4376  -16.5674 H   0  0  0  0  0  0  0  0  0  0  0  0
    4.0883   -1.9791  -15.1692 H   0  0  0  0  0  0  0  0  0  0  0  0
  1  2  2  0  0  0  0
  2  3  1  0  0  0  0
  3  4  2  0  0  0  0
  4  5  1  0  0  0  0
  4  6  1  0  0  0  0
  6  7  1  0  0  0  0
  6  8  2  0  0  0  0
  8  9  1  0  0  0  0
  9 10  2  0  0  0  0
 10 11  1  0  0  0  0
 10 12  1  0  0  0  0
 12 13  2  0  0  0  0
 13 14  1  0  0  0  0
 14 15  2  0  0  0  0
 15 16  1  0  0  0  0
 15 17  1  0  0  0  0
 17 18  1  0  0  0  0
 17 19  2  0  0  0  0
 19 20  1  0  0  0  0
 20 21  2  0  0  0  0
 21 22  1  0  0  0  0
 21 23  1  0  0  0  0
 23 24  1  0  0  0  0
 24 25  1  0  0  0  0
 25 26  1  0  0  0  0
 26 27  2  0  0  0  0
 27 28  1  0  0  0  0
 28 29  1  0  0  0  0
 29 30  1  0  0  0  0
 30 31  1  0  0  0  0
 29 32  1  0  0  0  0
 32 33  1  0  0  0  0
 29 34  1  0  0  0  0
 34 35  1  0  0  0  0
 27 36  1  0  0  0  0
 36 37  2  0  0  0  0
 37 38  1  0  0  0  0
 37 39  1  0  0  0  0
 39 40  1  0  0  0  0
 40 41  1  0  0  0  0
 41 42  1  0  0  0  0
 42 43  2  0  0  0  0
 43 44  1  0  0  0  0
 44 45  1  0  0  0  0
 45 46  1  0  0  0  0
 46 47  1  0  0  0  0
 45 48  1  0  0  0  0
 48 49  1  0  0  0  0
 45 50  1  0  0  0  0
 50 51  1  0  0  0  0
 43 52  1  0  0  0  0
 52 53  2  0  0  0  0
 53 54  1  0  0  0  0
 53 55  1  0  0  0  0
 55 56  1  0  0  0  0
 56 57  1  0  0  0  0
 57 58  1  0  0  0  0
 58 59  2  0  0  0  0
 59 60  1  0  0  0  0
 60 61  1  0  0  0  0
 61 62  1  0  0  0  0
 62 63  1  0  0  0  0
 61 64  1  0  0  0  0
 64 65  1  0  0  0  0
 61 66  1  0  0  0  0
 66 67  1  0  0  0  0
 59 68  1  0  0  0  0
 68 69  2  0  0  0  0
 69 70  1  0  0  0  0
 69 71  1  0  0  0  0
 71 72  2  0  0  0  0
 72 73  1  0  0  0  0
 73 74  2  0  0  0  0
 74 75  1  0  0  0  0
 74 76  1  0  0  0  0
 76 77  1  0  0  0  0
 76 78  2  0  0  0  0
 78 79  1  0  0  0  0
 79 80  2  0  0  0  0
 80 81  1  0  0  0  0
 11  1  1  0  0  0  0
 22 12  1  0  0  0  0
 35 23  2  0  0  0  0
 51 39  2  0  0  0  0
 67 55  2  0  0  0  0
 81 71  1  0  0  0  0
  9  2  1  0  0  0  0
 20 13  1  0  0  0  0
 34 25  2  0  0  0  0
 50 41  2  0  0  0  0
 66 57  2  0  0  0  0
 79 72  1  0  0  0  0
 38 26  1  0  0  0  0
 54 42  1  0  0  0  0
 70 58  1  0  0  0  0
  1 82  1  0  0  0  0
  5 83  1  0  0  0  0
  5 84  1  0  0  0  0
  5 85  1  0  0  0  0
  7 86  1  0  0  0  0
  7 87  1  0  0  0  0
  7 88  1  0  0  0  0
 16 89  1  0  0  0  0
 16 90  1  0  0  0  0
 16 91  1  0  0  0  0
 18 92  1  0  0  0  0
 18 93  1  0  0  0  0
 18 94  1  0  0  0  0
 30 95  1  0  0  0  0
 30 96  1  0  0  0  0
 31 97  1  0  0  0  0
 31 98  1  0  0  0  0
 31 99  1  0  0  0  0
 32100  1  0  0  0  0
 32101  1  0  0  0  0
 33102  1  0  0  0  0
 33103  1  0  0  0  0
 33104  1  0  0  0  0
 35105  1  0  0  0  0
 36106  1  0  0  0  0
 46107  1  0  0  0  0
 46108  1  0  0  0  0
 47109  1  0  0  0  0
 47110  1  0  0  0  0
 47111  1  0  0  0  0
 48112  1  0  0  0  0
 48113  1  0  0  0  0
 49114  1  0  0  0  0
 49115  1  0  0  0  0
 49116  1  0  0  0  0
 51117  1  0  0  0  0
 52118  1  0  0  0  0
 62119  1  0  0  0  0
 62120  1  0  0  0  0
 63121  1  0  0  0  0
 63122  1  0  0  0  0
 63123  1  0  0  0  0
 64124  1  0  0  0  0
 64125  1  0  0  0  0
 65126  1  0  0  0  0
 65127  1  0  0  0  0
 65128  1  0  0  0  0
 67129  1  0  0  0  0
 68130  1  0  0  0  0
 75131  1  0  0  0  0
 75132  1  0  0  0  0
 75133  1  0  0  0  0
 77134  1  0  0  0  0
 77135  1  0  0  0  0
 77136  1  0  0  0  0
 80137  1  0  0  0  0
M  END
