105

C          5.19580       -4.33590        4.30320
C          5.58660       -3.03150        4.21760
C          4.92910       -2.43810        3.09180
C          4.13570       -3.47560        2.45990
O          3.42680       -3.47460        1.47410
N          4.33770       -4.59330        3.27930
C          5.30580       -1.10710        3.04610
O          6.19520       -0.86380        4.06420
C          6.39960       -1.99700        4.83680
O          7.12960       -2.00140        5.78460
C          5.07140       -0.03060        2.17510
C          4.15070        0.13880        1.17550
C          2.95460       -0.54120        0.89450
C          2.08480       -1.32890        1.65880
C          0.93130       -1.61750        0.88180
C          1.11470       -1.02260       -0.44580
O          0.44610       -1.06560       -1.44980
N          2.33810       -0.37530       -0.32960
C          0.07340       -2.36350        1.66300
O          0.65550       -2.57850        2.88370
C          1.88270       -1.94270        2.94850
O          2.56970       -2.00550        3.93840
C         -1.23100       -2.83830        1.41300
C         -1.92130       -3.58280        2.32440
C         -3.25860       -3.99170        2.13380
C         -4.14730       -3.68340        1.11370
C         -5.42160       -4.26040        1.42150
C         -5.28960       -4.98400        2.68420
O         -6.07630       -5.62620        3.33450
N         -3.95330       -4.76850        3.03770
C         -6.30880       -3.83710        0.46640
O         -5.63220       -3.08570       -0.45900
C         -4.30060       -2.92900       -0.10090
O         -3.55360       -2.25370       -0.76340
C         -7.72840       -4.00520        0.28430
C         -8.47730       -3.05280       -0.30440
C         -7.85340       -1.75690       -0.52250
S         -7.27490       -1.24620       -2.07860
C         -6.19160       -0.12850       -1.31790
C         -4.99950        0.39940       -1.85720
C         -3.99990        0.80280       -0.95590
O         -4.19880        0.90200        0.36330
C         -5.55960        0.92440        0.85030
C         -5.42840        0.52940        2.33020
C         -6.61170        0.89320        3.22030
C         -6.12530        2.34710        0.63550
C         -5.25580        3.43880        1.24820
C         -6.39100       -0.05040        0.05510
C         -7.31600       -1.00180        0.49420
C         -2.76740        1.00620       -1.56820
C         -2.80720        0.76710       -2.93410
S         -4.40710        0.30080       -3.46490
C         -1.72240        0.81110       -3.81940
C         -0.38560        1.11090       -3.55420
C          0.35560        0.92820       -4.74860
C         -0.56530        0.52990       -5.80800
O         -0.39620        0.28170       -6.97630
N         -1.80180        0.49550       -5.15550
C          1.69100        1.15750       -4.47770
O          1.80150        1.48810       -3.14560
C          0.53920        1.49160       -2.52590
O          0.43320        1.81270       -1.37150
C          2.75480        1.07620       -5.39590
C          4.10870        1.23490       -5.27360
C          4.92060        1.52350       -4.15650
C          6.31030        1.58010       -4.14930
C          6.74970        1.86200       -2.82260
C          5.56720        1.98120       -1.98160
O          5.43440        2.18420       -0.79280
N          4.51390        1.76900       -2.86190
C          8.12250        1.91050       -2.84110
O          8.56930        1.67380       -4.10430
C          7.48870        1.45720       -4.97200
O          7.65420        1.22780       -6.13860
C          9.04340        2.16210       -1.77540
C         10.36780        2.18700       -1.94160
H          5.46620       -5.09220        5.01570
H          3.89250       -5.48100        3.10300
H          5.78560        0.77440        2.30270
H          4.36300        0.96570        0.50340
H          2.73250        0.17800       -1.07510
H         -1.66890       -2.56220        0.46360
H         -1.43690       -3.86210        3.25050
H         -3.55050       -5.14810        3.88120
H         -8.14990       -4.93790        0.62770
H         -9.50800       -3.22420       -0.57640
H         -4.52790        1.01650        2.70650
H         -5.24970       -0.54810        2.36880
H         -7.55390        0.54960        2.80290
H         -6.48110        0.42930        4.19520
H         -6.67980        1.96680        3.36770
H         -6.19420        2.51580       -0.44290
H         -7.13690        2.38570        1.04000
H         -4.23200        3.34760        0.89440
H         -5.63640        4.41540        0.95900
H         -5.24930        3.38170        2.33260
H         -7.56500       -1.18980        1.52230
H         -1.86530        1.27670       -1.05050
H         -2.65380        0.20930       -5.61470
H          2.39140        0.82730       -6.38520
H          4.68910        1.09930       -6.17700
H          3.53840        1.85070       -2.60500
H          8.58060        2.33570       -0.81430
H         10.80630        2.01240       -2.90960
H         11.03580        2.38070       -1.12120
