
  xtb     03012205003D
 energy: -388.129076343975 gnorm: 0.001115469484 xtb: 6.4.1 (unknown)
212235  0     0  0            999 V2000
   -4.7441  -18.1404   -1.1825 C   0  0  0  0  0  0  0  0  0  0  0  0
   -5.6375  -17.1647   -0.9234 C   0  0  0  0  0  0  0  0  0  0  0  0
   -5.0386  -16.0006   -0.3580 C   0  0  0  0  0  0  0  0  0  0  0  0
   -5.6641  -14.8141    0.0580 C   0  0  0  0  0  0  0  0  0  0  0  0
   -7.0837  -14.5855   -0.1558 C   0  0  0  0  0  0  0  0  0  0  0  0
   -8.1323  -14.0928    1.1395 S   0  0  0  0  0  0  0  0  0  0  0  0
   -9.5103  -14.0129    0.0969 C   0  0  0  0  0  0  0  0  0  0  0  0
  -10.8355  -13.5612    0.6029 C   0  0  0  0  0  0  0  0  0  0  0  0
  -10.9395  -12.0346    0.5597 C   0  0  0  0  0  0  0  0  0  0  0  0
   -9.1599  -14.3395   -1.1794 C   0  0  0  0  0  0  0  0  0  0  0  0
  -10.2582  -14.3602   -2.4980 Cl  0  0  0  0  0  0  0  0  0  0  0  0
   -7.7862  -14.6694   -1.3261 C   0  0  0  0  0  0  0  0  0  0  0  0
   -7.0845  -15.0467   -2.8470 Cl  0  0  0  0  0  0  0  0  0  0  0  0
   -4.8599  -13.8527    0.6569 C   0  0  0  0  0  0  0  0  0  0  0  0
   -3.4620  -14.0125    0.8086 C   0  0  0  0  0  0  0  0  0  0  0  0
   -2.8342  -15.2008    0.3974 C   0  0  0  0  0  0  0  0  0  0  0  0
   -1.4066  -15.3827    0.5968 C   0  0  0  0  0  0  0  0  0  0  0  0
   -0.3512  -15.8353   -0.7085 S   0  0  0  0  0  0  0  0  0  0  0  0
    1.0547  -15.7592    0.2970 C   0  0  0  0  0  0  0  0  0  0  0  0
    2.4179  -15.9920   -0.2547 C   0  0  0  0  0  0  0  0  0  0  0  0
    3.0331  -14.6838   -0.7585 C   0  0  0  0  0  0  0  0  0  0  0  0
    0.7096  -15.4033    1.5668 C   0  0  0  0  0  0  0  0  0  0  0  0
   -0.6837  -15.1971    1.7445 C   0  0  0  0  0  0  0  0  0  0  0  0
   -1.3693  -14.8319    3.2778 Cl  0  0  0  0  0  0  0  0  0  0  0  0
    1.8373  -15.2135    2.8458 Cl  0  0  0  0  0  0  0  0  0  0  0  0
   -3.6426  -16.1656   -0.1893 C   0  0  0  0  0  0  0  0  0  0  0  0
   -3.1193  -17.7273   -0.7529 S   0  0  0  0  0  0  0  0  0  0  0  0
   -2.8558  -12.8582    1.3562 C   0  0  0  0  0  0  0  0  0  0  0  0
   -3.7423  -11.8663    1.6595 C   0  0  0  0  0  0  0  0  0  0  0  0
   -5.3858  -12.2999    1.2456 S   0  0  0  0  0  0  0  0  0  0  0  0
   -3.4175  -10.6099    2.2543 C   0  0  0  0  0  0  0  0  0  0  0  0
   -2.1701  -10.2042    2.6323 C   0  0  0  0  0  0  0  0  0  0  0  0
   -2.1410   -8.9079    3.1936 C   0  0  0  0  0  0  0  0  0  0  0  0
   -1.0090   -8.1807    3.6032 C   0  0  0  0  0  0  0  0  0  0  0  0
    0.3106   -8.7903    3.5689 C   0  0  0  0  0  0  0  0  0  0  0  0
    0.6028  -10.3136    4.3595 S   0  0  0  0  0  0  0  0  0  0  0  0
    2.2581  -10.3493    3.8586 C   0  0  0  0  0  0  0  0  0  0  0  0
    3.1595  -11.4627    4.2639 C   0  0  0  0  0  0  0  0  0  0  0  0
    3.7537  -11.2094    5.6512 C   0  0  0  0  0  0  0  0  0  0  0  0
    2.5552   -9.2338    3.1345 C   0  0  0  0  0  0  0  0  0  0  0  0
    4.1013   -8.9150    2.4617 Cl  0  0  0  0  0  0  0  0  0  0  0  0
    1.4549   -8.3498    2.9641 C   0  0  0  0  0  0  0  0  0  0  0  0
    1.5608   -6.9310    2.0093 Cl  0  0  0  0  0  0  0  0  0  0  0  0
   -1.2219   -6.8745    4.0196 C   0  0  0  0  0  0  0  0  0  0  0  0
   -2.5122   -6.2863    4.0706 C   0  0  0  0  0  0  0  0  0  0  0  0
   -3.6475   -7.0254    3.6887 C   0  0  0  0  0  0  0  0  0  0  0  0
   -4.9796   -6.4458    3.7349 C   0  0  0  0  0  0  0  0  0  0  0  0
   -5.3310   -4.9184    2.9773 S   0  0  0  0  0  0  0  0  0  0  0  0
   -6.9937   -4.9711    3.4511 C   0  0  0  0  0  0  0  0  0  0  0  0
   -7.9460   -3.8955    3.0588 C   0  0  0  0  0  0  0  0  0  0  0  0
   -8.6312   -4.2285    1.7316 C   0  0  0  0  0  0  0  0  0  0  0  0
   -7.2500   -6.1164    4.1435 C   0  0  0  0  0  0  0  0  0  0  0  0
   -6.1130   -6.9528    4.3091 C   0  0  0  0  0  0  0  0  0  0  0  0
   -6.1693   -8.4007    5.2233 Cl  0  0  0  0  0  0  0  0  0  0  0  0
   -8.7909   -6.5210    4.7792 Cl  0  0  0  0  0  0  0  0  0  0  0  0
   -3.4303   -8.3226    3.2410 C   0  0  0  0  0  0  0  0  0  0  0  0
   -4.6333   -9.3998    2.5910 S   0  0  0  0  0  0  0  0  0  0  0  0
   -2.4599   -4.9490    4.5260 C   0  0  0  0  0  0  0  0  0  0  0  0
   -1.1935   -4.5092    4.7895 C   0  0  0  0  0  0  0  0  0  0  0  0
    0.0032   -5.7585    4.5461 S   0  0  0  0  0  0  0  0  0  0  0  0
   -0.8080   -3.1701    5.0975 C   0  0  0  0  0  0  0  0  0  0  0  0
   -1.6415   -2.1039    5.2817 C   0  0  0  0  0  0  0  0  0  0  0  0
   -0.9627   -0.8677    5.3743 C   0  0  0  0  0  0  0  0  0  0  0  0
   -1.5308    0.4199    5.4326 C   0  0  0  0  0  0  0  0  0  0  0  0
   -2.9597    0.5753    5.6324 C   0  0  0  0  0  0  0  0  0  0  0  0
   -3.9426    1.5436    4.5750 S   0  0  0  0  0  0  0  0  0  0  0  0
   -5.3940    1.1340    5.4230 C   0  0  0  0  0  0  0  0  0  0  0  0
   -6.7271    1.6037    4.9548 C   0  0  0  0  0  0  0  0  0  0  0  0
   -7.3605    0.5764    4.0127 C   0  0  0  0  0  0  0  0  0  0  0  0
   -5.1170    0.2994    6.4648 C   0  0  0  0  0  0  0  0  0  0  0  0
   -6.3076   -0.3200    7.5349 Cl  0  0  0  0  0  0  0  0  0  0  0  0
   -3.7389   -0.0175    6.5891 C   0  0  0  0  0  0  0  0  0  0  0  0
   -3.1263   -0.9938    7.8619 Cl  0  0  0  0  0  0  0  0  0  0  0  0
   -0.6733    1.4892    5.2294 C   0  0  0  0  0  0  0  0  0  0  0  0
    0.7261    1.3365    5.0549 C   0  0  0  0  0  0  0  0  0  0  0  0
    1.3068    0.0570    5.1248 C   0  0  0  0  0  0  0  0  0  0  0  0
    2.7405   -0.1475    5.0121 C   0  0  0  0  0  0  0  0  0  0  0  0
    3.6678    0.5122    3.6970 S   0  0  0  0  0  0  0  0  0  0  0  0
    5.1405   -0.1899    4.2757 C   0  0  0  0  0  0  0  0  0  0  0  0
    6.4321    0.0539    3.5769 C   0  0  0  0  0  0  0  0  0  0  0  0
    6.9151    1.4879    3.8031 C   0  0  0  0  0  0  0  0  0  0  0  0
    4.9116   -0.8866    5.4239 C   0  0  0  0  0  0  0  0  0  0  0  0
    3.5526   -0.8734    5.8391 C   0  0  0  0  0  0  0  0  0  0  0  0
    3.0271   -1.6284    7.2849 Cl  0  0  0  0  0  0  0  0  0  0  0  0
    6.1303   -1.7125    6.3051 Cl  0  0  0  0  0  0  0  0  0  0  0  0
    0.4387   -1.0211    5.2520 C   0  0  0  0  0  0  0  0  0  0  0  0
    0.8767   -2.6980    5.0985 S   0  0  0  0  0  0  0  0  0  0  0  0
    1.3586    2.5709    4.7795 C   0  0  0  0  0  0  0  0  0  0  0  0
    0.4971    3.6289    4.7202 C   0  0  0  0  0  0  0  0  0  0  0  0
   -1.1515    3.1589    5.0986 S   0  0  0  0  0  0  0  0  0  0  0  0
    0.7728    4.9446    4.2647 C   0  0  0  0  0  0  0  0  0  0  0  0
    2.2917    5.2905    3.4723 S   0  0  0  0  0  0  0  0  0  0  0  0
    1.7317    6.8696    3.0523 C   0  0  0  0  0  0  0  0  0  0  0  0
    2.3310    7.7953    2.1723 C   0  0  0  0  0  0  0  0  0  0  0  0
    1.5481    8.8355    1.6832 C   0  0  0  0  0  0  0  0  0  0  0  0
    0.2959    9.0867    2.0963 O   0  0  0  0  0  0  0  0  0  0  0  0
   -0.1713    8.4805    3.3156 C   0  0  0  0  0  0  0  0  0  0  0  0
    0.2748    9.3614    4.5086 C   0  0  0  0  0  0  0  0  0  0  0  0
   -0.2321   10.7965    4.4655 C   0  0  0  0  0  0  0  0  0  0  0  0
   -1.7054    8.3433    3.1934 C   0  0  0  0  0  0  0  0  0  0  0  0
   -2.3700    9.3700    2.2820 C   0  0  0  0  0  0  0  0  0  0  0  0
    0.4558    7.1213    3.5315 C   0  0  0  0  0  0  0  0  0  0  0  0
   -0.0789    6.0272    4.2150 C   0  0  0  0  0  0  0  0  0  0  0  0
    2.1634    9.5340    0.6359 C   0  0  0  0  0  0  0  0  0  0  0  0
    3.4127    9.0419    0.3243 C   0  0  0  0  0  0  0  0  0  0  0  0
    3.8573    7.7087    1.3604 S   0  0  0  0  0  0  0  0  0  0  0  0
    4.2644    9.4362   -0.7364 C   0  0  0  0  0  0  0  0  0  0  0  0
    3.7155   10.5832   -1.9353 S   0  0  0  0  0  0  0  0  0  0  0  0
    5.1652   10.3520   -2.8476 C   0  0  0  0  0  0  0  0  0  0  0  0
    5.5208   10.9196   -4.0889 C   0  0  0  0  0  0  0  0  0  0  0  0
    6.7945   10.6773   -4.5888 C   0  0  0  0  0  0  0  0  0  0  0  0
    7.7389    9.9904   -3.9187 O   0  0  0  0  0  0  0  0  0  0  0  0
    7.3288    9.0569   -2.9041 C   0  0  0  0  0  0  0  0  0  0  0  0
    8.4600    8.9959   -1.8504 C   0  0  0  0  0  0  0  0  0  0  0  0
    9.8381    9.3860   -2.3738 C   0  0  0  0  0  0  0  0  0  0  0  0
    7.0540    7.6915   -3.5822 C   0  0  0  0  0  0  0  0  0  0  0  0
    8.2430    7.1107   -4.3354 C   0  0  0  0  0  0  0  0  0  0  0  0
    6.0356    9.4663   -2.2351 C   0  0  0  0  0  0  0  0  0  0  0  0
    5.5177    8.9487   -1.0466 C   0  0  0  0  0  0  0  0  0  0  0  0
    7.0126   11.2720   -5.8377 C   0  0  0  0  0  0  0  0  0  0  0  0
    5.9087   11.9573   -6.3043 C   0  0  0  0  0  0  0  0  0  0  0  0
    4.5820   11.8801   -5.1758 S   0  0  0  0  0  0  0  0  0  0  0  0
    5.7608   12.6272   -7.5475 C   0  0  0  0  0  0  0  0  0  0  0  0
    4.2897   13.4829   -7.9367 S   0  0  0  0  0  0  0  0  0  0  0  0
    4.9168   13.9045   -9.4884 C   0  0  0  0  0  0  0  0  0  0  0  0
    4.2839   14.6321  -10.5262 C   0  0  0  0  0  0  0  0  0  0  0  0
    4.9077   14.7028  -11.7587 C   0  0  0  0  0  0  0  0  0  0  0  0
    6.0834   14.1139  -12.0449 O   0  0  0  0  0  0  0  0  0  0  0  0
    6.9457   13.7002  -10.9658 C   0  0  0  0  0  0  0  0  0  0  0  0
    7.6728   12.4521  -11.4912 C   0  0  0  0  0  0  0  0  0  0  0  0
    6.7329   11.2617  -11.6456 C   0  0  0  0  0  0  0  0  0  0  0  0
    7.9230   14.8606  -10.6577 C   0  0  0  0  0  0  0  0  0  0  0  0
    8.7522   15.2982  -11.8586 C   0  0  0  0  0  0  0  0  0  0  0  0
    6.1878   13.4018   -9.6940 C   0  0  0  0  0  0  0  0  0  0  0  0
    6.6637   12.6890   -8.5895 C   0  0  0  0  0  0  0  0  0  0  0  0
    4.1447   15.4121  -12.7130 C   0  0  0  0  0  0  0  0  0  0  0  0
    2.9753   15.8713  -12.1923 C   0  0  0  0  0  0  0  0  0  0  0  0
    2.7631   15.4568  -10.5366 S   0  0  0  0  0  0  0  0  0  0  0  0
   -4.9302  -19.1081   -1.6057 H   0  0  0  0  0  0  0  0  0  0  0  0
   -6.6915  -17.2584   -1.1088 H   0  0  0  0  0  0  0  0  0  0  0  0
  -11.6182  -13.9991   -0.0193 H   0  0  0  0  0  0  0  0  0  0  0  0
  -10.9687  -13.9058    1.6296 H   0  0  0  0  0  0  0  0  0  0  0  0
  -10.8317  -11.6790   -0.4617 H   0  0  0  0  0  0  0  0  0  0  0  0
  -10.1583  -11.5859    1.1682 H   0  0  0  0  0  0  0  0  0  0  0  0
  -11.9062  -11.7155    0.9398 H   0  0  0  0  0  0  0  0  0  0  0  0
    2.3580  -16.7072   -1.0762 H   0  0  0  0  0  0  0  0  0  0  0  0
    3.0494  -16.4117    0.5311 H   0  0  0  0  0  0  0  0  0  0  0  0
    2.4177  -14.2561   -1.5463 H   0  0  0  0  0  0  0  0  0  0  0  0
    4.0284  -14.8677   -1.1538 H   0  0  0  0  0  0  0  0  0  0  0  0
    3.1079  -13.9649    0.0535 H   0  0  0  0  0  0  0  0  0  0  0  0
   -1.7972  -12.7635    1.5020 H   0  0  0  0  0  0  0  0  0  0  0  0
   -1.2925  -10.8074    2.5008 H   0  0  0  0  0  0  0  0  0  0  0  0
    3.9635  -11.5469    3.5314 H   0  0  0  0  0  0  0  0  0  0  0  0
    2.5971  -12.3971    4.2755 H   0  0  0  0  0  0  0  0  0  0  0  0
    4.4095  -12.0293    5.9315 H   0  0  0  0  0  0  0  0  0  0  0  0
    4.3284  -10.2864    5.6522 H   0  0  0  0  0  0  0  0  0  0  0  0
    2.9613  -11.1270    6.3916 H   0  0  0  0  0  0  0  0  0  0  0  0
   -7.4063   -2.9520    2.9632 H   0  0  0  0  0  0  0  0  0  0  0  0
   -8.7003   -3.7918    3.8414 H   0  0  0  0  0  0  0  0  0  0  0  0
   -9.3254   -3.4373    1.4617 H   0  0  0  0  0  0  0  0  0  0  0  0
   -9.1811   -5.1620    1.8162 H   0  0  0  0  0  0  0  0  0  0  0  0
   -7.8922   -4.3307    0.9407 H   0  0  0  0  0  0  0  0  0  0  0  0
   -3.3268   -4.3251    4.6296 H   0  0  0  0  0  0  0  0  0  0  0  0
   -2.7114   -2.1913    5.2969 H   0  0  0  0  0  0  0  0  0  0  0  0
   -6.6139    2.5563    4.4359 H   0  0  0  0  0  0  0  0  0  0  0  0
   -7.3751    1.7494    5.8213 H   0  0  0  0  0  0  0  0  0  0  0  0
   -8.3349    0.9242    3.6805 H   0  0  0  0  0  0  0  0  0  0  0  0
   -6.7273    0.4236    3.1419 H   0  0  0  0  0  0  0  0  0  0  0  0
   -7.4855   -0.3743    4.5251 H   0  0  0  0  0  0  0  0  0  0  0  0
    7.1716   -0.6502    3.9607 H   0  0  0  0  0  0  0  0  0  0  0  0
    6.3066   -0.1205    2.5064 H   0  0  0  0  0  0  0  0  0  0  0  0
    7.0498    1.6765    4.8653 H   0  0  0  0  0  0  0  0  0  0  0  0
    6.1882    2.1968    3.4130 H   0  0  0  0  0  0  0  0  0  0  0  0
    7.8640    1.6468    3.2982 H   0  0  0  0  0  0  0  0  0  0  0  0
    2.4109    2.6783    4.5907 H   0  0  0  0  0  0  0  0  0  0  0  0
   -0.0504    8.8728    5.4293 H   0  0  0  0  0  0  0  0  0  0  0  0
    1.3688    9.3716    4.5074 H   0  0  0  0  0  0  0  0  0  0  0  0
    0.2659   11.3839    5.2338 H   0  0  0  0  0  0  0  0  0  0  0  0
   -1.3024   10.8392    4.6467 H   0  0  0  0  0  0  0  0  0  0  0  0
   -0.0168   11.2413    3.4972 H   0  0  0  0  0  0  0  0  0  0  0  0
   -1.9251    7.3514    2.7917 H   0  0  0  0  0  0  0  0  0  0  0  0
   -2.1337    8.4019    4.1950 H   0  0  0  0  0  0  0  0  0  0  0  0
   -1.9779    9.2872    1.2728 H   0  0  0  0  0  0  0  0  0  0  0  0
   -2.2048   10.3842    2.6283 H   0  0  0  0  0  0  0  0  0  0  0  0
   -3.4411    9.1818    2.2548 H   0  0  0  0  0  0  0  0  0  0  0  0
   -1.0583    5.9997    4.6579 H   0  0  0  0  0  0  0  0  0  0  0  0
    1.7027   10.3499    0.1105 H   0  0  0  0  0  0  0  0  0  0  0  0
    8.4909    7.9856   -1.4406 H   0  0  0  0  0  0  0  0  0  0  0  0
    8.2027    9.6776   -1.0361 H   0  0  0  0  0  0  0  0  0  0  0  0
    9.8295   10.4114   -2.7312 H   0  0  0  0  0  0  0  0  0  0  0  0
   10.1516    8.7449   -3.1904 H   0  0  0  0  0  0  0  0  0  0  0  0
   10.5638    9.3050   -1.5675 H   0  0  0  0  0  0  0  0  0  0  0  0
    6.2280    7.8435   -4.2837 H   0  0  0  0  0  0  0  0  0  0  0  0
    6.7136    6.9924   -2.8163 H   0  0  0  0  0  0  0  0  0  0  0  0
    7.9250    6.2442   -4.9108 H   0  0  0  0  0  0  0  0  0  0  0  0
    9.0241    6.7953   -3.6493 H   0  0  0  0  0  0  0  0  0  0  0  0
    8.6497    7.8504   -5.0202 H   0  0  0  0  0  0  0  0  0  0  0  0
    6.0186    8.2276   -0.4257 H   0  0  0  0  0  0  0  0  0  0  0  0
    7.9418   11.1971   -6.3696 H   0  0  0  0  0  0  0  0  0  0  0  0
    8.4906   12.2045  -10.8142 H   0  0  0  0  0  0  0  0  0  0  0  0
    8.0918   12.7004  -12.4661 H   0  0  0  0  0  0  0  0  0  0  0  0
    7.2627   10.4222  -12.0889 H   0  0  0  0  0  0  0  0  0  0  0  0
    5.9012   11.5269  -12.2939 H   0  0  0  0  0  0  0  0  0  0  0  0
    6.3348   10.9501  -10.6825 H   0  0  0  0  0  0  0  0  0  0  0  0
    8.5739   14.5547   -9.8371 H   0  0  0  0  0  0  0  0  0  0  0  0
    7.3218   15.7054  -10.3096 H   0  0  0  0  0  0  0  0  0  0  0  0
    9.4883   14.5440  -12.1229 H   0  0  0  0  0  0  0  0  0  0  0  0
    9.2773   16.2220  -11.6280 H   0  0  0  0  0  0  0  0  0  0  0  0
    8.1052   15.4712  -12.7148 H   0  0  0  0  0  0  0  0  0  0  0  0
    7.6308   12.2240   -8.5445 H   0  0  0  0  0  0  0  0  0  0  0  0
    4.4611   15.5628  -13.7281 H   0  0  0  0  0  0  0  0  0  0  0  0
    2.2157   16.4429  -12.6864 H   0  0  0  0  0  0  0  0  0  0  0  0
  1  2  2  0  0  0  0
  2  3  1  0  0  0  0
  3  4  2  0  0  0  0
  4  5  1  0  0  0  0
  5  6  1  0  0  0  0
  6  7  1  0  0  0  0
  7  8  1  0  0  0  0
  8  9  1  0  0  0  0
  7 10  2  0  0  0  0
 10 11  1  0  0  0  0
 10 12  1  0  0  0  0
 12 13  1  0  0  0  0
  4 14  1  0  0  0  0
 14 15  2  0  0  0  0
 15 16  1  0  0  0  0
 16 17  1  0  0  0  0
 17 18  1  0  0  0  0
 18 19  1  0  0  0  0
 19 20  1  0  0  0  0
 20 21  1  0  0  0  0
 19 22  2  0  0  0  0
 22 23  1  0  0  0  0
 23 24  1  0  0  0  0
 22 25  1  0  0  0  0
 16 26  2  0  0  0  0
 26 27  1  0  0  0  0
 15 28  1  0  0  0  0
 28 29  2  0  0  0  0
 29 30  1  0  0  0  0
 29 31  1  0  0  0  0
 31 32  2  0  0  0  0
 32 33  1  0  0  0  0
 33 34  2  0  0  0  0
 34 35  1  0  0  0  0
 35 36  1  0  0  0  0
 36 37  1  0  0  0  0
 37 38  1  0  0  0  0
 38 39  1  0  0  0  0
 37 40  2  0  0  0  0
 40 41  1  0  0  0  0
 40 42  1  0  0  0  0
 42 43  1  0  0  0  0
 34 44  1  0  0  0  0
 44 45  2  0  0  0  0
 45 46  1  0  0  0  0
 46 47  1  0  0  0  0
 47 48  1  0  0  0  0
 48 49  1  0  0  0  0
 49 50  1  0  0  0  0
 50 51  1  0  0  0  0
 49 52  2  0  0  0  0
 52 53  1  0  0  0  0
 53 54  1  0  0  0  0
 52 55  1  0  0  0  0
 46 56  2  0  0  0  0
 56 57  1  0  0  0  0
 45 58  1  0  0  0  0
 58 59  2  0  0  0  0
 59 60  1  0  0  0  0
 59 61  1  0  0  0  0
 61 62  2  0  0  0  0
 62 63  1  0  0  0  0
 63 64  2  0  0  0  0
 64 65  1  0  0  0  0
 65 66  1  0  0  0  0
 66 67  1  0  0  0  0
 67 68  1  0  0  0  0
 68 69  1  0  0  0  0
 67 70  2  0  0  0  0
 70 71  1  0  0  0  0
 70 72  1  0  0  0  0
 72 73  1  0  0  0  0
 64 74  1  0  0  0  0
 74 75  2  0  0  0  0
 75 76  1  0  0  0  0
 76 77  1  0  0  0  0
 77 78  1  0  0  0  0
 78 79  1  0  0  0  0
 79 80  1  0  0  0  0
 80 81  1  0  0  0  0
 79 82  2  0  0  0  0
 82 83  1  0  0  0  0
 83 84  1  0  0  0  0
 82 85  1  0  0  0  0
 76 86  2  0  0  0  0
 86 87  1  0  0  0  0
 75 88  1  0  0  0  0
 88 89  2  0  0  0  0
 89 90  1  0  0  0  0
 89 91  1  0  0  0  0
 91 92  1  0  0  0  0
 92 93  1  0  0  0  0
 93 94  1  0  0  0  0
 94 95  2  0  0  0  0
 95 96  1  0  0  0  0
 96 97  1  0  0  0  0
 97 98  1  0  0  0  0
 98 99  1  0  0  0  0
 97100  1  0  0  0  0
100101  1  0  0  0  0
 97102  1  0  0  0  0
102103  1  0  0  0  0
 95104  1  0  0  0  0
104105  2  0  0  0  0
105106  1  0  0  0  0
105107  1  0  0  0  0
107108  1  0  0  0  0
108109  1  0  0  0  0
109110  1  0  0  0  0
110111  2  0  0  0  0
111112  1  0  0  0  0
112113  1  0  0  0  0
113114  1  0  0  0  0
114115  1  0  0  0  0
113116  1  0  0  0  0
116117  1  0  0  0  0
113118  1  0  0  0  0
118119  1  0  0  0  0
111120  1  0  0  0  0
120121  2  0  0  0  0
121122  1  0  0  0  0
121123  1  0  0  0  0
123124  1  0  0  0  0
124125  1  0  0  0  0
125126  1  0  0  0  0
126127  2  0  0  0  0
127128  1  0  0  0  0
128129  1  0  0  0  0
129130  1  0  0  0  0
130131  1  0  0  0  0
129132  1  0  0  0  0
132133  1  0  0  0  0
129134  1  0  0  0  0
134135  1  0  0  0  0
127136  1  0  0  0  0
136137  2  0  0  0  0
137138  1  0  0  0  0
 27  1  1  0  0  0  0
 57 31  1  0  0  0  0
 87 61  1  0  0  0  0
103 91  2  0  0  0  0
119107  2  0  0  0  0
135123  2  0  0  0  0
 26  3  1  0  0  0  0
 56 33  1  0  0  0  0
 86 63  1  0  0  0  0
102 93  2  0  0  0  0
118109  2  0  0  0  0
134125  2  0  0  0  0
 12  5  2  0  0  0  0
 30 14  1  0  0  0  0
 42 35  2  0  0  0  0
 60 44  1  0  0  0  0
 72 65  2  0  0  0  0
 90 74  1  0  0  0  0
106 94  1  0  0  0  0
122110  1  0  0  0  0
138126  1  0  0  0  0
 23 17  2  0  0  0  0
 53 47  2  0  0  0  0
 83 77  2  0  0  0  0
  1139  1  0  0  0  0
  2140  1  0  0  0  0
  8141  1  0  0  0  0
  8142  1  0  0  0  0
  9143  1  0  0  0  0
  9144  1  0  0  0  0
  9145  1  0  0  0  0
 20146  1  0  0  0  0
 20147  1  0  0  0  0
 21148  1  0  0  0  0
 21149  1  0  0  0  0
 21150  1  0  0  0  0
 28151  1  0  0  0  0
 32152  1  0  0  0  0
 38153  1  0  0  0  0
 38154  1  0  0  0  0
 39155  1  0  0  0  0
 39156  1  0  0  0  0
 39157  1  0  0  0  0
 50158  1  0  0  0  0
 50159  1  0  0  0  0
 51160  1  0  0  0  0
 51161  1  0  0  0  0
 51162  1  0  0  0  0
 58163  1  0  0  0  0
 62164  1  0  0  0  0
 68165  1  0  0  0  0
 68166  1  0  0  0  0
 69167  1  0  0  0  0
 69168  1  0  0  0  0
 69169  1  0  0  0  0
 80170  1  0  0  0  0
 80171  1  0  0  0  0
 81172  1  0  0  0  0
 81173  1  0  0  0  0
 81174  1  0  0  0  0
 88175  1  0  0  0  0
 98176  1  0  0  0  0
 98177  1  0  0  0  0
 99178  1  0  0  0  0
 99179  1  0  0  0  0
 99180  1  0  0  0  0
100181  1  0  0  0  0
100182  1  0  0  0  0
101183  1  0  0  0  0
101184  1  0  0  0  0
101185  1  0  0  0  0
103186  1  0  0  0  0
104187  1  0  0  0  0
114188  1  0  0  0  0
114189  1  0  0  0  0
115190  1  0  0  0  0
115191  1  0  0  0  0
115192  1  0  0  0  0
116193  1  0  0  0  0
116194  1  0  0  0  0
117195  1  0  0  0  0
117196  1  0  0  0  0
117197  1  0  0  0  0
119198  1  0  0  0  0
120199  1  0  0  0  0
130200  1  0  0  0  0
130201  1  0  0  0  0
131202  1  0  0  0  0
131203  1  0  0  0  0
131204  1  0  0  0  0
132205  1  0  0  0  0
132206  1  0  0  0  0
133207  1  0  0  0  0
133208  1  0  0  0  0
133209  1  0  0  0  0
135210  1  0  0  0  0
136211  1  0  0  0  0
137212  1  0  0  0  0
M  END
