135

C         15.91130        7.95560       -0.31740
C         15.31770        7.59260        0.88410
C         14.10880        6.93080        0.85300
C         13.49210        6.63150       -0.37200
C         14.08860        6.99620       -1.56850
C         15.30310        7.66040       -1.52830
C         12.24690        5.93580       -0.10170
C         12.09770        5.80900        1.28840
C         13.26850        6.43190        1.99340
C         10.99770        5.17790        1.82350
C         10.02790        4.65100        0.96760
C         10.18450        4.78630       -0.41320
C         11.28230        5.42630       -0.95630
C          8.85140        3.95370        1.50430
C          8.16420        4.45820        2.61180
C          7.04240        3.80160        3.06570
C          6.59640        2.63110        2.43200
C          7.28670        2.11120        1.34860
C          8.40580        2.78020        0.89320
C          5.38010        2.18890        3.08170
C          5.06960        3.08410        4.11770
C          6.11980        4.15720        4.19860
C          3.92470        2.92300        4.86650
C          3.06510        1.85820        4.58220
C          3.39620        0.96750        3.55650
C          4.54490        1.11870        2.80670
C          1.77260        1.68760        5.25830
C          1.27020        0.40160        5.48320
C         -0.03510        0.24500        5.87970
C         -0.86550        1.35930        6.09300
C         -0.34140        2.63840        5.97650
C          0.96750        2.78950        5.55440
C         -2.22950        0.88860        6.24620
C         -2.22840       -0.51100        6.10390
C         -0.82220       -1.02540        6.01610
C         -3.40010       -1.20060        5.93210
C         -4.61430       -0.50110        5.88350
C         -4.61710        0.87160        6.15990
C         -3.43670        1.56780        6.34070
C         -5.77750       -1.15690        5.33070
S         -5.48190       -2.50810        4.26000
C         -7.12290       -2.49050        3.74190
C         -7.63970       -3.10630        2.57830
C         -8.79970       -2.58490        2.03050
O         -9.57360       -1.68360        2.66650
C         -9.35130       -1.45190        4.07370
C        -10.10460       -2.52260        4.91780
C        -11.22440       -3.24210        4.17220
C         -9.86730       -0.02730        4.33740
C        -11.32660        0.18740        3.95690
C         -7.87640       -1.54050        4.40380
C         -7.10020       -0.78420        5.29810
C         -8.99890       -2.98640        0.69700
C         -7.99120       -3.79110        0.21770
S         -6.80900       -4.12260        1.45970
C         -7.72020       -4.20900       -1.13760
C         -6.43790       -4.67800       -1.45750
C         -6.09350       -4.87770       -2.76900
C         -7.01660       -4.64040       -3.80260
C         -8.31230       -4.25120       -3.49020
C         -8.65320       -4.03640       -2.16840
C         -6.32990       -4.79690       -5.07080
C         -4.98880       -5.12810       -4.81170
C         -4.76000       -5.26450       -3.33550
C         -4.07680       -5.23610       -5.83430
C         -4.48820       -5.00720       -7.15010
C         -5.83000       -4.71480       -7.40270
C         -6.75380       -4.61120       -6.37870
C         -3.49220       -5.01910       -8.22940
C         -2.45920       -5.96050       -8.23080
C         -1.49140       -5.90100       -9.20680
C         -1.53050       -4.90670      -10.19720
C         -2.56210       -3.98130      -10.21330
C         -3.53270       -4.04730       -9.23110
C         -0.37240       -5.06690      -11.05830
C          0.37460       -6.16340      -10.59900
C         -0.28810       -6.77860       -9.40030
C          1.54240       -6.53000      -11.23330
C          1.96430       -5.79460      -12.33270
C          1.22730       -4.71160      -12.78800
C          0.05270       -4.33700      -12.15700
H         16.85900        8.47410       -0.30920
H         15.79780        7.82560        1.82390
H         13.61730        6.76720       -2.51290
H         15.78410        7.95260       -2.45060
H         12.95800        7.24580        2.65340
H         13.80700        5.70280        2.60400
H         10.89160        5.06460        2.89320
H          9.41720        4.39810       -1.06730
H         11.38380        5.52570       -2.02690
H          8.49760        5.37300        3.08110
H          6.95390        1.20500        0.86460
H          8.96070        2.38300        0.05560
H          5.69140        5.15470        4.07480
H          6.63890        4.14080        5.16040
H          3.68990        3.60820        5.66870
H          2.71520        0.16370        3.31950
H          4.77460        0.42770        2.00930
H          1.89570       -0.46230        5.31050
H         -0.95810        3.50630        6.15860
H          1.35700        3.78350        5.38850
H         -0.54380       -1.57010        6.92280
H         -0.67810       -1.69870        5.16940
H         -3.39130       -2.26820        5.76240
H         -5.55430        1.40730        6.15450
H         -3.45740        2.63700        6.49150
H         -9.38340       -3.27010        5.25840
H        -10.50810       -2.03190        5.80470
H        -11.75980       -3.89010        4.86300
H        -11.92710       -2.53800        3.73780
H        -10.82170       -3.85830        3.37170
H         -9.24400        0.65750        3.75750
H         -9.72900        0.19800        5.39570
H        -11.49180       -0.11230        2.92610
H        -11.57900        1.24080        4.05690
H        -11.98780       -0.38300        4.60360
H         -7.48810        0.01720        5.89990
H         -9.82560       -2.63790        0.10700
H         -5.71220       -4.83020       -0.67150
H         -9.04130       -4.08960       -4.27040
H         -9.65240       -3.70910       -1.92570
H         -4.49050       -6.28850       -3.06370
H         -3.96070       -4.61030       -2.98070
H         -3.03910       -5.44940       -5.62200
H         -6.15120       -4.57010       -8.42400
H         -7.78450       -4.37250       -6.59590
H         -2.43160       -6.73320       -7.47570
H         -2.60280       -3.21270      -10.97100
H         -4.32370       -3.31170       -9.21540
H         -0.57160       -7.81800       -9.58460
H          0.36670       -6.76850       -8.52540
H          2.12240       -7.37190      -10.88280
H          2.87870       -6.06810      -12.83880
H          1.57620       -4.15320      -13.64470
H         -0.51750       -3.49170      -12.51270
