212

C          2.67370      -20.11960        3.46060
S          1.61770      -18.76480        3.56550
C          2.90890      -17.79040        4.17360
C          2.85860      -16.44470        4.61930
C          3.94200      -15.94990        5.33160
O          5.04220      -16.68090        5.60330
C          5.34870      -17.78560        4.72290
C          6.24630      -18.71990        5.54840
C          7.51890      -18.05120        6.05490
C          6.05060      -17.18890        3.48040
C          6.55750      -18.21920        2.48160
C          4.08890      -18.49630        4.28540
C          3.93910      -19.83570        3.87300
C          3.74440      -14.63870        5.78420
C          2.52280      -14.12390        5.40440
S          1.59780      -15.27680        4.48300
C          2.01820      -12.81410        5.64310
C          2.58960      -11.82010        6.38790
C          1.86210      -10.60690        6.36790
C          2.20640       -9.37950        6.96340
C          3.41320       -9.22050        7.75740
S          4.97800       -9.67460        7.14670
C          5.78380       -9.14010        8.58200
C          7.26600       -9.20150        8.70710
C          7.91430       -7.93700        8.13820
C          4.88110       -8.63700        9.47000
Cl         5.30400       -8.01290       11.01100
C          3.53800       -8.68240        9.00850
Cl         2.21790       -8.18320        9.98040
C          1.36380       -8.30210        6.71880
C          0.18130       -8.41350        5.94750
C         -0.19290       -9.65110        5.39210
C         -1.39720       -9.77510        4.58770
S         -1.72280       -8.67020        3.28120
C         -3.21990       -9.43990        2.88800
C         -4.10770       -8.93210        1.80390
C         -3.36340       -8.08190        0.78290
C         -3.43760      -10.49400        3.72490
C         -2.40940      -10.68970        4.68570
Cl        -2.50640      -11.90190        5.89210
Cl        -4.82810      -11.49670        3.64430
C          0.67100      -10.71680        5.60430
S          0.51220      -12.30340        4.91160
C         -0.46370       -7.16590        5.79360
C          0.21480       -6.12430        6.35700
S          1.65440       -6.65200        7.19590
C         -0.12520       -4.74680        6.19420
C         -0.93550       -4.26710        5.20580
C         -1.05290       -2.86010        5.20230
C         -1.73000       -2.06350        4.26110
C         -2.56610       -2.67640        3.24560
S         -2.41740       -2.25880        1.56400
C         -3.63250       -3.39660        1.09190
C         -4.06030       -3.52140       -0.32840
C         -5.06060       -2.42170       -0.69280
C         -4.12580       -4.04340        2.18540
Cl        -5.35210       -5.24080        2.11800
C         -3.52380       -3.64190        3.40700
Cl        -4.03540       -4.26380        4.92480
C         -1.51830       -0.69530        4.33840
C         -0.74070       -0.08770        5.35680
C         -0.13430       -0.88380        6.34720
C          0.66210       -0.30730        7.41700
S          1.97450        0.78810        7.09100
C          2.39290        0.91530        8.76580
C          3.49610        1.80570        9.22060
C          3.00960        3.24880        9.37300
C          1.54760        0.15980        9.52140
C          0.57230       -0.54110        8.76150
Cl        -0.63730       -1.50970        9.49260
Cl         1.63840        0.04380       11.23070
C         -0.28380       -2.26110        6.22870
S          0.52740       -3.46780        7.19020
C         -0.67060        1.31760        5.19680
C         -1.32730        1.77540        4.08920
S         -2.13510        0.48480        3.22140
C         -1.33700        3.09370        3.55210
S         -1.87020        3.35510        1.91210
C         -1.42730        5.01870        2.01240
C         -1.43420        5.97840        0.97800
C         -0.87340        7.22560        1.22110
O         -0.39100        7.61820        2.40970
C         -0.50230        6.76900        3.57370
C          0.89370        6.79110        4.22740
C          1.94490        6.09490        3.37150
C         -1.53810        7.41690        4.52010
C         -2.93870        7.46500        3.92130
C         -0.92140        5.35680        3.25510
C         -0.87300        4.26070        4.12240
C         -0.81530        8.02620        0.07040
C         -1.32730        7.39530       -1.04390
S         -1.91200        5.79850       -0.67010
C         -1.35270        7.85890       -2.38950
C         -0.84750        9.02430       -2.89480
C         -0.94210        9.11640       -4.30410
C         -0.45460       10.13210       -5.14850
C          0.31060       11.24880       -4.61960
S         -0.11110       12.89570       -4.98230
C          1.20720       13.52070       -4.05170
C          1.47750       14.98300       -3.98070
C          2.31920       15.43700       -5.17580
C          1.92960       12.50050       -3.50880
Cl         3.32160       12.72820       -2.53090
C          1.42200       11.21160       -3.82360
Cl         2.19640        9.76600       -3.31350
C         -0.70570        9.99950       -6.50630
C         -1.38630        8.88870       -7.06290
C         -1.81570        7.84280       -6.22770
C         -2.42470        6.64200       -6.77370
S         -3.93940        6.03610       -6.17370
C         -3.92210        4.69220       -7.26230
C         -4.99590        3.66120       -7.23540
C         -4.64550        2.53860       -6.25550
C         -2.79620        4.71770       -8.03010
C         -1.94700        5.82360       -7.76010
Cl        -0.43650        6.03850       -8.54640
Cl        -2.42360        3.53770       -9.21910
C         -1.59780        7.99340       -4.86570
S         -2.02220        6.83260       -3.64350
C         -1.52280        8.99840       -8.46650
C         -0.93050       10.11120       -8.98920
S         -0.19600       11.11160       -7.74720
C         -0.84250       10.48570      -10.35660
S         -1.54770        9.48040      -11.59720
C         -0.96600       10.55080      -12.81880
C         -1.18980       10.48600      -14.21670
C         -0.85840       11.58790      -14.98560
O         -0.31160       12.71050      -14.48160
C          0.39550       12.61440      -13.22460
C          0.35900       14.03130      -12.63200
C          0.98870       15.08530      -13.53500
C          1.82170       12.11340      -13.55220
C          2.76560       12.05720      -12.35980
C         -0.26940       11.62560      -12.29440
C         -0.20870       11.58250      -10.89750
C         -1.21530       11.42920      -16.34290
C         -1.79130       10.22000      -16.58030
S         -1.92210        9.24340      -15.17120
H          2.29210      -21.05130        3.09440
H          6.50110      -19.59090        4.94620
H          5.65650      -19.05960        6.40260
H          8.02870      -18.71360        6.75050
H          8.19930      -17.82860        5.23720
H          7.27430      -17.12710        6.57030
H          6.87490      -16.56410        3.82760
H          5.32830      -16.53290        2.98550
H          6.97310      -17.71190        1.61400
H          5.74720      -18.86130        2.14470
H          7.33690      -18.83900        2.91650
H          4.72790      -20.56530        3.87720
H          4.47270      -14.09640        6.35630
H          3.50820      -11.95030        6.92780
H          7.52460       -9.30030        9.76310
H          7.63950      -10.07520        8.17050
H          7.55910       -7.05960        8.67240
H          7.66620       -7.82680        7.08520
H          8.99480       -7.99350        8.23910
H         -4.90700       -8.33500        2.25580
H         -4.58010       -9.78840        1.31600
H         -2.92770       -7.20810        1.26260
H         -4.04750       -7.74480        0.00870
H         -2.56430       -8.65430        0.31830
H         -1.39790       -7.03870        5.28160
H         -1.37900       -4.89900        4.46030
H         -4.52100       -4.50060       -0.47100
H         -3.18700       -3.44640       -0.97850
H         -5.36110       -2.51950       -1.73250
H         -4.61160       -1.44190       -0.54870
H         -5.94580       -2.49400       -0.06580
H          3.86490        1.44090       10.18080
H          4.31150        1.77240        8.49580
H          2.64530        3.62620        8.42020
H          2.20300        3.29950       10.10000
H          3.82410        3.88360        9.71130
H         -0.12010        1.96140        5.85650
H          1.17290        7.83660        4.36630
H          0.83540        6.31900        5.20820
H          1.98900        6.55160        2.38560
H          1.71260        5.03850        3.25460
H          2.92360        6.18360        3.83610
H         -1.55530        6.84920        5.45160
H         -1.20170        8.43170        4.73950
H         -3.30640        6.46230        3.71370
H         -3.62310        7.94450        4.61660
H         -2.93930        8.03370        2.99420
H         -0.51110        4.30500        5.13290
H         -0.39800        9.01500        0.06210
H         -0.41710        9.79150       -2.27930
H          2.01250       15.19720       -3.05370
H          0.53170       15.52720       -3.97460
H          2.50900       16.50520       -5.11540
H          3.27180       14.91340       -5.18560
H          1.79670       15.22540       -6.10570
H         -5.93620        4.12650       -6.93590
H         -5.11220        3.24670       -8.23880
H         -5.43980        1.79720       -6.23810
H         -3.72080        2.05240       -6.55570
H         -4.51780        2.93930       -5.25280
H         -2.04410        8.28250       -9.07540
H          0.86020       14.02480      -11.66520
H         -0.69100       14.28290      -12.46660
H          0.55780       15.03010      -14.53050
H          2.06420       14.94860      -13.60950
H          0.79940       16.07590      -13.12830
H          1.72170       11.11130      -13.97990
H          2.23430       12.75990      -14.32810
H          2.95220       13.04960      -11.95820
H          2.35500       11.43270      -11.57000
H          3.71750       11.63220      -12.66910
H          0.27970       12.31270      -10.27780
H         -1.04720       12.18160      -17.09020
H         -2.14460        9.83300      -17.51490
