114

C          0.67330       -5.60620        6.74520
S          1.35670       -6.24350        8.18830
C          2.78670       -5.35170        7.94520
C          2.75080       -4.58990        6.80420
C          3.84620       -3.78350        6.45330
N          4.76690       -3.13980        6.21370
C          1.50900       -4.73700        6.09340
N          1.15480       -4.11520        4.92440
C          1.92860       -3.29030        4.15390
C          1.51320       -2.76210        2.98830
C          2.32080       -1.91810        2.16880
S          1.70200       -1.39000        0.62560
C          3.17130       -0.53830        0.30610
C          3.53220        0.17080       -0.86110
C          4.82890        0.64420       -0.98770
O          5.78420        0.44200       -0.06180
C          5.39640        0.09130        1.28930
C          6.54950       -0.77230        1.82060
C          6.68580       -2.08270        1.05430
C          5.28870        1.43450        2.05330
C          4.88580        1.32920        3.51750
C          4.08040       -0.64550        1.34180
C          3.59280       -1.43440        2.39100
C          5.05530        1.29740       -2.20950
C          3.94500        1.31790       -3.02310
S          2.58190        0.51960       -2.25800
C          3.78710        1.98050       -4.27210
S          4.89140        3.23410       -4.77640
C          3.94370        3.57970       -6.15620
C          2.84180        2.77060       -6.25840
C          1.92920        2.84990       -7.32390
N          1.18800        2.92040       -8.19670
C          2.75190        1.83230       -5.18330
N          1.81920        0.83210       -5.08190
C          0.48880        0.90830       -5.37410
C         -0.35690       -0.13240       -5.24320
C          0.00160       -1.49250       -4.96090
S          1.52730       -2.20810       -5.43340
C          1.01660       -3.76470       -4.94940
C         -0.25210       -3.76170       -4.43080
C         -0.85760       -4.92510       -3.92830
N         -1.32520       -5.88980       -3.51830
C         -0.83570       -2.45540       -4.42420
N         -2.04180       -2.13570       -3.85310
C         -3.08760       -2.98220       -3.61270
C         -4.01220       -2.77490       -2.65220
C         -3.94670       -1.80130       -1.60980
S         -2.45450       -0.99880       -1.15400
C         -3.23720       -0.24000        0.18600
C         -2.69210        0.71040        1.07910
C         -3.57480        1.46770        1.83780
O         -4.91480        1.30020        1.77620
C         -5.39240       -0.01610        1.41700
C         -6.86460        0.22730        1.03790
C         -7.80550       -0.96660        1.15190
C         -5.20500       -0.94880        2.63590
C         -5.78610       -0.38070        3.92570
C         -4.57760       -0.57180        0.26850
C         -4.96340       -1.45800       -0.74470
C         -2.93020        2.44220        2.60340
C         -1.55650        2.42650        2.45010
S         -1.05300        1.17870        1.34030
C         -0.63430        3.22950        3.17690
S         -1.26790        4.24750        4.45780
C          0.29960        4.70530        4.95730
C          1.27000        4.13530        4.18060
C          2.64700        4.33730        4.35800
N          3.78300        4.46580        4.46350
C          0.74770        3.30300        3.13440
N          1.59510        2.64410        2.26270
C          1.53360        2.69650        0.88080
C          0.65530        3.36590        0.14450
H         -0.31140       -5.90430        6.44670
H          3.59640       -5.41740        8.64490
H          0.23390       -4.33560        4.57010
H          2.91210       -3.08540        4.53950
H          0.52290       -2.98790        2.61560
H          6.38580       -0.97730        2.87720
H          7.46910       -0.19420        1.71820
H          5.79160       -2.69180        1.16870
H          7.53750       -2.64550        1.42750
H          6.83750       -1.88420       -0.00400
H          6.25800        1.93070        1.97540
H          4.56540        2.05560        1.51480
H          3.92520        0.82890        3.62760
H          5.62650        0.77520        4.08690
H          4.81200        2.32670        3.94650
H          4.14890       -1.65250        3.28350
H          5.99950        1.72870       -2.48630
H          4.24470        4.34990       -6.83820
H          2.11040        0.01090       -4.56540
H          0.12830        1.87590       -5.68810
H         -1.41000        0.04820       -5.40150
H          1.67440       -4.60450       -5.05290
H         -2.12210       -1.19030       -3.50340
H         -3.16490       -3.83290       -4.27420
H         -4.87580       -3.42190       -2.62840
H         -6.88070        0.60750        0.01410
H         -7.22360        1.02850        1.68630
H         -8.77490       -0.69360        0.74070
H         -7.95200       -1.26200        2.18660
H         -7.43620       -1.82800        0.60350
H         -4.12970       -1.09810        2.77160
H         -5.64590       -1.91850        2.40540
H         -5.36020        0.59870        4.12890
H         -6.86520       -0.27540        3.86340
H         -5.55140       -1.03960        4.75880
H         -5.95690       -1.84520       -0.87090
H         -3.44660        3.13700        3.24030
H          0.43320        5.37590        5.78260
H          2.52110        2.48430        2.63810
H          2.30210        2.09670        0.41490
H         -0.10890        3.98750        0.57630
H          0.68880        3.30730       -0.92660
