85

C          2.40800       11.01340        2.33470
S          1.01800        9.99590        2.13960
C          1.98370        8.55700        1.84130
C          3.30870        8.90370        1.90190
C          3.54060       10.28370        2.17880
N          4.90500       10.45590        2.20240
C          5.54130        9.25090        1.95310
O          6.72810        9.06020        1.90370
N          4.54050        8.31000        1.77200
C          1.37520        7.29780        1.59570
S          2.34840        5.87030        1.33260
C          0.92200        4.90820        1.14230
C          0.83070        3.52230        0.89400
C         -0.42630        2.93640        0.83120
O         -1.57970        3.60080        0.98970
C         -1.59920        5.03860        1.12990
C         -2.29320        5.60500       -0.12830
C         -1.49520        5.35220       -1.40180
C         -2.45560        5.32490        2.38000
C         -1.79280        4.83180        3.66050
C         -0.23230        5.65440        1.27720
C          0.03190        7.00540        1.53160
C         -0.37230        1.55290        0.60620
C          0.91570        1.07830        0.49100
S          2.08990        2.36060        0.66140
C          1.33550       -0.25610        0.27530
S          0.17930       -1.57570        0.17130
C          1.42440       -2.79470       -0.05650
C          2.65140       -2.17470       -0.06470
C          2.60230       -0.77170        0.12710
N          3.89630       -0.31200        0.07560
C          4.76130       -1.36210       -0.17360
O          5.95520       -1.30650       -0.30290
N          3.97760       -2.50830       -0.22960
C          1.10460       -4.17400       -0.17070
S         -0.46710       -4.71570       -0.73400
C         -0.05250       -6.41680       -0.59730
C          1.24160       -6.51920       -0.14700
C          1.87710       -5.27720        0.10370
N          3.14450       -5.56180        0.56540
C          3.33430       -6.93380        0.60790
O          4.32670       -7.51340        0.96050
N          2.15260       -7.50580        0.16330
C         -0.98570       -7.44160       -0.91100
S         -2.31540       -7.16040       -2.02540
C         -2.91880       -8.80710       -1.89920
C         -2.11170       -9.50090       -1.03280
C         -1.04680       -8.74380       -0.47920
N         -0.37290       -9.57900        0.38390
C         -0.99080      -10.82390        0.41390
O         -0.66260      -11.76700        1.08310
N         -2.03830      -10.76020       -0.48610
C         -4.06210       -9.23640       -2.62210
S         -4.65400      -10.88970       -2.51490
C         -5.96430      -10.60330       -3.61400
C         -5.94040       -9.31320       -4.03140
C         -4.87510       -8.54100       -3.47850
N         -4.98970       -7.27380       -3.99380
C         -6.07870       -7.20730       -4.84830
O         -6.45710       -6.24490       -5.46190
N         -6.64690       -8.47160       -4.85720
H          2.27700       12.05360        2.54620
H          5.40210       11.31240        2.37170
H          4.72370        7.34170        1.57290
H         -2.44050        6.67690        0.00860
H         -3.27160        5.12900       -0.21140
H         -2.03300        5.74350       -2.26150
H         -1.34160        4.28580       -1.55110
H         -0.52370        5.84000       -1.35350
H         -3.41230        4.81770        2.24680
H         -2.64000        6.39730        2.44470
H         -1.59390        3.76450        3.59600
H         -2.44600        5.00910        4.51090
H         -0.85250        5.35110        3.83420
H         -0.71990        7.76150        1.66760
H         -1.24020        0.92440        0.53180
H          4.19760        0.64340        0.16210
H          4.34300       -3.39350       -0.53530
H          3.80450       -4.91300        0.95790
H          2.06550       -8.48930       -0.02520
H          0.33140       -9.31520        1.05110
H         -2.66210      -11.52730       -0.66820
H         -6.63380      -11.40110       -3.85640
H         -4.38990       -6.49070       -3.79860
H         -7.46170       -8.70140       -5.39840
