
  xtb     03012220293D
 energy: -176.484192199295 gnorm: 0.000444457233 xtb: 6.4.1 (unknown)
 75 87  0     0  0            999 V2000
    5.4887   -1.2833   11.7228 C   0  0  0  0  0  0  0  0  0  0  0  0
    4.5259   -1.7568   10.3672 S   0  0  0  0  0  0  0  0  0  0  0  0
    4.8921   -0.3112    9.4482 C   0  0  0  0  0  0  0  0  0  0  0  0
    5.7267    0.4698   10.2028 C   0  0  0  0  0  0  0  0  0  0  0  0
    6.0538   -0.0784   11.4671 C   0  0  0  0  0  0  0  0  0  0  0  0
    6.8798    0.8008   12.0951 O   0  0  0  0  0  0  0  0  0  0  0  0
    7.0579    1.8580   11.2475 C   0  0  0  0  0  0  0  0  0  0  0  0
    7.7241    2.8036   11.4868 O   0  0  0  0  0  0  0  0  0  0  0  0
    6.3596    1.6668   10.0910 O   0  0  0  0  0  0  0  0  0  0  0  0
    4.3646   -0.0770    8.1486 C   0  0  0  0  0  0  0  0  0  0  0  0
    3.2953   -1.2151    7.3492 S   0  0  0  0  0  0  0  0  0  0  0  0
    3.1287   -0.2292    5.9083 C   0  0  0  0  0  0  0  0  0  0  0  0
    3.8773    0.9072    6.0816 C   0  0  0  0  0  0  0  0  0  0  0  0
    4.5562    0.9928    7.3103 C   0  0  0  0  0  0  0  0  0  0  0  0
    5.2428    2.1666    7.3239 O   0  0  0  0  0  0  0  0  0  0  0  0
    4.9949    2.7886    6.1371 C   0  0  0  0  0  0  0  0  0  0  0  0
    5.4345    3.8362    5.8130 O   0  0  0  0  0  0  0  0  0  0  0  0
    4.1591    2.0286    5.3648 O   0  0  0  0  0  0  0  0  0  0  0  0
    2.3311   -0.6287    4.8104 C   0  0  0  0  0  0  0  0  0  0  0  0
    2.1636    0.3527    3.3625 S   0  0  0  0  0  0  0  0  0  0  0  0
    1.0833   -0.7848    2.5678 C   0  0  0  0  0  0  0  0  0  0  0  0
    0.8957   -1.8472    3.4192 C   0  0  0  0  0  0  0  0  0  0  0  0
    1.5768   -1.7627    4.6427 C   0  0  0  0  0  0  0  0  0  0  0  0
    1.2898   -2.8794    5.3638 O   0  0  0  0  0  0  0  0  0  0  0  0
    0.4475   -3.6375    4.5970 C   0  0  0  0  0  0  0  0  0  0  0  0
    0.0002   -4.6813    4.9239 O   0  0  0  0  0  0  0  0  0  0  0  0
    0.1987   -3.0195    3.4089 O   0  0  0  0  0  0  0  0  0  0  0  0
    0.5493   -0.5578    1.2789 C   0  0  0  0  0  0  0  0  0  0  0  0
   -0.5430   -1.7102    0.5599 S   0  0  0  0  0  0  0  0  0  0  0  0
   -0.6833   -0.7113   -0.8406 C   0  0  0  0  0  0  0  0  0  0  0  0
   -1.3976   -0.9829   -2.0269 C   0  0  0  0  0  0  0  0  0  0  0  0
   -1.1829   -0.1586   -3.1315 C   0  0  0  0  0  0  0  0  0  0  0  0
   -0.3486    0.8892   -3.1204 O   0  0  0  0  0  0  0  0  0  0  0  0
    0.0052    1.4853   -1.8503 C   0  0  0  0  0  0  0  0  0  0  0  0
   -1.1144    2.4972   -1.5126 C   0  0  0  0  0  0  0  0  0  0  0  0
   -0.8641    3.3343   -0.2667 C   0  0  0  0  0  0  0  0  0  0  0  0
    1.3794    2.1340   -2.0802 C   0  0  0  0  0  0  0  0  0  0  0  0
    1.3832    3.1692   -3.1990 C   0  0  0  0  0  0  0  0  0  0  0  0
    0.0783    0.4490   -0.7532 C   0  0  0  0  0  0  0  0  0  0  0  0
    0.7765    0.5259    0.4500 C   0  0  0  0  0  0  0  0  0  0  0  0
   -1.8773   -0.5896   -4.2673 C   0  0  0  0  0  0  0  0  0  0  0  0
   -2.6241   -1.7255   -4.0283 C   0  0  0  0  0  0  0  0  0  0  0  0
   -2.4764   -2.2831   -2.3852 S   0  0  0  0  0  0  0  0  0  0  0  0
   -3.4512   -2.4251   -4.9402 C   0  0  0  0  0  0  0  0  0  0  0  0
   -3.6845   -1.9114   -6.6028 S   0  0  0  0  0  0  0  0  0  0  0  0
   -4.7648   -3.2359   -6.9963 C   0  0  0  0  0  0  0  0  0  0  0  0
   -4.9104   -4.0116   -5.8740 C   0  0  0  0  0  0  0  0  0  0  0  0
   -4.1919   -3.5648   -4.7507 C   0  0  0  0  0  0  0  0  0  0  0  0
   -4.4357   -4.4261   -3.7261 O   0  0  0  0  0  0  0  0  0  0  0  0
   -5.2860   -5.3820   -4.2081 C   0  0  0  0  0  0  0  0  0  0  0  0
   -5.7038   -6.2880   -3.5761 O   0  0  0  0  0  0  0  0  0  0  0  0
   -5.5823   -5.1377   -5.5173 O   0  0  0  0  0  0  0  0  0  0  0  0
   -5.3427   -3.3986   -8.2845 C   0  0  0  0  0  0  0  0  0  0  0  0
   -5.0804   -2.2616   -9.5911 S   0  0  0  0  0  0  0  0  0  0  0  0
   -6.0661   -3.1362  -10.7114 C   0  0  0  0  0  0  0  0  0  0  0  0
   -6.5620   -4.2381  -10.0985 C   0  0  0  0  0  0  0  0  0  0  0  0
   -6.1646   -4.3914   -8.7478 C   0  0  0  0  0  0  0  0  0  0  0  0
   -6.7314   -5.5317   -8.2733 O   0  0  0  0  0  0  0  0  0  0  0  0
   -7.4577   -6.0705   -9.2939 C   0  0  0  0  0  0  0  0  0  0  0  0
   -8.0824   -7.0708   -9.2263 O   0  0  0  0  0  0  0  0  0  0  0  0
   -7.3638   -5.2904  -10.4131 O   0  0  0  0  0  0  0  0  0  0  0  0
    5.5656   -1.9106   12.5854 H   0  0  0  0  0  0  0  0  0  0  0  0
   -1.2458    3.1461   -2.3793 H   0  0  0  0  0  0  0  0  0  0  0  0
   -2.0396    1.9274   -1.3856 H   0  0  0  0  0  0  0  0  0  0  0  0
   -1.7202    3.9798   -0.0873 H   0  0  0  0  0  0  0  0  0  0  0  0
   -0.7269    2.7014    0.6067 H   0  0  0  0  0  0  0  0  0  0  0  0
    0.0140    3.9629   -0.3842 H   0  0  0  0  0  0  0  0  0  0  0  0
    2.0754    1.3313   -2.3332 H   0  0  0  0  0  0  0  0  0  0  0  0
    1.7163    2.5916   -1.1516 H   0  0  0  0  0  0  0  0  0  0  0  0
    0.9547    2.7463   -4.1029 H   0  0  0  0  0  0  0  0  0  0  0  0
    2.4052    3.4743   -3.4088 H   0  0  0  0  0  0  0  0  0  0  0  0
    0.8160    4.0530   -2.9205 H   0  0  0  0  0  0  0  0  0  0  0  0
    1.4326    1.3261    0.7398 H   0  0  0  0  0  0  0  0  0  0  0  0
   -1.8357   -0.1006   -5.2226 H   0  0  0  0  0  0  0  0  0  0  0  0
   -6.2033   -2.7830  -11.7112 H   0  0  0  0  0  0  0  0  0  0  0  0
  1  2  1  0  0  0  0
  2  3  1  0  0  0  0
  3  4  2  0  0  0  0
  4  5  1  0  0  0  0
  5  6  1  0  0  0  0
  6  7  1  0  0  0  0
  7  8  2  0  0  0  0
  7  9  1  0  0  0  0
  3 10  1  0  0  0  0
 10 11  1  0  0  0  0
 11 12  1  0  0  0  0
 12 13  2  0  0  0  0
 13 14  1  0  0  0  0
 14 15  1  0  0  0  0
 15 16  1  0  0  0  0
 16 17  2  0  0  0  0
 16 18  1  0  0  0  0
 12 19  1  0  0  0  0
 19 20  1  0  0  0  0
 20 21  1  0  0  0  0
 21 22  2  0  0  0  0
 22 23  1  0  0  0  0
 23 24  1  0  0  0  0
 24 25  1  0  0  0  0
 25 26  2  0  0  0  0
 25 27  1  0  0  0  0
 21 28  1  0  0  0  0
 28 29  1  0  0  0  0
 29 30  1  0  0  0  0
 30 31  1  0  0  0  0
 31 32  2  0  0  0  0
 32 33  1  0  0  0  0
 33 34  1  0  0  0  0
 34 35  1  0  0  0  0
 35 36  1  0  0  0  0
 34 37  1  0  0  0  0
 37 38  1  0  0  0  0
 34 39  1  0  0  0  0
 39 40  1  0  0  0  0
 32 41  1  0  0  0  0
 41 42  2  0  0  0  0
 42 43  1  0  0  0  0
 42 44  1  0  0  0  0
 44 45  1  0  0  0  0
 45 46  1  0  0  0  0
 46 47  2  0  0  0  0
 47 48  1  0  0  0  0
 48 49  1  0  0  0  0
 49 50  1  0  0  0  0
 50 51  2  0  0  0  0
 50 52  1  0  0  0  0
 46 53  1  0  0  0  0
 53 54  1  0  0  0  0
 54 55  1  0  0  0  0
 55 56  2  0  0  0  0
 56 57  1  0  0  0  0
 57 58  1  0  0  0  0
 58 59  1  0  0  0  0
 59 60  2  0  0  0  0
 59 61  1  0  0  0  0
  5  1  2  0  0  0  0
 14 10  2  0  0  0  0
 23 19  2  0  0  0  0
 40 28  2  0  0  0  0
 48 44  2  0  0  0  0
 57 53  2  0  0  0  0
  9  4  1  0  0  0  0
 18 13  1  0  0  0  0
 27 22  1  0  0  0  0
 39 30  2  0  0  0  0
 52 47  1  0  0  0  0
 61 56  1  0  0  0  0
 43 31  1  0  0  0  0
  1 62  1  0  0  0  0
 35 63  1  0  0  0  0
 35 64  1  0  0  0  0
 36 65  1  0  0  0  0
 36 66  1  0  0  0  0
 36 67  1  0  0  0  0
 37 68  1  0  0  0  0
 37 69  1  0  0  0  0
 38 70  1  0  0  0  0
 38 71  1  0  0  0  0
 38 72  1  0  0  0  0
 40 73  1  0  0  0  0
 41 74  1  0  0  0  0
 55 75  1  0  0  0  0
M  END
