212

C          3.09970       -5.45680        9.10640
C          2.83220       -4.21150        9.54880
C          1.83230       -3.55510        8.77480
C          1.35920       -2.24140        8.91410
C          1.89900       -1.33540        9.91550
S          3.60400       -1.00560       10.00560
C          3.39920        0.11500       11.30820
C          4.55840        0.85920       11.87280
C          4.89970        2.07440       11.00710
C          2.08120        0.22130       11.63700
Cl         1.48490        1.23580       12.88650
C          1.22810       -0.59990       10.85160
Cl        -0.46140       -0.69930       11.12450
C          0.39450       -1.82060        8.00990
C         -0.11410       -2.65090        6.98240
C          0.37920       -3.95850        6.82340
C          0.01630       -4.75300        5.66390
S          0.12100       -4.02280        4.08630
C         -0.20150       -5.51180        3.27430
C         -0.24770       -5.58200        1.78860
C         -1.65780       -5.30260        1.26430
C         -0.42260       -6.50110        4.18470
C         -0.29710       -6.07850        5.53730
Cl        -0.59520       -7.13860        6.84800
Cl        -0.76780       -8.12500        3.75300
C          1.33840       -4.38480        7.73940
S          2.15020       -5.92310        7.74120
C         -1.07370       -1.97520        6.18870
C         -1.24810       -0.66670        6.53440
S         -0.25480       -0.20910        7.90540
C         -2.04790        0.30890        5.87800
S         -3.20950       -0.15330        4.66060
C         -3.53030        1.50850        4.31160
C         -4.39850        2.03990        3.33120
C         -4.52580        3.41790        3.23310
O         -3.95990        4.27790        4.09970
C         -2.78720        3.85680        4.83230
C         -2.83070        4.63890        6.15480
C         -2.85340        6.15110        5.96790
C         -1.57880        4.21380        3.93170
C         -0.20680        4.03140        4.56390
C         -2.78030        2.36850        5.09610
C         -1.96330        1.67840        5.99780
C         -5.33830        3.81680        2.16010
C         -5.85510        2.75330        1.45930
S         -5.33770        1.22540        2.12890
C         -6.55730        2.76420        0.21740
S         -6.11760        3.94220       -0.99710
C         -7.09090        3.12160       -2.16690
C         -6.97600        3.21120       -3.57450
C         -7.40890        2.11910       -4.32050
O         -8.17260        1.13510       -3.82520
C         -8.73940        1.29210       -2.50820
C         -8.94190       -0.13670       -1.97730
C         -9.82490       -1.00710       -2.86240
C        -10.07410        2.09030       -2.58970
C        -10.69930        2.13070       -3.98080
C         -7.78350        2.05300       -1.61880
C         -7.45300        1.84330       -0.27490
C         -6.81900        2.05900       -5.59180
C         -5.92670        3.08320       -5.81960
S         -5.89600        4.21390       -4.48560
C         -4.86790        3.10360       -6.76870
C         -3.82390        3.98530       -6.81830
C         -2.67570        3.46430       -7.45910
C         -1.36950        3.99900       -7.41950
C         -1.16620        5.39400       -7.09670
S          0.06710        5.94230       -5.99920
C         -0.39010        7.60030       -6.18680
C          0.28400        8.68110       -5.41650
C         -0.40120        8.89690       -4.06470
C         -1.43850        7.70920       -7.05160
Cl        -2.16070        9.20180       -7.49360
C         -1.88020        6.46500       -7.57100
Cl        -3.12990        6.35380       -8.74100
C         -0.33510        3.08940       -7.59770
C         -0.54460        1.73970       -7.98000
C         -1.84700        1.28900       -8.27300
C         -2.13760       -0.04060       -8.77590
S         -1.47690       -1.48900       -8.07540
C         -2.35780       -2.51440       -9.15560
C         -2.19320       -3.99330       -9.11560
C         -0.89310       -4.41940       -9.80130
C         -3.10760       -1.76450      -10.01120
C         -2.99580       -0.36580       -9.79210
Cl        -3.80530        0.78330      -10.77210
Cl        -4.10730       -2.42400      -11.23980
C         -2.88520        2.14910       -7.93370
S         -4.54320        1.65610       -7.71160
C          0.63330        0.96660       -7.85380
C          1.69440        1.66350       -7.35020
S          1.33780        3.37930       -7.20180
C          2.83680        1.13270       -6.68940
S          2.84660       -0.55540       -6.23190
C          4.14010       -0.26440       -5.12300
C          4.55680       -1.10720       -4.06610
C          5.27140       -0.52910       -3.02440
O          5.78150        0.70980       -3.05490
C          5.71170        1.49760       -4.26540
C          5.45140        2.94460       -3.79540
C          6.44140        3.43950       -2.74710
C          7.06380        1.39190       -5.00410
C          7.37060       -0.00010       -5.54390
C          4.58650        1.04610       -5.16430
C          3.84270        1.82790       -6.05480
C          5.32610       -1.34760       -1.88450
C          4.68110       -2.54930       -2.06070
S          4.01670       -2.69920       -3.66360
C          4.41990       -3.54540       -1.06920
C          4.22460       -3.32580        0.26280
C          3.87750       -4.49380        0.98730
C          3.53440       -4.60260        2.34880
C          3.29450       -3.41770        3.15310
S          2.29620       -2.14880        2.48740
C          2.27030       -1.26490        3.97180
C          1.51540        0.01200        4.11060
C          0.26330        0.03040        3.24170
C          3.02370       -1.90680        4.90770
Cl         3.27300       -1.31730        6.50010
C          3.60190       -3.12370        4.45380
Cl         4.65160       -4.03170        5.45580
C          3.29820       -5.88910        2.83060
C          3.32000       -7.03810        2.00190
C          3.57680       -6.91280        0.62840
C          3.52150       -8.05860       -0.26500
S          4.85270       -8.44280       -1.31530
C          4.03640       -9.81690       -1.97750
C          4.65600      -10.63340       -3.05700
C          4.46630       -9.96550       -4.42100
C          2.80100       -9.94980       -1.41740
C          2.50840       -8.95910       -0.44190
Cl         0.99500       -8.88680        0.36310
Cl         1.68870      -11.19070       -1.83090
C          3.87600       -5.64090        0.15830
S          4.21250       -5.22910       -1.49990
C          3.03440       -8.22550        2.73690
C          2.77410       -7.98550        4.03730
S          2.88670       -6.31750        4.46460
H          3.80520       -6.16000        9.50380
H          3.32020       -3.75990       10.39270
H          4.30570        1.18700       12.88270
H          5.42470        0.19710       11.92510
H          5.74660        2.60840       11.42940
H          5.15280        1.75820        9.99780
H          4.05020        2.75090       10.95660
H          0.44950       -4.85160        1.37220
H          0.06760       -6.57920        1.47690
H         -1.67030       -5.36740        0.17980
H         -2.35940       -6.02970        1.66540
H         -1.98020       -4.30660        1.55910
H         -1.61660       -2.43320        5.38210
H         -3.73810        4.33020        6.67880
H         -1.97660        4.35100        6.76620
H         -3.65210        6.43040        5.28670
H         -3.02740        6.63560        6.92560
H         -1.90950        6.51350        5.56950
H         -1.65080        3.58880        3.03580
H         -1.70610        5.25010        3.61480
H          0.56170        4.28430        3.83680
H         -0.05210        3.00140        4.87530
H         -0.08250        4.67900        5.42720
H         -1.30730        2.14010        6.71340
H         -5.53630        4.84260        1.91050
H         -9.37490       -0.07360       -0.97820
H         -7.95550       -0.59850       -1.89450
H        -10.84990       -0.64670       -2.86910
H         -9.82590       -2.02680       -2.48450
H         -9.44420       -1.01490       -3.87950
H        -10.77680        1.64680       -1.88320
H         -9.88990        3.11750       -2.26490
H        -10.07830        2.70040       -4.66820
H        -11.67270        2.61270       -3.92400
H        -10.82690        1.13210       -4.38620
H         -7.83640        1.04600        0.33500
H         -6.97880        1.25060       -6.28140
H         -3.83590        4.92300       -6.29170
H          0.24260        9.60460       -5.99710
H          1.32940        8.41250       -5.25670
H          0.09990        9.68870       -3.51440
H         -1.44090        9.17800       -4.21070
H         -0.36720        7.98420       -3.47480
H         -3.04420       -4.45150       -9.62220
H         -2.18070       -4.32960       -8.07710
H         -0.03830       -3.97400       -9.29760
H         -0.89200       -4.09870      -10.84000
H         -0.79210       -5.50090       -9.77040
H          0.67570       -0.09260       -8.02900
H          5.47950        3.60420       -4.66250
H          4.44360        2.97660       -3.37530
H          6.50470        2.73110       -1.92640
H          7.43230        3.57380       -3.17200
H          6.10770        4.39750       -2.35600
H          7.84970        1.67800       -4.30490
H          7.05220        2.10840       -5.82750
H          6.62060       -0.31680       -6.26530
H          7.40600       -0.72860       -4.73720
H          8.33880        0.00550       -6.03890
H          3.98650        2.88070       -6.21620
H          5.81560       -1.06030       -0.97330
H          4.30650       -2.35150        0.70640
H          2.16420        0.84920        3.83290
H          1.25130        0.13720        5.16310
H         -0.29040        0.95260        3.39670
H          0.53180       -0.04130        2.19040
H         -0.37880       -0.81030        3.49070
H          4.18920      -11.62000       -3.06230
H          5.72240      -10.75140       -2.85670
H          3.40780       -9.84980       -4.63980
H          4.91930      -10.57270       -5.20000
H          4.93130       -8.98250       -4.42680
H          3.03910       -9.20730        2.30130
H          2.53090       -8.69160        4.80690
