240

C          6.14680        2.39130       16.99310
C          6.43150        3.42930       16.18090
C          5.46000        3.61000       15.15340
C          5.41720        4.60050       14.15970
C          6.47060        5.59350       14.02050
S          8.13360        5.11880       13.83550
C          8.66610        6.75680       13.67080
C         10.09440        7.08230       13.40570
C         10.38220        7.08210       11.90220
C          7.60570        7.60880       13.75290
Cl         7.74090        9.31520       13.63790
C          6.36020        6.95440       13.95270
Cl         4.89330        7.81380       14.16680
C          4.33990        4.56880       13.28270
C          3.31170        3.59730       13.36120
C          3.33760        2.62660       14.37630
C          2.27430        1.64460       14.49830
S          2.61490       -0.05790       14.58670
C          0.93720       -0.46770       14.69010
C          0.49120       -1.88720       14.74070
C          0.41380       -2.48750       13.33480
C          0.17080        0.65900       14.65420
C          0.92410        1.85860       14.54950
Cl         0.19290        3.41180       14.57070
Cl        -1.54350        0.65400       14.73510
C          4.42480        2.64980       15.24140
S          4.68630        1.56360       16.57700
C          2.38740        3.72180       12.29480
C          2.67380        4.74690       11.44370
S          4.11660        5.61980       11.91400
C          1.96940        5.10760       10.25810
C          2.28760        6.08010        9.35810
C          1.43110        6.10840        8.22990
C          1.51200        6.94060        7.09930
C          2.58810        7.90510        6.94470
S          2.25880        9.57490        6.59260
C          3.94000        9.97950        6.55800
C          4.39340       11.38140        6.34480
C          4.45290       12.14400        7.67070
C          4.69920        8.87530        6.80880
Cl         6.41440        8.88410        6.85410
C          3.93740        7.69580        7.02320
Cl         4.66490        6.15980        7.26670
C          0.54750        6.76420        6.11640
C         -0.48410        5.80020        6.21930
C         -0.58120        4.98090        7.35900
C         -1.63790        3.99230        7.47790
S         -1.28180        2.34410        7.90630
C         -2.94030        1.86970        7.78740
C         -3.35930        0.45600        7.99280
C         -3.26400       -0.33690        6.68690
C         -3.71290        2.93540        7.43350
C         -2.98200        4.14060        7.26260
Cl        -3.75480        5.63280        6.90830
Cl        -5.41120        2.84860        7.21820
C          0.40270        5.13780        8.32550
S          0.54180        4.20620        9.78830
C         -1.24830        5.72160        5.03270
C         -0.83970        6.58730        4.06010
S          0.51350        7.56830        4.56980
C         -1.36910        6.59400        2.73140
C         -2.59730        6.11540        2.38030
C         -2.76100        5.94030        0.98620
C         -3.82330        5.30700        0.31330
C         -5.01590        4.85750        1.01020
S         -4.93780        3.94470        2.49130
C         -6.65760        3.81360        2.60350
C         -7.31150        3.17200        3.77660
C         -7.66060        4.22040        4.83630
C         -7.24690        4.44590        1.54980
Cl        -8.94490        4.53220        1.31890
C         -6.32340        5.03250        0.64400
Cl        -6.83560        5.94980       -0.70930
C         -3.64130        5.05870       -1.04180
C         -2.49560        5.48940       -1.75700
C         -1.46430        6.17440       -1.09430
C         -0.24380        6.54980       -1.79290
S          0.30960        8.19610       -1.82820
C          1.68470        7.79340       -2.79890
C          2.68110        8.82800       -3.18960
C          3.69800        9.05520       -2.06860
C          1.70940        6.45490       -3.05520
C          0.61640        5.74590       -2.48770
Cl         0.46290        4.03970       -2.61270
Cl         2.92170        5.67570       -3.98650
C         -1.61610        6.36870        0.27040
S         -0.38470        6.98390        1.33840
C         -2.48870        5.00610       -3.08720
C         -3.51560        4.15100       -3.35820
S         -4.64840        4.03420       -2.02560
C         -3.57760        3.22050       -4.43570
C         -4.42000        2.15400       -4.55450
C         -3.98630        1.19380       -5.49980
C         -4.55880       -0.05690       -5.79290
C         -5.81010       -0.48540       -5.19110
S         -6.07030       -0.42200       -3.47240
C         -7.67130       -1.06690       -3.60720
C         -8.53070       -1.23140       -2.40270
C         -8.86570        0.12230       -1.77400
C         -7.96990       -1.31490       -4.91300
Cl        -9.46890       -1.95230       -5.45270
C         -6.91660       -0.99490       -5.81250
Cl        -7.08100       -1.15660       -7.51030
C         -3.84470       -0.88930       -6.64660
C         -2.62430       -0.50440       -7.25420
C         -2.08820        0.77470       -7.01920
C         -0.83940        1.18530       -7.64130
S         -0.64910        1.11430       -9.37030
C          0.97080        1.71870       -9.29860
C          1.76090        1.95820      -10.53730
C          1.42300        3.32020      -11.14810
C          1.32560        1.96280       -8.00590
C          0.30770        1.65430       -7.06250
Cl         0.57040        1.77810       -5.37380
Cl         2.85710        2.57460       -7.53130
C         -2.77760        1.58700       -6.13080
S         -2.26090        3.15590       -5.58830
C         -2.01650       -1.57660       -7.94740
C         -2.71690       -2.74610       -7.86410
S         -4.21250       -2.55720       -6.97720
C         -2.29660       -4.02870       -8.32770
C         -1.10330       -4.33240       -8.91780
C         -0.92830       -5.71420       -9.16320
C          0.20550       -6.36300       -9.68840
C          1.33120       -5.59910      -10.19580
S          2.96020       -5.93430       -9.68870
C          3.60870       -4.65480      -10.65610
C          5.07490       -4.40590      -10.72110
C          5.74250       -5.34920      -11.72480
C          2.61090       -4.02430      -11.33790
Cl         2.86570       -2.70370      -12.40410
C          1.31880       -4.55310      -11.07840
Cl        -0.08790       -3.97270      -11.87550
C          0.19700       -7.74990       -9.67590
C         -0.90510       -8.51290       -9.21400
C         -2.04920       -7.86260       -8.71780
C         -3.17550       -8.60970       -8.18360
S         -4.79960       -8.31050       -8.72650
C         -5.46010       -9.49820       -7.65550
C         -6.91690       -9.80510       -7.64600
C         -7.27230      -10.81720       -8.73770
C         -4.46720      -10.08690       -6.93070
C         -3.17200       -9.58190       -7.22170
Cl        -1.77110      -10.09590       -6.37110
Cl        -4.73430      -11.31450       -5.76090
C         -2.03480       -6.47430       -8.71350
S         -3.28100       -5.45080       -8.05820
C         -0.67190       -9.90320       -9.33050
C          0.56660      -10.21220       -9.81900
S          1.49080       -8.77800      -10.22080
C          1.14500      -11.50460       -9.95950
S          2.70510      -11.71910      -10.70880
C          2.64450      -13.41550      -10.40260
C          3.62780      -14.39840      -10.67480
C          3.45850      -15.66220      -10.13730
O          2.41440      -16.02310       -9.37050
C          1.20760      -15.24160       -9.42540
C          0.32590      -15.78720      -10.57560
C         -0.05490      -17.25510      -10.43770
C          0.53250      -15.34470       -8.03720
C          0.88750      -16.59940       -7.24650
C          1.48510      -13.78940       -9.74830
C          0.63700      -12.70480       -9.50800
C          4.54220      -16.52240      -10.42440
C          5.49580      -15.90880      -11.17500
S          5.11370      -14.27500      -11.55180
H          6.70910        2.04260       17.83700
H          7.29480        4.05810       16.29710
H         10.73160        6.34620       13.89860
H         10.31260        8.06910       13.81860
H         11.42680        7.32090       11.72220
H          9.76340        7.82150       11.40030
H         10.16860        6.10420       11.47710
H          1.19260       -2.46580       15.34410
H         -0.49310       -1.92780       15.21070
H          1.39080       -2.45890       12.85830
H         -0.28790       -1.92570       12.72350
H          0.08070       -3.52040       13.38810
H          1.55310        3.06160       12.14230
H          3.11570        6.75000        9.50110
H          5.38530       11.36390        5.88910
H          3.70370       11.88490        5.66570
H          3.46970       12.17170        8.13430
H          4.78770       13.16350        7.50010
H          5.14590       11.65910        8.35350
H         -4.38980        0.44300        8.35300
H         -2.71870       -0.00480        8.74610
H         -3.57640       -1.36460        6.85090
H         -3.90490        0.10600        5.92880
H         -2.24060       -0.33670        6.31950
H         -2.02570        4.99880        4.87340
H         -3.34840        5.86940        3.10610
H         -8.22380        2.67210        3.44500
H         -6.63880        2.42900        4.20750
H         -6.76100        4.72630        5.17790
H         -8.13620        3.74380        5.68910
H         -8.34170        4.96100        4.42500
H          2.16550        9.76490       -3.40740
H          3.19740        8.49350       -4.09120
H          4.41860        9.81220       -2.36600
H          3.19370        9.38690       -1.16400
H          4.23040        8.13280       -1.85100
H         -1.71670        5.22590       -3.80120
H         -5.28730        2.03800       -3.93080
H         -9.44790       -1.74200       -2.70050
H         -8.01250       -1.85120       -1.66690
H         -9.38740        0.75290       -2.48970
H         -7.95550        0.63020       -1.46280
H         -9.50260       -0.01640       -0.90460
H          1.54580        1.17140      -11.26250
H          2.82260        1.92260      -10.28610
H          0.36780        3.36630      -11.40690
H          1.64260        4.11520      -10.43990
H          2.01080        3.48190      -12.04760
H         -1.07330       -1.49070       -8.45300
H         -0.35260       -3.59610       -9.13300
H          5.24230       -3.37020      -11.02240
H          5.51290       -4.55910       -9.73330
H          5.32560       -5.19950      -12.71760
H          5.58200       -6.38430      -11.43300
H          6.81130       -5.15750      -11.76300
H         -7.18230      -10.21300       -6.66890
H         -7.48060       -8.88470       -7.80670
H         -8.33710      -11.03210       -8.71490
H         -6.72620      -11.74460       -8.58410
H         -7.01630      -10.42020       -9.71720
H         -1.39890      -10.64730       -9.06640
H         -0.57090      -15.16820      -10.63980
H          0.89020      -15.65110      -11.50320
H         -0.75560      -17.40210       -9.62060
H          0.83240      -17.85660      -10.25700
H         -0.52540      -17.60030      -11.35560
H          0.83870      -14.47820       -7.44610
H         -0.54780      -15.28810       -8.17700
H          0.36710      -16.57880       -6.29140
H          1.95630      -16.63660       -7.05760
H          0.60460      -17.50180       -7.77730
H         -0.31200      -12.78290       -9.01090
H          4.59560      -17.53900      -10.08280
H          6.41190      -16.32590      -11.54200
