
  xtb     03032216123D
 energy: -353.907015192329 gnorm: 0.000237014597 xtb: 6.4.1 (unknown)
214235  0     0  0            999 V2000
   -0.7840   -2.8171   18.8119 C   0  0  0  0  0  0  0  0  0  0  0  0
   -1.9630   -1.7802   18.1027 S   0  0  0  0  0  0  0  0  0  0  0  0
   -1.9129   -2.7021   16.6407 C   0  0  0  0  0  0  0  0  0  0  0  0
   -2.5885   -2.4517   15.4201 C   0  0  0  0  0  0  0  0  0  0  0  0
   -2.2040   -3.1661   14.2956 C   0  0  0  0  0  0  0  0  0  0  0  0
   -1.2364   -4.1031   14.3059 O   0  0  0  0  0  0  0  0  0  0  0  0
   -0.8900   -4.7182   15.5672 C   0  0  0  0  0  0  0  0  0  0  0  0
    0.5536   -5.2060   15.3831 C   0  0  0  0  0  0  0  0  0  0  0  0
    1.5244   -4.0540   15.1514 C   0  0  0  0  0  0  0  0  0  0  0  0
   -1.8779   -5.8955   15.7588 C   0  0  0  0  0  0  0  0  0  0  0  0
   -1.6934   -6.6963   17.0398 C   0  0  0  0  0  0  0  0  0  0  0  0
   -1.0221   -3.7517   16.7170 C   0  0  0  0  0  0  0  0  0  0  0  0
   -0.3792   -3.8064   17.9707 C   0  0  0  0  0  0  0  0  0  0  0  0
   -2.8770   -2.7612   13.1340 C   0  0  0  0  0  0  0  0  0  0  0  0
   -3.7801   -1.7476   13.3659 C   0  0  0  0  0  0  0  0  0  0  0  0
   -3.8082   -1.2850   15.0491 S   0  0  0  0  0  0  0  0  0  0  0  0
   -4.6095   -1.0858   12.4250 C   0  0  0  0  0  0  0  0  0  0  0  0
   -4.5915   -1.5495   10.7424 S   0  0  0  0  0  0  0  0  0  0  0  0
   -5.7410   -0.3130   10.3714 C   0  0  0  0  0  0  0  0  0  0  0  0
   -6.1909    0.0989    9.0966 C   0  0  0  0  0  0  0  0  0  0  0  0
   -6.8294    1.3292    8.9910 C   0  0  0  0  0  0  0  0  0  0  0  0
   -7.1094    2.1095   10.0520 O   0  0  0  0  0  0  0  0  0  0  0  0
   -7.1695    1.4873   11.3557 C   0  0  0  0  0  0  0  0  0  0  0  0
   -8.5697    0.8450   11.4857 C   0  0  0  0  0  0  0  0  0  0  0  0
   -8.8546    0.2287   12.8478 C   0  0  0  0  0  0  0  0  0  0  0  0
   -6.9169    2.6250   12.3564 C   0  0  0  0  0  0  0  0  0  0  0  0
   -7.9142    3.7716   12.2400 C   0  0  0  0  0  0  0  0  0  0  0  0
   -6.1192    0.4097   11.4909 C   0  0  0  0  0  0  0  0  0  0  0  0
   -5.4748   -0.0348   12.6484 C   0  0  0  0  0  0  0  0  0  0  0  0
   -7.0668    1.7074    7.6632 C   0  0  0  0  0  0  0  0  0  0  0  0
   -6.6313    0.7650    6.7558 C   0  0  0  0  0  0  0  0  0  0  0  0
   -5.9286   -0.6182    7.5495 S   0  0  0  0  0  0  0  0  0  0  0  0
   -6.6298    0.8496    5.3346 C   0  0  0  0  0  0  0  0  0  0  0  0
   -6.8208    1.9621    4.5636 C   0  0  0  0  0  0  0  0  0  0  0  0
   -6.6124    1.7371    3.1806 C   0  0  0  0  0  0  0  0  0  0  0  0
   -6.6019    2.6885    2.1433 C   0  0  0  0  0  0  0  0  0  0  0  0
   -7.0315    4.0708    2.3826 C   0  0  0  0  0  0  0  0  0  0  0  0
   -8.2459    4.3262    3.0199 C   0  0  0  0  0  0  0  0  0  0  0  0
   -8.6690    5.6196    3.2348 C   0  0  0  0  0  0  0  0  0  0  0  0
   -7.9066    6.7107    2.8209 C   0  0  0  0  0  0  0  0  0  0  0  0
   -8.5839    8.3213    3.1010 S   0  0  0  0  0  0  0  0  0  0  0  0
   -7.1424    9.3324    3.6033 C   0  0  0  0  0  0  0  0  0  0  0  0
   -6.4546    8.7681    4.8299 C   0  0  0  0  0  0  0  0  0  0  0  0
   -6.7086    6.4411    2.1672 C   0  0  0  0  0  0  0  0  0  0  0  0
   -5.9280    7.4453    1.7099 F   0  0  0  0  0  0  0  0  0  0  0  0
   -6.2648    5.1506    1.9590 C   0  0  0  0  0  0  0  0  0  0  0  0
   -6.1753    2.2477    0.9003 C   0  0  0  0  0  0  0  0  0  0  0  0
   -5.8436    0.8952    0.6313 C   0  0  0  0  0  0  0  0  0  0  0  0
   -5.9039   -0.0649    1.6550 C   0  0  0  0  0  0  0  0  0  0  0  0
   -5.5643   -1.4713    1.4070 C   0  0  0  0  0  0  0  0  0  0  0  0
   -6.4337   -2.4912    1.7890 C   0  0  0  0  0  0  0  0  0  0  0  0
   -6.1382   -3.8077    1.5065 C   0  0  0  0  0  0  0  0  0  0  0  0
   -4.9604   -4.1610    0.8525 C   0  0  0  0  0  0  0  0  0  0  0  0
   -4.6767   -5.8794    0.5384 S   0  0  0  0  0  0  0  0  0  0  0  0
   -3.9943   -5.8934   -1.1620 C   0  0  0  0  0  0  0  0  0  0  0  0
   -4.9243   -5.2253   -2.1548 C   0  0  0  0  0  0  0  0  0  0  0  0
   -4.0738   -3.1377    0.5314 C   0  0  0  0  0  0  0  0  0  0  0  0
   -4.3684   -1.8137    0.7840 C   0  0  0  0  0  0  0  0  0  0  0  0
   -2.8828   -3.4098   -0.0466 F   0  0  0  0  0  0  0  0  0  0  0  0
   -6.2674    0.3894    2.9119 C   0  0  0  0  0  0  0  0  0  0  0  0
   -6.2430   -0.5634    4.3714 S   0  0  0  0  0  0  0  0  0  0  0  0
   -5.4482    0.7042   -0.7132 C   0  0  0  0  0  0  0  0  0  0  0  0
   -5.4153    1.8540   -1.4482 C   0  0  0  0  0  0  0  0  0  0  0  0
   -5.9688    3.2390   -0.5244 S   0  0  0  0  0  0  0  0  0  0  0  0
   -4.8700    2.0105   -2.7504 C   0  0  0  0  0  0  0  0  0  0  0  0
   -4.2403    0.6138   -3.5912 S   0  0  0  0  0  0  0  0  0  0  0  0
   -3.6082    1.6290   -4.8360 C   0  0  0  0  0  0  0  0  0  0  0  0
   -2.6983    1.2658   -5.8526 C   0  0  0  0  0  0  0  0  0  0  0  0
   -1.9492    2.2744   -6.4478 C   0  0  0  0  0  0  0  0  0  0  0  0
   -2.1655    3.5813   -6.2234 O   0  0  0  0  0  0  0  0  0  0  0  0
   -3.4338    3.9781   -5.6491 C   0  0  0  0  0  0  0  0  0  0  0  0
   -3.1690    5.3428   -4.9966 C   0  0  0  0  0  0  0  0  0  0  0  0
   -2.6600    6.3966   -5.9731 C   0  0  0  0  0  0  0  0  0  0  0  0
   -4.4611    4.0319   -6.8020 C   0  0  0  0  0  0  0  0  0  0  0  0
   -5.8355    4.5349   -6.3835 C   0  0  0  0  0  0  0  0  0  0  0  0
   -3.8942    2.9681   -4.6246 C   0  0  0  0  0  0  0  0  0  0  0  0
   -4.6127    3.1739   -3.4425 C   0  0  0  0  0  0  0  0  0  0  0  0
   -0.8868    1.7800   -7.2179 C   0  0  0  0  0  0  0  0  0  0  0  0
   -0.8354    0.4034   -7.2351 C   0  0  0  0  0  0  0  0  0  0  0  0
   -2.1301   -0.3039   -6.3007 S   0  0  0  0  0  0  0  0  0  0  0  0
    0.1484   -0.4395   -7.8123 C   0  0  0  0  0  0  0  0  0  0  0  0
    1.6888    0.2019   -8.3272 S   0  0  0  0  0  0  0  0  0  0  0  0
    2.2549   -1.3940   -8.6777 C   0  0  0  0  0  0  0  0  0  0  0  0
    3.5673   -1.7979   -9.0105 C   0  0  0  0  0  0  0  0  0  0  0  0
    3.8769   -3.1515   -8.9482 C   0  0  0  0  0  0  0  0  0  0  0  0
    2.9793   -4.1121   -8.6708 O   0  0  0  0  0  0  0  0  0  0  0  0
    1.5716   -3.8014   -8.7765 C   0  0  0  0  0  0  0  0  0  0  0  0
    1.1769   -4.0760  -10.2482 C   0  0  0  0  0  0  0  0  0  0  0  0
   -0.2855   -3.8174  -10.5819 C   0  0  0  0  0  0  0  0  0  0  0  0
    0.8804   -4.7688   -7.8061 C   0  0  0  0  0  0  0  0  0  0  0  0
    1.2967   -4.5302   -6.3592 C   0  0  0  0  0  0  0  0  0  0  0  0
    1.2896   -2.3592   -8.4425 C   0  0  0  0  0  0  0  0  0  0  0  0
    0.1046   -1.8117   -7.9458 C   0  0  0  0  0  0  0  0  0  0  0  0
    5.2450   -3.4045   -9.1191 C   0  0  0  0  0  0  0  0  0  0  0  0
    5.9800   -2.2570   -9.3123 C   0  0  0  0  0  0  0  0  0  0  0  0
    4.9719   -0.8335   -9.3034 S   0  0  0  0  0  0  0  0  0  0  0  0
    7.3889   -2.1395   -9.4614 C   0  0  0  0  0  0  0  0  0  0  0  0
    8.1244   -0.9971   -9.5837 C   0  0  0  0  0  0  0  0  0  0  0  0
    9.5220   -1.2239   -9.6546 C   0  0  0  0  0  0  0  0  0  0  0  0
   10.5492   -0.2715   -9.7505 C   0  0  0  0  0  0  0  0  0  0  0  0
   10.2632    1.1670   -9.7041 C   0  0  0  0  0  0  0  0  0  0  0  0
    9.4703    1.7005   -8.6877 C   0  0  0  0  0  0  0  0  0  0  0  0
    9.2301    3.0548   -8.6219 C   0  0  0  0  0  0  0  0  0  0  0  0
    9.7560    3.9331   -9.5695 C   0  0  0  0  0  0  0  0  0  0  0  0
    9.3454    5.6401   -9.3956 S   0  0  0  0  0  0  0  0  0  0  0  0
   10.8103    6.5231  -10.0684 C   0  0  0  0  0  0  0  0  0  0  0  0
   10.8638    7.9106   -9.4600 C   0  0  0  0  0  0  0  0  0  0  0  0
   10.5222    3.3835  -10.5930 C   0  0  0  0  0  0  0  0  0  0  0  0
   11.0260    4.1619  -11.5777 F   0  0  0  0  0  0  0  0  0  0  0  0
   10.7901    2.0310  -10.6574 C   0  0  0  0  0  0  0  0  0  0  0  0
   11.8443   -0.7615   -9.8495 C   0  0  0  0  0  0  0  0  0  0  0  0
   12.1566   -2.1412   -9.8017 C   0  0  0  0  0  0  0  0  0  0  0  0
   11.1332   -3.0907   -9.6655 C   0  0  0  0  0  0  0  0  0  0  0  0
   11.4201   -4.5252   -9.5363 C   0  0  0  0  0  0  0  0  0  0  0  0
   12.3244   -4.9881   -8.5817 C   0  0  0  0  0  0  0  0  0  0  0  0
   12.5500   -6.3389   -8.4260 C   0  0  0  0  0  0  0  0  0  0  0  0
   11.8996   -7.2790   -9.2229 C   0  0  0  0  0  0  0  0  0  0  0  0
   12.2901   -8.9838   -8.9547 S   0  0  0  0  0  0  0  0  0  0  0  0
   10.6725   -9.8305   -9.0977 C   0  0  0  0  0  0  0  0  0  0  0  0
    9.6525   -9.2767   -8.1236 C   0  0  0  0  0  0  0  0  0  0  0  0
   11.0282   -6.8000  -10.1961 C   0  0  0  0  0  0  0  0  0  0  0  0
   10.7717   -5.4521  -10.3447 C   0  0  0  0  0  0  0  0  0  0  0  0
   10.3999   -7.6481  -11.0397 F   0  0  0  0  0  0  0  0  0  0  0  0
    9.8352   -2.6055   -9.6207 C   0  0  0  0  0  0  0  0  0  0  0  0
    8.3949   -3.5768   -9.4505 S   0  0  0  0  0  0  0  0  0  0  0  0
   13.5607   -2.3675   -9.9173 C   0  0  0  0  0  0  0  0  0  0  0  0
   14.2695   -1.2254  -10.0182 C   0  0  0  0  0  0  0  0  0  0  0  0
   13.2926    0.2029   -9.9870 S   0  0  0  0  0  0  0  0  0  0  0  0
   -0.4634   -2.6306   19.8170 H   0  0  0  0  0  0  0  0  0  0  0  0
    0.8540   -5.7752   16.2616 H   0  0  0  0  0  0  0  0  0  0  0  0
    0.5690   -5.8715   14.5186 H   0  0  0  0  0  0  0  0  0  0  0  0
    2.5275   -4.4383   14.9835 H   0  0  0  0  0  0  0  0  0  0  0  0
    1.5472   -3.3878   16.0111 H   0  0  0  0  0  0  0  0  0  0  0  0
    1.2211   -3.4816   14.2786 H   0  0  0  0  0  0  0  0  0  0  0  0
   -2.8876   -5.4747   15.7423 H   0  0  0  0  0  0  0  0  0  0  0  0
   -1.7789   -6.5519   14.8915 H   0  0  0  0  0  0  0  0  0  0  0  0
   -2.4630   -7.4619   17.1028 H   0  0  0  0  0  0  0  0  0  0  0  0
   -0.7249   -7.1889   17.0605 H   0  0  0  0  0  0  0  0  0  0  0  0
   -1.7788   -6.0545   17.9133 H   0  0  0  0  0  0  0  0  0  0  0  0
    0.3531   -4.5441   18.2438 H   0  0  0  0  0  0  0  0  0  0  0  0
   -2.7022   -3.1873   12.1634 H   0  0  0  0  0  0  0  0  0  0  0  0
   -8.6431    0.0704   10.7167 H   0  0  0  0  0  0  0  0  0  0  0  0
   -9.3142    1.6080   11.2539 H   0  0  0  0  0  0  0  0  0  0  0  0
   -8.8830    0.9877   13.6248 H   0  0  0  0  0  0  0  0  0  0  0  0
   -8.0950   -0.5057   13.1056 H   0  0  0  0  0  0  0  0  0  0  0  0
   -9.8199   -0.2716   12.8272 H   0  0  0  0  0  0  0  0  0  0  0  0
   -6.9365    2.2189   13.3666 H   0  0  0  0  0  0  0  0  0  0  0  0
   -5.9111    3.0048   12.1637 H   0  0  0  0  0  0  0  0  0  0  0  0
   -7.5944    4.5993   12.8686 H   0  0  0  0  0  0  0  0  0  0  0  0
   -7.9684    4.1165   11.2115 H   0  0  0  0  0  0  0  0  0  0  0  0
   -8.9061    3.4650   12.5610 H   0  0  0  0  0  0  0  0  0  0  0  0
   -5.6106    0.3828   13.6295 H   0  0  0  0  0  0  0  0  0  0  0  0
   -7.5336    2.6340    7.3880 H   0  0  0  0  0  0  0  0  0  0  0  0
   -7.0387    2.9298    4.9765 H   0  0  0  0  0  0  0  0  0  0  0  0
   -8.8656    3.5000    3.3337 H   0  0  0  0  0  0  0  0  0  0  0  0
   -9.6094    5.8129    3.7272 H   0  0  0  0  0  0  0  0  0  0  0  0
   -6.4622    9.4254    2.7598 H   0  0  0  0  0  0  0  0  0  0  0  0
   -7.5838   10.3068    3.8130 H   0  0  0  0  0  0  0  0  0  0  0  0
   -7.1641    8.6540    5.6470 H   0  0  0  0  0  0  0  0  0  0  0  0
   -6.0149    7.7957    4.6152 H   0  0  0  0  0  0  0  0  0  0  0  0
   -5.6606    9.4412    5.1470 H   0  0  0  0  0  0  0  0  0  0  0  0
   -5.3160    5.0046    1.4673 H   0  0  0  0  0  0  0  0  0  0  0  0
   -7.3617   -2.2450    2.2814 H   0  0  0  0  0  0  0  0  0  0  0  0
   -6.8242   -4.5931    1.7825 H   0  0  0  0  0  0  0  0  0  0  0  0
   -3.0093   -5.4321   -1.1529 H   0  0  0  0  0  0  0  0  0  0  0  0
   -3.8867   -6.9564   -1.3780 H   0  0  0  0  0  0  0  0  0  0  0  0
   -4.5204   -5.3259   -3.1603 H   0  0  0  0  0  0  0  0  0  0  0  0
   -5.9098   -5.6856   -2.1251 H   0  0  0  0  0  0  0  0  0  0  0  0
   -5.0318   -4.1648   -1.9343 H   0  0  0  0  0  0  0  0  0  0  0  0
   -3.6412   -1.0610    0.5212 H   0  0  0  0  0  0  0  0  0  0  0  0
   -5.1706   -0.2486   -1.1262 H   0  0  0  0  0  0  0  0  0  0  0  0
   -4.0846    5.6914   -4.5209 H   0  0  0  0  0  0  0  0  0  0  0  0
   -2.4199    5.1867   -4.2171 H   0  0  0  0  0  0  0  0  0  0  0  0
   -1.8041    6.0153   -6.5225 H   0  0  0  0  0  0  0  0  0  0  0  0
   -3.4329    6.6840   -6.6809 H   0  0  0  0  0  0  0  0  0  0  0  0
   -2.3543    7.2847   -5.4253 H   0  0  0  0  0  0  0  0  0  0  0  0
   -4.5542    3.0184   -7.2030 H   0  0  0  0  0  0  0  0  0  0  0  0
   -4.0527    4.6613   -7.5937 H   0  0  0  0  0  0  0  0  0  0  0  0
   -6.5264    4.4505   -7.2189 H   0  0  0  0  0  0  0  0  0  0  0  0
   -5.7968    5.5776   -6.0802 H   0  0  0  0  0  0  0  0  0  0  0  0
   -6.2259    3.9464   -5.5563 H   0  0  0  0  0  0  0  0  0  0  0  0
   -4.9249    4.1325   -3.0695 H   0  0  0  0  0  0  0  0  0  0  0  0
   -0.1750    2.4043   -7.7253 H   0  0  0  0  0  0  0  0  0  0  0  0
    1.4317   -5.1146  -10.4695 H   0  0  0  0  0  0  0  0  0  0  0  0
    1.8062   -3.4389  -10.8763 H   0  0  0  0  0  0  0  0  0  0  0  0
   -0.5627   -2.7936  -10.3424 H   0  0  0  0  0  0  0  0  0  0  0  0
   -0.9394   -4.4926  -10.0369 H   0  0  0  0  0  0  0  0  0  0  0  0
   -0.4478   -3.9749  -11.6454 H   0  0  0  0  0  0  0  0  0  0  0  0
   -0.1990   -4.6643   -7.9049 H   0  0  0  0  0  0  0  0  0  0  0  0
    1.1577   -5.7825   -8.0998 H   0  0  0  0  0  0  0  0  0  0  0  0
    2.3753   -4.6234   -6.2611 H   0  0  0  0  0  0  0  0  0  0  0  0
    1.0036   -3.5361   -6.0293 H   0  0  0  0  0  0  0  0  0  0  0  0
    0.8246   -5.2627   -5.7096 H   0  0  0  0  0  0  0  0  0  0  0  0
   -0.7689   -2.3782   -7.6779 H   0  0  0  0  0  0  0  0  0  0  0  0
    5.6786   -4.3869   -9.0843 H   0  0  0  0  0  0  0  0  0  0  0  0
    7.6737   -0.0217   -9.6291 H   0  0  0  0  0  0  0  0  0  0  0  0
    9.0695    1.0492   -7.9262 H   0  0  0  0  0  0  0  0  0  0  0  0
    8.6280    3.4649   -7.8260 H   0  0  0  0  0  0  0  0  0  0  0  0
   10.7166    6.5712  -11.1522 H   0  0  0  0  0  0  0  0  0  0  0  0
   11.6895    5.9402   -9.7985 H   0  0  0  0  0  0  0  0  0  0  0  0
   10.9435    7.8503   -8.3769 H   0  0  0  0  0  0  0  0  0  0  0  0
   11.7276    8.4475   -9.8461 H   0  0  0  0  0  0  0  0  0  0  0  0
    9.9652    8.4709   -9.7084 H   0  0  0  0  0  0  0  0  0  0  0  0
   11.3854    1.6619  -11.4777 H   0  0  0  0  0  0  0  0  0  0  0  0
   12.8248   -4.2831   -7.9355 H   0  0  0  0  0  0  0  0  0  0  0  0
   13.2359   -6.6956   -7.6735 H   0  0  0  0  0  0  0  0  0  0  0  0
   10.9145  -10.8679   -8.8668 H   0  0  0  0  0  0  0  0  0  0  0  0
   10.3292   -9.7674  -10.1279 H   0  0  0  0  0  0  0  0  0  0  0  0
    8.7339   -9.8566   -8.1874 H   0  0  0  0  0  0  0  0  0  0  0  0
   10.0295   -9.3290   -7.1043 H   0  0  0  0  0  0  0  0  0  0  0  0
    9.4190   -8.2384   -8.3528 H   0  0  0  0  0  0  0  0  0  0  0  0
   10.0857   -5.1372  -11.1154 H   0  0  0  0  0  0  0  0  0  0  0  0
   14.0004   -3.3481   -9.9372 H   0  0  0  0  0  0  0  0  0  0  0  0
   15.3315   -1.1148  -10.1190 H   0  0  0  0  0  0  0  0  0  0  0  0
  1  2  1  0  0  0  0
  2  3  1  0  0  0  0
  3  4  1  0  0  0  0
  4  5  2  0  0  0  0
  5  6  1  0  0  0  0
  6  7  1  0  0  0  0
  7  8  1  0  0  0  0
  8  9  1  0  0  0  0
  7 10  1  0  0  0  0
 10 11  1  0  0  0  0
  7 12  1  0  0  0  0
 12 13  1  0  0  0  0
  5 14  1  0  0  0  0
 14 15  2  0  0  0  0
 15 16  1  0  0  0  0
 15 17  1  0  0  0  0
 17 18  1  0  0  0  0
 18 19  1  0  0  0  0
 19 20  1  0  0  0  0
 20 21  2  0  0  0  0
 21 22  1  0  0  0  0
 22 23  1  0  0  0  0
 23 24  1  0  0  0  0
 24 25  1  0  0  0  0
 23 26  1  0  0  0  0
 26 27  1  0  0  0  0
 23 28  1  0  0  0  0
 28 29  1  0  0  0  0
 21 30  1  0  0  0  0
 30 31  2  0  0  0  0
 31 32  1  0  0  0  0
 31 33  1  0  0  0  0
 33 34  2  0  0  0  0
 34 35  1  0  0  0  0
 35 36  2  0  0  0  0
 36 37  1  0  0  0  0
 37 38  2  0  0  0  0
 38 39  1  0  0  0  0
 39 40  2  0  0  0  0
 40 41  1  0  0  0  0
 41 42  1  0  0  0  0
 42 43  1  0  0  0  0
 40 44  1  0  0  0  0
 44 45  1  0  0  0  0
 44 46  2  0  0  0  0
 36 47  1  0  0  0  0
 47 48  2  0  0  0  0
 48 49  1  0  0  0  0
 49 50  1  0  0  0  0
 50 51  2  0  0  0  0
 51 52  1  0  0  0  0
 52 53  2  0  0  0  0
 53 54  1  0  0  0  0
 54 55  1  0  0  0  0
 55 56  1  0  0  0  0
 53 57  1  0  0  0  0
 57 58  2  0  0  0  0
 57 59  1  0  0  0  0
 49 60  2  0  0  0  0
 60 61  1  0  0  0  0
 48 62  1  0  0  0  0
 62 63  2  0  0  0  0
 63 64  1  0  0  0  0
 63 65  1  0  0  0  0
 65 66  1  0  0  0  0
 66 67  1  0  0  0  0
 67 68  1  0  0  0  0
 68 69  2  0  0  0  0
 69 70  1  0  0  0  0
 70 71  1  0  0  0  0
 71 72  1  0  0  0  0
 72 73  1  0  0  0  0
 71 74  1  0  0  0  0
 74 75  1  0  0  0  0
 71 76  1  0  0  0  0
 76 77  1  0  0  0  0
 69 78  1  0  0  0  0
 78 79  2  0  0  0  0
 79 80  1  0  0  0  0
 79 81  1  0  0  0  0
 81 82  1  0  0  0  0
 82 83  1  0  0  0  0
 83 84  1  0  0  0  0
 84 85  2  0  0  0  0
 85 86  1  0  0  0  0
 86 87  1  0  0  0  0
 87 88  1  0  0  0  0
 88 89  1  0  0  0  0
 87 90  1  0  0  0  0
 90 91  1  0  0  0  0
 87 92  1  0  0  0  0
 92 93  1  0  0  0  0
 85 94  1  0  0  0  0
 94 95  2  0  0  0  0
 95 96  1  0  0  0  0
 95 97  1  0  0  0  0
 97 98  2  0  0  0  0
 98 99  1  0  0  0  0
 99100  2  0  0  0  0
100101  1  0  0  0  0
101102  2  0  0  0  0
102103  1  0  0  0  0
103104  2  0  0  0  0
104105  1  0  0  0  0
105106  1  0  0  0  0
106107  1  0  0  0  0
104108  1  0  0  0  0
108109  1  0  0  0  0
108110  2  0  0  0  0
100111  1  0  0  0  0
111112  2  0  0  0  0
112113  1  0  0  0  0
113114  1  0  0  0  0
114115  2  0  0  0  0
115116  1  0  0  0  0
116117  2  0  0  0  0
117118  1  0  0  0  0
118119  1  0  0  0  0
119120  1  0  0  0  0
117121  1  0  0  0  0
121122  2  0  0  0  0
121123  1  0  0  0  0
113124  2  0  0  0  0
124125  1  0  0  0  0
112126  1  0  0  0  0
126127  2  0  0  0  0
127128  1  0  0  0  0
 13  1  2  0  0  0  0
 29 17  2  0  0  0  0
 61 33  1  0  0  0  0
 77 65  2  0  0  0  0
 93 81  2  0  0  0  0
125 97  1  0  0  0  0
 12  3  2  0  0  0  0
 28 19  2  0  0  0  0
 60 35  1  0  0  0  0
 76 67  2  0  0  0  0
 92 83  2  0  0  0  0
124 99  1  0  0  0  0
 16  4  1  0  0  0  0
 32 20  1  0  0  0  0
 46 37  1  0  0  0  0
 64 47  1  0  0  0  0
 80 68  1  0  0  0  0
 96 84  1  0  0  0  0
110101  1  0  0  0  0
128111  1  0  0  0  0
 58 50  1  0  0  0  0
122114  1  0  0  0  0
  1129  1  0  0  0  0
  8130  1  0  0  0  0
  8131  1  0  0  0  0
  9132  1  0  0  0  0
  9133  1  0  0  0  0
  9134  1  0  0  0  0
 10135  1  0  0  0  0
 10136  1  0  0  0  0
 11137  1  0  0  0  0
 11138  1  0  0  0  0
 11139  1  0  0  0  0
 13140  1  0  0  0  0
 14141  1  0  0  0  0
 24142  1  0  0  0  0
 24143  1  0  0  0  0
 25144  1  0  0  0  0
 25145  1  0  0  0  0
 25146  1  0  0  0  0
 26147  1  0  0  0  0
 26148  1  0  0  0  0
 27149  1  0  0  0  0
 27150  1  0  0  0  0
 27151  1  0  0  0  0
 29152  1  0  0  0  0
 30153  1  0  0  0  0
 34154  1  0  0  0  0
 38155  1  0  0  0  0
 39156  1  0  0  0  0
 42157  1  0  0  0  0
 42158  1  0  0  0  0
 43159  1  0  0  0  0
 43160  1  0  0  0  0
 43161  1  0  0  0  0
 46162  1  0  0  0  0
 51163  1  0  0  0  0
 52164  1  0  0  0  0
 55165  1  0  0  0  0
 55166  1  0  0  0  0
 56167  1  0  0  0  0
 56168  1  0  0  0  0
 56169  1  0  0  0  0
 58170  1  0  0  0  0
 62171  1  0  0  0  0
 72172  1  0  0  0  0
 72173  1  0  0  0  0
 73174  1  0  0  0  0
 73175  1  0  0  0  0
 73176  1  0  0  0  0
 74177  1  0  0  0  0
 74178  1  0  0  0  0
 75179  1  0  0  0  0
 75180  1  0  0  0  0
 75181  1  0  0  0  0
 77182  1  0  0  0  0
 78183  1  0  0  0  0
 88184  1  0  0  0  0
 88185  1  0  0  0  0
 89186  1  0  0  0  0
 89187  1  0  0  0  0
 89188  1  0  0  0  0
 90189  1  0  0  0  0
 90190  1  0  0  0  0
 91191  1  0  0  0  0
 91192  1  0  0  0  0
 91193  1  0  0  0  0
 93194  1  0  0  0  0
 94195  1  0  0  0  0
 98196  1  0  0  0  0
102197  1  0  0  0  0
103198  1  0  0  0  0
106199  1  0  0  0  0
106200  1  0  0  0  0
107201  1  0  0  0  0
107202  1  0  0  0  0
107203  1  0  0  0  0
110204  1  0  0  0  0
115205  1  0  0  0  0
116206  1  0  0  0  0
119207  1  0  0  0  0
119208  1  0  0  0  0
120209  1  0  0  0  0
120210  1  0  0  0  0
120211  1  0  0  0  0
122212  1  0  0  0  0
126213  1  0  0  0  0
127214  1  0  0  0  0
M  END
