
  xtb     03012206493D
 energy: -213.569735887937 gnorm: 0.000435539970 xtb: 6.4.1 (unknown)
100112  0     0  0            999 V2000
    2.9082   -4.0767    1.1529 C   0  0  0  0  0  0  0  0  0  0  0  0
    2.6438   -2.5633    0.3605 S   0  0  0  0  0  0  0  0  0  0  0  0
    3.1841   -3.1669   -1.1975 C   0  0  0  0  0  0  0  0  0  0  0  0
    3.5153   -4.5004   -1.0405 C   0  0  0  0  0  0  0  0  0  0  0  0
    3.3706   -5.0032    0.2744 C   0  0  0  0  0  0  0  0  0  0  0  0
    3.8473   -6.4006    0.2609 C   0  0  0  0  0  0  0  0  0  0  0  0
    3.9964   -7.1779    1.1468 O   0  0  0  0  0  0  0  0  0  0  0  0
    4.1878   -6.6753   -1.0512 O   0  0  0  0  0  0  0  0  0  0  0  0
    4.0012   -5.5908   -1.8798 C   0  0  0  0  0  0  0  0  0  0  0  0
    4.2090   -5.6259   -3.0590 O   0  0  0  0  0  0  0  0  0  0  0  0
    3.4054   -2.4569   -2.4076 C   0  0  0  0  0  0  0  0  0  0  0  0
    3.0702   -1.2208   -2.8623 C   0  0  0  0  0  0  0  0  0  0  0  0
    2.2422   -0.1845   -2.3663 C   0  0  0  0  0  0  0  0  0  0  0  0
    1.2957   -0.2281   -0.9037 S   0  0  0  0  0  0  0  0  0  0  0  0
    0.6473    1.3320   -1.2402 C   0  0  0  0  0  0  0  0  0  0  0  0
   -0.2404    2.0827   -0.4520 C   0  0  0  0  0  0  0  0  0  0  0  0
   -0.5268    3.4003   -0.8307 C   0  0  0  0  0  0  0  0  0  0  0  0
    0.0060    3.9903   -1.8985 O   0  0  0  0  0  0  0  0  0  0  0  0
    0.6305    3.1970   -2.9349 C   0  0  0  0  0  0  0  0  0  0  0  0
   -0.4388    2.8921   -4.0095 C   0  0  0  0  0  0  0  0  0  0  0  0
   -1.0961    4.1403   -4.5846 C   0  0  0  0  0  0  0  0  0  0  0  0
    1.7714    4.0714   -3.4761 C   0  0  0  0  0  0  0  0  0  0  0  0
    2.8895    4.2622   -2.4574 C   0  0  0  0  0  0  0  0  0  0  0  0
    1.1417    1.8740   -2.4216 C   0  0  0  0  0  0  0  0  0  0  0  0
    2.0330    1.0133   -3.0474 C   0  0  0  0  0  0  0  0  0  0  0  0
   -1.3751    4.0492    0.0736 C   0  0  0  0  0  0  0  0  0  0  0  0
   -1.7348    3.2380    1.1352 C   0  0  0  0  0  0  0  0  0  0  0  0
   -1.0222    1.6456    1.0153 S   0  0  0  0  0  0  0  0  0  0  0  0
   -2.5940    3.5298    2.2152 C   0  0  0  0  0  0  0  0  0  0  0  0
   -2.7887    2.3633    3.5044 S   0  0  0  0  0  0  0  0  0  0  0  0
   -4.0321    3.2902    4.3233 C   0  0  0  0  0  0  0  0  0  0  0  0
   -4.2037    4.4700    3.6274 C   0  0  0  0  0  0  0  0  0  0  0  0
   -3.4234    4.6094    2.4605 C   0  0  0  0  0  0  0  0  0  0  0  0
   -3.7648    5.8945    1.8533 C   0  0  0  0  0  0  0  0  0  0  0  0
   -3.3535    6.4310    0.8682 O   0  0  0  0  0  0  0  0  0  0  0  0
   -4.7240    6.4708    2.6666 O   0  0  0  0  0  0  0  0  0  0  0  0
   -5.0369    5.6727    3.7472 C   0  0  0  0  0  0  0  0  0  0  0  0
   -5.8409    5.9814    4.5726 O   0  0  0  0  0  0  0  0  0  0  0  0
   -4.6757    2.9482    5.5473 C   0  0  0  0  0  0  0  0  0  0  0  0
   -4.6803    1.7851    6.2403 C   0  0  0  0  0  0  0  0  0  0  0  0
   -4.1635    0.5080    5.8610 C   0  0  0  0  0  0  0  0  0  0  0  0
   -4.1746   -0.1318    4.2364 S   0  0  0  0  0  0  0  0  0  0  0  0
   -3.2912   -1.5807    4.6751 C   0  0  0  0  0  0  0  0  0  0  0  0
   -3.1109   -1.5916    6.0440 C   0  0  0  0  0  0  0  0  0  0  0  0
   -3.6152   -0.4460    6.6945 C   0  0  0  0  0  0  0  0  0  0  0  0
   -3.3068   -0.5737    8.1236 C   0  0  0  0  0  0  0  0  0  0  0  0
   -3.5437    0.1523    9.0389 O   0  0  0  0  0  0  0  0  0  0  0  0
   -2.6406   -1.7758    8.2693 O   0  0  0  0  0  0  0  0  0  0  0  0
   -2.4757   -2.4312    7.0661 C   0  0  0  0  0  0  0  0  0  0  0  0
   -1.9051   -3.4743    6.9702 O   0  0  0  0  0  0  0  0  0  0  0  0
   -2.7892   -2.3840    3.6250 C   0  0  0  0  0  0  0  0  0  0  0  0
   -2.0426   -3.5100    3.7442 C   0  0  0  0  0  0  0  0  0  0  0  0
   -1.4244   -4.0964    2.6116 C   0  0  0  0  0  0  0  0  0  0  0  0
   -1.3712   -3.2546    1.0649 S   0  0  0  0  0  0  0  0  0  0  0  0
   -0.4381   -4.5161    0.2937 C   0  0  0  0  0  0  0  0  0  0  0  0
   -0.2001   -5.5170    1.2119 C   0  0  0  0  0  0  0  0  0  0  0  0
   -0.7384   -5.2891    2.4913 C   0  0  0  0  0  0  0  0  0  0  0  0
   -0.4046   -6.4618    3.3161 C   0  0  0  0  0  0  0  0  0  0  0  0
   -0.6661   -6.7222    4.4463 O   0  0  0  0  0  0  0  0  0  0  0  0
    0.3243   -7.3154    2.4985 O   0  0  0  0  0  0  0  0  0  0  0  0
    0.4915   -6.8098    1.2330 C   0  0  0  0  0  0  0  0  0  0  0  0
    1.0974   -7.3632    0.3653 O   0  0  0  0  0  0  0  0  0  0  0  0
    0.0128   -4.4561   -1.0446 C   0  0  0  0  0  0  0  0  0  0  0  0
   -0.1808   -3.3930   -1.8600 C   0  0  0  0  0  0  0  0  0  0  0  0
    0.3581   -3.2812   -3.1618 C   0  0  0  0  0  0  0  0  0  0  0  0
    1.3111   -4.5239   -3.9427 S   0  0  0  0  0  0  0  0  0  0  0  0
    1.6555   -3.5322   -5.3344 C   0  0  0  0  0  0  0  0  0  0  0  0
    1.0326   -2.3065   -5.1926 C   0  0  0  0  0  0  0  0  0  0  0  0
    0.3066   -2.1765   -3.9862 C   0  0  0  0  0  0  0  0  0  0  0  0
   -0.2659   -0.8391   -3.9407 C   0  0  0  0  0  0  0  0  0  0  0  0
   -0.9406   -0.2959   -3.1121 O   0  0  0  0  0  0  0  0  0  0  0  0
    0.1242   -0.2105   -5.1064 O   0  0  0  0  0  0  0  0  0  0  0  0
    0.9181   -1.0293   -5.8954 C   0  0  0  0  0  0  0  0  0  0  0  0
    1.3852   -0.6377   -6.9231 O   0  0  0  0  0  0  0  0  0  0  0  0
    2.4953   -4.0683   -6.3650 C   0  0  0  0  0  0  0  0  0  0  0  0
    2.8139   -3.4218   -7.4876 C   0  0  0  0  0  0  0  0  0  0  0  0
    2.7163   -4.1672    2.2032 H   0  0  0  0  0  0  0  0  0  0  0  0
    3.9882   -3.0591   -3.0970 H   0  0  0  0  0  0  0  0  0  0  0  0
    3.4857   -0.9719   -3.8336 H   0  0  0  0  0  0  0  0  0  0  0  0
   -1.2000    2.2618   -3.5431 H   0  0  0  0  0  0  0  0  0  0  0  0
    0.0267    2.3097   -4.8049 H   0  0  0  0  0  0  0  0  0  0  0  0
   -1.9466    3.8522   -5.1967 H   0  0  0  0  0  0  0  0  0  0  0  0
   -1.4484    4.7873   -3.7851 H   0  0  0  0  0  0  0  0  0  0  0  0
   -0.4031    4.6986   -5.2079 H   0  0  0  0  0  0  0  0  0  0  0  0
    2.1606    3.6195   -4.3883 H   0  0  0  0  0  0  0  0  0  0  0  0
    1.3495    5.0445   -3.7240 H   0  0  0  0  0  0  0  0  0  0  0  0
    3.3654    3.3151   -2.2114 H   0  0  0  0  0  0  0  0  0  0  0  0
    3.6455    4.9324   -2.8579 H   0  0  0  0  0  0  0  0  0  0  0  0
    2.4931    4.6990   -1.5438 H   0  0  0  0  0  0  0  0  0  0  0  0
    2.5218    1.2275   -3.9814 H   0  0  0  0  0  0  0  0  0  0  0  0
   -1.7174    5.0623   -0.0363 H   0  0  0  0  0  0  0  0  0  0  0  0
   -5.1961    3.7907    5.9875 H   0  0  0  0  0  0  0  0  0  0  0  0
   -5.0950    1.8037    7.2408 H   0  0  0  0  0  0  0  0  0  0  0  0
   -2.9836   -1.9965    2.6310 H   0  0  0  0  0  0  0  0  0  0  0  0
   -1.8680   -3.9805    4.7032 H   0  0  0  0  0  0  0  0  0  0  0  0
    0.5669   -5.3213   -1.3875 H   0  0  0  0  0  0  0  0  0  0  0  0
   -0.7393   -2.5327   -1.5116 H   0  0  0  0  0  0  0  0  0  0  0  0
    2.8786   -5.0602   -6.1654 H   0  0  0  0  0  0  0  0  0  0  0  0
    3.4564   -3.8774   -8.2205 H   0  0  0  0  0  0  0  0  0  0  0  0
    2.4470   -2.4323   -7.7017 H   0  0  0  0  0  0  0  0  0  0  0  0
  1  2  1  0  0  0  0
  2  3  1  0  0  0  0
  3  4  2  0  0  0  0
  4  5  1  0  0  0  0
  5  6  1  0  0  0  0
  6  7  2  0  0  0  0
  6  8  1  0  0  0  0
  8  9  1  0  0  0  0
  9 10  2  0  0  0  0
  3 11  1  0  0  0  0
 11 12  2  0  0  0  0
 12 13  1  0  0  0  0
 13 14  1  0  0  0  0
 14 15  1  0  0  0  0
 15 16  1  0  0  0  0
 16 17  2  0  0  0  0
 17 18  1  0  0  0  0
 18 19  1  0  0  0  0
 19 20  1  0  0  0  0
 20 21  1  0  0  0  0
 19 22  1  0  0  0  0
 22 23  1  0  0  0  0
 19 24  1  0  0  0  0
 24 25  1  0  0  0  0
 17 26  1  0  0  0  0
 26 27  2  0  0  0  0
 27 28  1  0  0  0  0
 27 29  1  0  0  0  0
 29 30  1  0  0  0  0
 30 31  1  0  0  0  0
 31 32  2  0  0  0  0
 32 33  1  0  0  0  0
 33 34  1  0  0  0  0
 34 35  2  0  0  0  0
 34 36  1  0  0  0  0
 36 37  1  0  0  0  0
 37 38  2  0  0  0  0
 31 39  1  0  0  0  0
 39 40  2  0  0  0  0
 40 41  1  0  0  0  0
 41 42  1  0  0  0  0
 42 43  1  0  0  0  0
 43 44  2  0  0  0  0
 44 45  1  0  0  0  0
 45 46  1  0  0  0  0
 46 47  2  0  0  0  0
 46 48  1  0  0  0  0
 48 49  1  0  0  0  0
 49 50  2  0  0  0  0
 43 51  1  0  0  0  0
 51 52  2  0  0  0  0
 52 53  1  0  0  0  0
 53 54  1  0  0  0  0
 54 55  1  0  0  0  0
 55 56  2  0  0  0  0
 56 57  1  0  0  0  0
 57 58  1  0  0  0  0
 58 59  2  0  0  0  0
 58 60  1  0  0  0  0
 60 61  1  0  0  0  0
 61 62  2  0  0  0  0
 55 63  1  0  0  0  0
 63 64  2  0  0  0  0
 64 65  1  0  0  0  0
 65 66  1  0  0  0  0
 66 67  1  0  0  0  0
 67 68  2  0  0  0  0
 68 69  1  0  0  0  0
 69 70  1  0  0  0  0
 70 71  2  0  0  0  0
 70 72  1  0  0  0  0
 72 73  1  0  0  0  0
 73 74  2  0  0  0  0
 67 75  1  0  0  0  0
 75 76  2  0  0  0  0
  5  1  2  0  0  0  0
 25 13  2  0  0  0  0
 33 29  2  0  0  0  0
 45 41  2  0  0  0  0
 57 53  2  0  0  0  0
 69 65  2  0  0  0  0
  9  4  1  0  0  0  0
 24 15  2  0  0  0  0
 37 32  1  0  0  0  0
 49 44  1  0  0  0  0
 61 56  1  0  0  0  0
 73 68  1  0  0  0  0
 28 16  1  0  0  0  0
  1 77  1  0  0  0  0
 11 78  1  0  0  0  0
 12 79  1  0  0  0  0
 20 80  1  0  0  0  0
 20 81  1  0  0  0  0
 21 82  1  0  0  0  0
 21 83  1  0  0  0  0
 21 84  1  0  0  0  0
 22 85  1  0  0  0  0
 22 86  1  0  0  0  0
 23 87  1  0  0  0  0
 23 88  1  0  0  0  0
 23 89  1  0  0  0  0
 25 90  1  0  0  0  0
 26 91  1  0  0  0  0
 39 92  1  0  0  0  0
 40 93  1  0  0  0  0
 51 94  1  0  0  0  0
 52 95  1  0  0  0  0
 63 96  1  0  0  0  0
 64 97  1  0  0  0  0
 75 98  1  0  0  0  0
 76 99  1  0  0  0  0
 76100  1  0  0  0  0
M  END
