212

C          4.12050      -12.71060       10.16280
C          3.43410      -11.77350       10.84780
C          2.38290      -11.18960       10.08280
C          1.50820      -10.15510       10.45240
C          1.52310       -9.60050       11.79650
S          1.71180       -7.89520       12.07390
C          1.63830       -8.08820       13.79290
C          1.70680       -6.91010       14.70060
C          0.37580       -6.15560       14.72040
C          1.46300       -9.40050       14.11520
Cl         1.33130       -9.98510       15.72370
C          1.40400      -10.26200       12.98630
Cl         1.13510      -11.95190       13.12350
C          0.64330       -9.68200        9.47640
C          0.58900      -10.21640        8.16620
C          1.43680      -11.27750        7.80780
C          1.41540      -11.84660        6.47060
S          1.61330      -10.84400        5.06250
C          1.52440      -12.19740        3.98740
C          1.58180      -12.01170        2.51140
C          0.22710      -11.55610        1.96390
C          1.34070      -13.34860        4.69240
C          1.28590      -13.15570        6.09950
Cl         0.99760      -14.44360        7.19240
Cl         1.19340      -14.89930        3.97270
C          2.32170      -11.73450        8.77850
S          3.54430      -12.95210        8.55080
C         -0.38800       -9.56860        7.37140
C         -1.05260       -8.57240        8.02490
S         -0.51530       -8.39890        9.68690
C         -2.02930       -7.68500        7.49800
S         -2.48150       -7.75540        5.81480
C         -3.49430       -6.37030        6.01250
C         -4.25590       -5.70130        5.02810
C         -5.08840       -4.66350        5.42730
O         -5.27770       -4.32470        6.71550
C         -4.22580       -4.61860        7.66260
C         -4.93350       -4.75740        9.01990
C         -5.70060       -3.50840        9.43730
C         -3.23660       -3.43090        7.58970
C         -2.11140       -3.45570        8.61370
C         -3.49400       -5.89400        7.31320
C         -2.66770       -6.65160        8.14850
C         -5.73210       -4.03880        4.35050
C         -5.39810       -4.59420        3.13600
S         -4.28760       -5.92670        3.31570
C         -5.73510       -4.11840        1.83840
C         -5.52600       -4.72750        0.63490
C         -5.80370       -3.89610       -0.47640
C         -5.58420       -4.17530       -1.84020
C         -5.26890       -5.52240       -2.27480
S         -3.93660       -5.86400       -3.33850
C         -4.25520       -7.56480       -3.31940
C         -3.43820       -8.50950       -4.12940
C         -3.90710       -8.52460       -5.58620
C         -5.34260       -7.83540       -2.54330
Cl        -5.97320       -9.41190       -2.29380
C         -5.91570       -6.68280       -1.94360
Cl        -7.32860       -6.75730       -0.97230
C         -5.63790       -3.09840       -2.71410
C         -5.97590       -1.78660       -2.29840
C         -6.32670       -1.53640       -0.95930
C         -6.68440       -0.20690       -0.49490
S         -5.67090        1.17110       -0.81670
C         -6.69990        2.24030        0.07470
C         -6.35740        3.68180        0.22250
C         -5.16690        3.87380        1.16380
C         -7.75700        1.55400        0.59180
C         -7.75170        0.16860        0.27270
Cl        -9.01450       -0.88790        0.74710
Cl        -8.99940        2.27090        1.53380
C         -6.21490       -2.60140       -0.07540
S         -6.35340       -2.48800        1.65540
C         -5.84080       -0.85050       -3.34730
C         -5.39230       -1.39340       -4.51690
S         -5.22450       -3.13670       -4.40910
C         -4.88610       -0.66600       -5.62940
S         -4.47260        1.01270       -5.36950
C         -3.68960        1.06920       -6.90330
C         -2.81840        2.07820       -7.36560
C         -1.99210        1.79750       -8.44560
O         -2.09660        0.68540       -9.18930
C         -3.21700       -0.20990       -8.99380
C         -2.66690       -1.61060       -9.29890
C         -1.62240       -2.05790       -8.28210
C         -4.33960        0.20450       -9.97590
C         -3.91110        0.19860      -11.43820
C         -3.78950       -0.12190       -7.59940
C         -4.46830       -1.10390       -6.86650
C         -0.96340        2.74290       -8.59830
C         -0.99130        3.71900       -7.62820
S         -2.34420        3.52040       -6.54480
C         -0.02930        4.72080       -7.32360
C          0.02830        5.43070       -6.15820
C          1.18100        6.23690       -6.03850
C          1.57120        7.01710       -4.93430
C          0.72290        7.09880       -3.75520
S         -0.94020        7.59580       -3.87380
C         -1.21440        7.36700       -2.18080
C         -2.56370        7.56160       -1.58190
C         -3.39850        6.28280       -1.69350
C         -0.07500        6.93190       -1.57350
Cl         0.03960        6.58250        0.10270
C          1.02560        6.78270       -2.46010
Cl         2.54020        6.17110       -1.94250
C          2.80280        7.64710       -5.01640
C          3.64910        7.54200       -6.15030
C          3.23960        6.78980       -7.26710
C          4.06350        6.71500       -8.46110
S          4.49930        5.19250       -9.17820
C          5.39370        5.95730      -10.44680
C          6.12770        5.15680      -11.46510
C          7.52440        4.78150      -10.96390
C          5.35150        7.31240      -10.30670
C          4.59590        7.74620       -9.18500
Cl         4.32440        9.40570       -8.84130
Cl         6.11850        8.40960      -11.38040
C          2.02340        6.12720       -7.17040
S          1.33920        5.05560       -8.36570
C          4.88040        8.21020       -5.95130
C          4.97580        8.83510       -4.74100
S          3.52120        8.63870       -3.78120
C          6.08350        9.54030       -4.19940
S          7.54340        9.77390       -5.12810
C          8.28900       10.57000       -3.78920
C          9.58730       11.13130       -3.70980
C          9.92480       11.85900       -2.58240
O          9.09300       12.08170       -1.54940
C          7.93190       11.24130       -1.38870
C          8.31980       10.05040       -0.47810
C          8.84620       10.46900        0.88900
C          6.86710       12.14120       -0.74350
C          6.37880       13.22710       -1.69520
C          7.44820       10.66130       -2.69600
C          6.20230       10.07330       -2.93510
C         11.22880       12.39820       -2.65590
C         11.85410       12.06540       -3.81690
S         10.88470       11.09530       -4.85390
H          4.95250      -13.29640       10.50150
H          3.66490      -11.48390       11.85620
H          1.94890       -7.25830       15.70600
H          2.49800       -6.23760       14.36330
H          0.12740       -5.80610       13.72100
H          0.44210       -5.29870       15.38530
H         -0.42160       -6.80690       15.06920
H          1.86420      -12.96030        2.05180
H          2.34000      -11.26490        2.26820
H         -0.06250      -10.60890        2.41290
H          0.28370      -11.42870        0.88620
H         -0.53770      -12.29550        2.18760
H         -0.59270       -9.82190        6.34710
H         -4.19750       -5.01430        9.78050
H         -5.63190       -5.59270        8.93160
H         -6.29700       -3.72380       10.32060
H         -6.36500       -3.19410        8.63770
H         -5.02440       -2.69140        9.67470
H         -2.80770       -3.43020        6.58300
H         -3.81820       -2.51390        7.69630
H         -1.47210       -2.58800        8.46830
H         -1.50110       -4.34820        8.50090
H         -2.50050       -3.42340        9.62760
H         -2.51420       -6.46720        9.19630
H         -6.40550       -3.20820        4.45530
H         -5.13330       -5.72500        0.55430
H         -2.38980       -8.20870       -4.08940
H         -3.53330       -9.50930       -3.70230
H         -3.30250       -9.21670       -6.16610
H         -3.81740       -7.53160       -6.02010
H         -4.94670       -8.83690       -5.64390
H         -6.11130        4.09700       -0.75750
H         -7.22980        4.20610        0.61570
H         -4.29180        3.36080        0.77200
H         -4.93620        4.93080        1.26570
H         -5.39470        3.47060        2.14730
H         -6.02060        0.20320       -3.23790
H         -3.49710       -2.31660       -9.32880
H         -2.20450       -1.57700      -10.28490
H         -0.80680       -1.33980       -8.24760
H         -2.05110       -2.14210       -7.28630
H         -1.21840       -3.02620       -8.56640
H         -4.65570        1.21430       -9.69960
H         -5.18970       -0.46350       -9.82630
H         -3.77060       -0.81520      -11.80270
H         -4.67420        0.67680      -12.04730
H         -2.97950        0.74640      -11.55640
H         -4.64160       -2.11070       -7.20130
H         -0.20290        2.68410       -9.35490
H         -0.71950        5.33730       -5.39190
H         -2.44570        7.82990       -0.53040
H         -3.07540        8.37600       -2.09700
H         -2.90950        5.46570       -1.16940
H         -3.52210        6.00160       -2.73680
H         -4.38050        6.44090       -1.25560
H          5.56420        4.24880      -11.68560
H          6.21430        5.74750      -12.37900
H          8.10170        5.67770      -10.75150
H          7.45200        4.19030      -10.05420
H          8.04790        4.20020      -11.71810
H          5.68660        8.20660       -6.66220
H          9.09360        9.48140       -1.00170
H          7.44820        9.40330       -0.36740
H          8.05070       10.87460        1.50800
H          9.27100        9.60840        1.40010
H          9.62140       11.22290        0.77590
H          6.03210       11.52270       -0.41390
H          7.31720       12.61220        0.13000
H          5.88090       12.79420       -2.56000
H          7.21930       13.82350       -2.04200
H          5.67700       13.88220       -1.18520
H          5.40340       10.01940       -2.21730
H         11.66380       12.99910       -1.87960
H         12.84440       12.32990       -4.12860
