
  xtb     03012200233D
 energy: -237.941369964360 gnorm: 0.000195716388 xtb: 6.4.1 (unknown)
146163  0     0  0            999 V2000
    4.2877    4.1761   13.6470 C   0  0  0  0  0  0  0  0  0  0  0  0
    2.6329    3.7122   13.5315 S   0  0  0  0  0  0  0  0  0  0  0  0
    2.5916    4.2224   11.8803 C   0  0  0  0  0  0  0  0  0  0  0  0
    1.4862    4.2455   10.9929 C   0  0  0  0  0  0  0  0  0  0  0  0
    1.6099    4.9610    9.8118 C   0  0  0  0  0  0  0  0  0  0  0  0
    2.7334    5.6248    9.4682 O   0  0  0  0  0  0  0  0  0  0  0  0
    3.9800    5.1448   10.0177 C   0  0  0  0  0  0  0  0  0  0  0  0
    4.3988    3.9142    9.1790 C   0  0  0  0  0  0  0  0  0  0  0  0
    5.7579    3.3328    9.5406 C   0  0  0  0  0  0  0  0  0  0  0  0
    4.9528    6.3276    9.9014 C   0  0  0  0  0  0  0  0  0  0  0  0
    5.1415    6.8223    8.4721 C   0  0  0  0  0  0  0  0  0  0  0  0
    3.8054    4.7260   11.4595 C   0  0  0  0  0  0  0  0  0  0  0  0
    4.7709    4.6947   12.4858 C   0  0  0  0  0  0  0  0  0  0  0  0
    0.4384    4.9579    9.0434 C   0  0  0  0  0  0  0  0  0  0  0  0
   -0.5751    4.2224    9.6179 C   0  0  0  0  0  0  0  0  0  0  0  0
   -0.0845    3.5398   11.1486 S   0  0  0  0  0  0  0  0  0  0  0  0
   -1.8413    3.9139    9.0593 C   0  0  0  0  0  0  0  0  0  0  0  0
   -2.2807    4.5317    7.4852 S   0  0  0  0  0  0  0  0  0  0  0  0
   -3.7322    3.5940    7.5038 C   0  0  0  0  0  0  0  0  0  0  0  0
   -4.6832    3.4497    6.4717 C   0  0  0  0  0  0  0  0  0  0  0  0
   -5.8027    2.6611    6.6964 C   0  0  0  0  0  0  0  0  0  0  0  0
   -6.1004    2.1457    7.9067 O   0  0  0  0  0  0  0  0  0  0  0  0
   -5.0128    1.8829    8.8236 C   0  0  0  0  0  0  0  0  0  0  0  0
   -4.5224    0.4533    8.4799 C   0  0  0  0  0  0  0  0  0  0  0  0
   -3.3797   -0.0877    9.3265 C   0  0  0  0  0  0  0  0  0  0  0  0
   -5.6430    1.9581   10.2208 C   0  0  0  0  0  0  0  0  0  0  0  0
   -6.1417    3.3611   10.5456 C   0  0  0  0  0  0  0  0  0  0  0  0
   -3.8763    2.8640    8.6708 C   0  0  0  0  0  0  0  0  0  0  0  0
   -2.8090    3.0637    9.5523 C   0  0  0  0  0  0  0  0  0  0  0  0
   -6.5880    2.4855    5.5470 C   0  0  0  0  0  0  0  0  0  0  0  0
   -6.0781    3.1396    4.4483 C   0  0  0  0  0  0  0  0  0  0  0  0
   -4.6178    4.0175    4.8420 S   0  0  0  0  0  0  0  0  0  0  0  0
   -6.4505    3.0347    3.0808 C   0  0  0  0  0  0  0  0  0  0  0  0
   -7.3399    1.6186    2.5193 S   0  0  0  0  0  0  0  0  0  0  0  0
   -7.0033    2.0508    0.8807 C   0  0  0  0  0  0  0  0  0  0  0  0
   -7.0492    1.5353   -0.4149 C   0  0  0  0  0  0  0  0  0  0  0  0
   -6.3960    2.4699   -1.2457 C   0  0  0  0  0  0  0  0  0  0  0  0
   -5.9714    3.5364   -0.4998 N   0  0  0  0  0  0  0  0  0  0  0  0
   -5.3093    4.7142   -0.9946 C   0  0  0  0  0  0  0  0  0  0  0  0
   -6.3133    5.7917   -1.4001 C   0  0  0  0  0  0  0  0  0  0  0  0
   -6.3154    3.2813    0.8009 C   0  0  0  0  0  0  0  0  0  0  0  0
   -6.0023    3.8276    2.0484 C   0  0  0  0  0  0  0  0  0  0  0  0
   -6.1752    2.0070   -2.5465 C   0  0  0  0  0  0  0  0  0  0  0  0
   -6.6319    0.7192   -2.7155 C   0  0  0  0  0  0  0  0  0  0  0  0
   -7.4415    0.0902   -1.2786 S   0  0  0  0  0  0  0  0  0  0  0  0
   -6.2961   -0.1570   -3.7814 C   0  0  0  0  0  0  0  0  0  0  0  0
   -5.0841    0.3830   -4.9469 S   0  0  0  0  0  0  0  0  0  0  0  0
   -4.9245   -1.2288   -5.5342 C   0  0  0  0  0  0  0  0  0  0  0  0
   -4.0978   -2.0090   -6.3394 C   0  0  0  0  0  0  0  0  0  0  0  0
   -4.5244   -3.3445   -6.1868 C   0  0  0  0  0  0  0  0  0  0  0  0
   -5.6117   -3.3871   -5.3498 N   0  0  0  0  0  0  0  0  0  0  0  0
   -6.2410   -4.5751   -4.8357 C   0  0  0  0  0  0  0  0  0  0  0  0
   -5.5364   -5.0888   -3.5810 C   0  0  0  0  0  0  0  0  0  0  0  0
   -5.8305   -2.1069   -4.9057 C   0  0  0  0  0  0  0  0  0  0  0  0
   -6.6066   -1.4921   -3.9157 C   0  0  0  0  0  0  0  0  0  0  0  0
   -3.6825   -4.2723   -6.8109 C   0  0  0  0  0  0  0  0  0  0  0  0
   -2.6094   -3.6552   -7.4208 C   0  0  0  0  0  0  0  0  0  0  0  0
   -2.6669   -1.9002   -7.2924 S   0  0  0  0  0  0  0  0  0  0  0  0
   -1.4507   -4.2636   -7.9755 C   0  0  0  0  0  0  0  0  0  0  0  0
   -0.0641   -3.2801   -8.3758 S   0  0  0  0  0  0  0  0  0  0  0  0
    0.8678   -4.6918   -8.7207 C   0  0  0  0  0  0  0  0  0  0  0  0
    2.2472   -4.7707   -9.0132 C   0  0  0  0  0  0  0  0  0  0  0  0
    2.8614   -6.0146   -8.9805 C   0  0  0  0  0  0  0  0  0  0  0  0
    2.2034   -7.1680   -8.7507 O   0  0  0  0  0  0  0  0  0  0  0  0
    0.7658   -7.1929   -8.8643 C   0  0  0  0  0  0  0  0  0  0  0  0
    0.3088   -8.2778   -7.8770 C   0  0  0  0  0  0  0  0  0  0  0  0
    0.5637   -7.8815   -6.4271 C   0  0  0  0  0  0  0  0  0  0  0  0
    0.3998   -7.5444  -10.3272 C   0  0  0  0  0  0  0  0  0  0  0  0
    0.9875   -8.8660  -10.8065 C   0  0  0  0  0  0  0  0  0  0  0  0
    0.1383   -5.8551   -8.5541 C   0  0  0  0  0  0  0  0  0  0  0  0
   -1.1752   -5.6057   -8.1427 C   0  0  0  0  0  0  0  0  0  0  0  0
    4.2532   -5.9401   -9.1266 C   0  0  0  0  0  0  0  0  0  0  0  0
    4.7072   -4.6459   -9.2780 C   0  0  0  0  0  0  0  0  0  0  0  0
    3.3936   -3.5007   -9.2557 S   0  0  0  0  0  0  0  0  0  0  0  0
    6.0502   -4.1962   -9.4043 C   0  0  0  0  0  0  0  0  0  0  0  0
    6.3758   -2.4887   -9.6804 S   0  0  0  0  0  0  0  0  0  0  0  0
    8.0714   -2.7931   -9.6383 C   0  0  0  0  0  0  0  0  0  0  0  0
    9.3071   -2.1446   -9.7298 C   0  0  0  0  0  0  0  0  0  0  0  0
   10.2946   -3.1318   -9.5671 C   0  0  0  0  0  0  0  0  0  0  0  0
    9.7043   -4.3580   -9.4020 N   0  0  0  0  0  0  0  0  0  0  0  0
   10.3757   -5.5895   -9.0818 C   0  0  0  0  0  0  0  0  0  0  0  0
   10.5596   -5.7530   -7.5735 C   0  0  0  0  0  0  0  0  0  0  0  0
    8.3477   -4.1579   -9.4249 C   0  0  0  0  0  0  0  0  0  0  0  0
    7.2001   -4.9490   -9.2964 C   0  0  0  0  0  0  0  0  0  0  0  0
   11.6058   -2.6198   -9.6269 C   0  0  0  0  0  0  0  0  0  0  0  0
   11.5941   -1.2755   -9.8316 C   0  0  0  0  0  0  0  0  0  0  0  0
   10.0078   -0.5840   -9.9600 S   0  0  0  0  0  0  0  0  0  0  0  0
    4.8058    4.0322   14.5736 H   0  0  0  0  0  0  0  0  0  0  0  0
    4.3801    4.2015    8.1266 H   0  0  0  0  0  0  0  0  0  0  0  0
    3.6306    3.1487    9.3228 H   0  0  0  0  0  0  0  0  0  0  0  0
    5.7955    3.0678   10.5947 H   0  0  0  0  0  0  0  0  0  0  0  0
    6.5569    4.0383    9.3290 H   0  0  0  0  0  0  0  0  0  0  0  0
    5.9371    2.4331    8.9564 H   0  0  0  0  0  0  0  0  0  0  0  0
    5.9148    6.0387   10.3227 H   0  0  0  0  0  0  0  0  0  0  0  0
    4.5461    7.1386   10.5096 H   0  0  0  0  0  0  0  0  0  0  0  0
    5.7168    7.7451    8.4764 H   0  0  0  0  0  0  0  0  0  0  0  0
    4.1757    7.0165    8.0147 H   0  0  0  0  0  0  0  0  0  0  0  0
    5.6754    6.0921    7.8695 H   0  0  0  0  0  0  0  0  0  0  0  0
    5.7836    5.0379   12.3780 H   0  0  0  0  0  0  0  0  0  0  0  0
    0.3414    5.4601    8.0986 H   0  0  0  0  0  0  0  0  0  0  0  0
   -5.3875   -0.2085    8.5616 H   0  0  0  0  0  0  0  0  0  0  0  0
   -4.2143    0.4645    7.4300 H   0  0  0  0  0  0  0  0  0  0  0  0
   -3.6558   -0.1410   10.3761 H   0  0  0  0  0  0  0  0  0  0  0  0
   -3.1299   -1.0919    8.9918 H   0  0  0  0  0  0  0  0  0  0  0  0
   -2.4927    0.5328    9.2275 H   0  0  0  0  0  0  0  0  0  0  0  0
   -4.9077    1.6460   10.9611 H   0  0  0  0  0  0  0  0  0  0  0  0
   -6.4800    1.2586   10.2453 H   0  0  0  0  0  0  0  0  0  0  0  0
   -6.8585    3.6849    9.7952 H   0  0  0  0  0  0  0  0  0  0  0  0
   -5.3155    4.0687   10.5643 H   0  0  0  0  0  0  0  0  0  0  0  0
   -6.6278    3.3704   11.5180 H   0  0  0  0  0  0  0  0  0  0  0  0
   -2.7149    2.6011   10.5182 H   0  0  0  0  0  0  0  0  0  0  0  0
   -7.4801    1.8879    5.5171 H   0  0  0  0  0  0  0  0  0  0  0  0
   -4.6498    5.0914   -0.2085 H   0  0  0  0  0  0  0  0  0  0  0  0
   -4.6982    4.4278   -1.8547 H   0  0  0  0  0  0  0  0  0  0  0  0
   -6.9696    5.4188   -2.1830 H   0  0  0  0  0  0  0  0  0  0  0  0
   -5.7903    6.6691   -1.7702 H   0  0  0  0  0  0  0  0  0  0  0  0
   -6.9217    6.0802   -0.5460 H   0  0  0  0  0  0  0  0  0  0  0  0
   -5.4430    4.7304    2.2158 H   0  0  0  0  0  0  0  0  0  0  0  0
   -5.6565    2.5417   -3.3215 H   0  0  0  0  0  0  0  0  0  0  0  0
   -7.2842   -4.3381   -4.6093 H   0  0  0  0  0  0  0  0  0  0  0  0
   -6.2201   -5.3380   -5.6188 H   0  0  0  0  0  0  0  0  0  0  0  0
   -6.0295   -5.9852   -3.2152 H   0  0  0  0  0  0  0  0  0  0  0  0
   -5.5602   -4.3319   -2.8006 H   0  0  0  0  0  0  0  0  0  0  0  0
   -4.4978   -5.3236   -3.8023 H   0  0  0  0  0  0  0  0  0  0  0  0
   -7.3212   -1.9847   -3.2813 H   0  0  0  0  0  0  0  0  0  0  0  0
   -3.8101   -5.3387   -6.7854 H   0  0  0  0  0  0  0  0  0  0  0  0
   -0.7507   -8.4794   -8.0367 H   0  0  0  0  0  0  0  0  0  0  0  0
    0.8713   -9.1846   -8.0978 H   0  0  0  0  0  0  0  0  0  0  0  0
   -0.0109   -6.9991   -6.1551 H   0  0  0  0  0  0  0  0  0  0  0  0
    1.6189   -7.6626   -6.2837 H   0  0  0  0  0  0  0  0  0  0  0  0
    0.2852   -8.6958   -5.7623 H   0  0  0  0  0  0  0  0  0  0  0  0
    0.7779   -6.7346  -10.9574 H   0  0  0  0  0  0  0  0  0  0  0  0
   -0.6878   -7.5562  -10.4166 H   0  0  0  0  0  0  0  0  0  0  0  0
    2.0502   -8.9037  -10.5801 H   0  0  0  0  0  0  0  0  0  0  0  0
    0.4975   -9.7103  -10.3290 H   0  0  0  0  0  0  0  0  0  0  0  0
    0.8582   -8.9598  -11.8820 H   0  0  0  0  0  0  0  0  0  0  0  0
   -1.9055   -6.3726   -7.9610 H   0  0  0  0  0  0  0  0  0  0  0  0
    4.8916   -6.8029   -9.1114 H   0  0  0  0  0  0  0  0  0  0  0  0
   11.3486   -5.5892   -9.5809 H   0  0  0  0  0  0  0  0  0  0  0  0
    9.7816   -6.4169   -9.4795 H   0  0  0  0  0  0  0  0  0  0  0  0
    9.5928   -5.7536   -7.0754 H   0  0  0  0  0  0  0  0  0  0  0  0
   11.1516   -4.9319   -7.1760 H   0  0  0  0  0  0  0  0  0  0  0  0
   11.0672   -6.6889   -7.3567 H   0  0  0  0  0  0  0  0  0  0  0  0
    7.1941   -6.0082   -9.1190 H   0  0  0  0  0  0  0  0  0  0  0  0
   12.5050   -3.1997   -9.5236 H   0  0  0  0  0  0  0  0  0  0  0  0
   12.4396   -0.6223   -9.9170 H   0  0  0  0  0  0  0  0  0  0  0  0
  1  2  1  0  0  0  0
  2  3  1  0  0  0  0
  3  4  1  0  0  0  0
  4  5  2  0  0  0  0
  5  6  1  0  0  0  0
  6  7  1  0  0  0  0
  7  8  1  0  0  0  0
  8  9  1  0  0  0  0
  7 10  1  0  0  0  0
 10 11  1  0  0  0  0
  7 12  1  0  0  0  0
 12 13  1  0  0  0  0
  5 14  1  0  0  0  0
 14 15  2  0  0  0  0
 15 16  1  0  0  0  0
 15 17  1  0  0  0  0
 17 18  1  0  0  0  0
 18 19  1  0  0  0  0
 19 20  1  0  0  0  0
 20 21  2  0  0  0  0
 21 22  1  0  0  0  0
 22 23  1  0  0  0  0
 23 24  1  0  0  0  0
 24 25  1  0  0  0  0
 23 26  1  0  0  0  0
 26 27  1  0  0  0  0
 23 28  1  0  0  0  0
 28 29  1  0  0  0  0
 21 30  1  0  0  0  0
 30 31  2  0  0  0  0
 31 32  1  0  0  0  0
 31 33  1  0  0  0  0
 33 34  1  0  0  0  0
 34 35  1  0  0  0  0
 35 36  1  0  0  0  0
 36 37  2  0  0  0  0
 37 38  1  0  0  0  0
 38 39  1  0  0  0  0
 39 40  1  0  0  0  0
 38 41  1  0  0  0  0
 41 42  1  0  0  0  0
 37 43  1  0  0  0  0
 43 44  2  0  0  0  0
 44 45  1  0  0  0  0
 44 46  1  0  0  0  0
 46 47  1  0  0  0  0
 47 48  1  0  0  0  0
 48 49  1  0  0  0  0
 49 50  2  0  0  0  0
 50 51  1  0  0  0  0
 51 52  1  0  0  0  0
 52 53  1  0  0  0  0
 51 54  1  0  0  0  0
 54 55  1  0  0  0  0
 50 56  1  0  0  0  0
 56 57  2  0  0  0  0
 57 58  1  0  0  0  0
 57 59  1  0  0  0  0
 59 60  1  0  0  0  0
 60 61  1  0  0  0  0
 61 62  1  0  0  0  0
 62 63  2  0  0  0  0
 63 64  1  0  0  0  0
 64 65  1  0  0  0  0
 65 66  1  0  0  0  0
 66 67  1  0  0  0  0
 65 68  1  0  0  0  0
 68 69  1  0  0  0  0
 65 70  1  0  0  0  0
 70 71  1  0  0  0  0
 63 72  1  0  0  0  0
 72 73  2  0  0  0  0
 73 74  1  0  0  0  0
 73 75  1  0  0  0  0
 75 76  1  0  0  0  0
 76 77  1  0  0  0  0
 77 78  1  0  0  0  0
 78 79  2  0  0  0  0
 79 80  1  0  0  0  0
 80 81  1  0  0  0  0
 81 82  1  0  0  0  0
 80 83  1  0  0  0  0
 83 84  1  0  0  0  0
 79 85  1  0  0  0  0
 85 86  2  0  0  0  0
 86 87  1  0  0  0  0
 13  1  2  0  0  0  0
 29 17  2  0  0  0  0
 42 33  2  0  0  0  0
 55 46  2  0  0  0  0
 71 59  2  0  0  0  0
 84 75  2  0  0  0  0
 12  3  2  0  0  0  0
 28 19  2  0  0  0  0
 41 35  2  0  0  0  0
 54 48  2  0  0  0  0
 70 61  2  0  0  0  0
 83 77  2  0  0  0  0
 16  4  1  0  0  0  0
 32 20  1  0  0  0  0
 45 36  1  0  0  0  0
 58 49  1  0  0  0  0
 74 62  1  0  0  0  0
 87 78  1  0  0  0  0
  1 88  1  0  0  0  0
  8 89  1  0  0  0  0
  8 90  1  0  0  0  0
  9 91  1  0  0  0  0
  9 92  1  0  0  0  0
  9 93  1  0  0  0  0
 10 94  1  0  0  0  0
 10 95  1  0  0  0  0
 11 96  1  0  0  0  0
 11 97  1  0  0  0  0
 11 98  1  0  0  0  0
 13 99  1  0  0  0  0
 14100  1  0  0  0  0
 24101  1  0  0  0  0
 24102  1  0  0  0  0
 25103  1  0  0  0  0
 25104  1  0  0  0  0
 25105  1  0  0  0  0
 26106  1  0  0  0  0
 26107  1  0  0  0  0
 27108  1  0  0  0  0
 27109  1  0  0  0  0
 27110  1  0  0  0  0
 29111  1  0  0  0  0
 30112  1  0  0  0  0
 39113  1  0  0  0  0
 39114  1  0  0  0  0
 40115  1  0  0  0  0
 40116  1  0  0  0  0
 40117  1  0  0  0  0
 42118  1  0  0  0  0
 43119  1  0  0  0  0
 52120  1  0  0  0  0
 52121  1  0  0  0  0
 53122  1  0  0  0  0
 53123  1  0  0  0  0
 53124  1  0  0  0  0
 55125  1  0  0  0  0
 56126  1  0  0  0  0
 66127  1  0  0  0  0
 66128  1  0  0  0  0
 67129  1  0  0  0  0
 67130  1  0  0  0  0
 67131  1  0  0  0  0
 68132  1  0  0  0  0
 68133  1  0  0  0  0
 69134  1  0  0  0  0
 69135  1  0  0  0  0
 69136  1  0  0  0  0
 71137  1  0  0  0  0
 72138  1  0  0  0  0
 81139  1  0  0  0  0
 81140  1  0  0  0  0
 82141  1  0  0  0  0
 82142  1  0  0  0  0
 82143  1  0  0  0  0
 84144  1  0  0  0  0
 85145  1  0  0  0  0
 86146  1  0  0  0  0
M  END
