130

C          2.19810       -3.19160        3.20300
C          1.82390       -4.49660        3.26140
C          1.29050       -5.22100        4.43910
F          2.14430       -6.15310        4.91720
F          1.04630       -4.38850        5.46390
F          0.14340       -5.87540        4.19540
S          2.04940       -5.31990        1.74990
C          2.63550       -3.85550        1.03110
O          3.03760       -3.78430       -0.23310
C          2.88320       -4.93750       -1.03190
C          2.67230       -2.79910        1.92630
C          3.10000       -1.47430        1.55320
C          3.42880       -0.53690        2.45550
C          3.79680        0.83720        2.22260
C          3.56960        1.59300        1.09260
C          2.79910        1.26320       -0.12400
F          3.45410        0.46020       -0.99500
F          2.48060        2.35800       -0.84280
F          1.63030        0.64820        0.13310
S          4.20760        3.20190        1.21020
C          4.78040        2.86790        2.81310
O          5.44010        3.76920        3.55010
C          5.59390        5.05710        2.99920
C          4.47050        1.60040        3.23360
C          4.85740        1.14100        4.56810
C          4.03370        0.69810        5.53040
C          2.60570        0.59700        5.49260
S          1.62960        1.30350        4.22930
C          0.19950        0.67870        4.95660
C         -1.10050        0.65890        4.40100
C         -2.05120       -0.16730        4.97870
O         -1.83190       -0.88410        6.09210
C         -0.71610       -0.52590        6.94210
C         -0.33830       -1.81880        7.68030
C         -1.48320       -2.41270        8.49240
C         -1.21780        0.59990        7.87610
C         -0.20960        1.04280        8.92680
C          0.44880       -0.00400        6.13260
C          1.81710       -0.04290        6.42670
C         -3.23620       -0.23910        4.22120
C         -3.16930        0.50620        3.07370
S         -1.65330        1.34770        2.92180
C         -4.15470        0.65760        2.02560
C         -5.46700        0.99380        2.23610
C         -6.13600        1.25780        3.53140
F         -6.42490        0.13320        4.22150
F         -5.38700        2.00780        4.36020
F         -7.30150        1.90520        3.38370
S         -6.36030        1.14650        0.76090
C         -4.93810        0.75910       -0.15980
O         -4.95410        0.70350       -1.49260
C         -6.20400        0.84390       -2.13080
C         -3.83890        0.51020        0.63620
C         -2.55850        0.02660        0.17890
C         -2.09400        0.09710       -1.07410
C         -0.83080       -0.45740       -1.51220
C         -0.24010       -1.61860       -1.07710
C         -0.73110       -2.60330       -0.08780
F         -2.05650       -2.81660       -0.14740
F         -0.47390       -2.26580        1.19900
F         -0.15860       -3.81170       -0.24980
S          1.24710       -1.96060       -1.90420
C          1.06260       -0.52650       -2.86300
O          2.07070       -0.30470       -3.71940
C          2.26920        0.99910       -4.22790
C         -0.08040        0.16570       -2.56190
C         -0.52810        1.43760       -3.13830
C         -0.93840        1.63170       -4.39870
C         -1.06560        0.65910       -5.44280
S         -0.83930       -1.05600       -5.20720
C         -1.23390       -1.35960       -6.85990
C         -1.31370       -2.60710       -7.52930
C         -1.81350       -2.63410       -8.81760
O         -2.24260       -1.54470       -9.48400
C         -1.82740       -0.23940       -9.03270
C         -2.98710        0.69970       -9.39910
C         -4.23330        0.42700       -8.56460
C         -0.51920        0.13450       -9.77220
C         -0.64790        0.12380      -11.29030
C         -1.53110       -0.20380       -7.55270
C         -1.43000        0.93390       -6.74260
C         -1.88420       -3.94310       -9.34480
C         -1.43170       -4.87330       -8.46200
S         -0.91080       -4.19360       -6.97040
H          2.10590       -2.52290        4.03940
H          3.48700       -5.76230       -0.64070
H          1.83500       -5.24450       -1.07140
H          3.22590       -4.66090       -2.02590
H          3.15820       -1.30600        0.49020
H          3.46000       -0.82030        3.49670
H          6.15820        5.01790        2.06180
H          6.14220        5.63860        3.73710
H          4.62070        5.52030        2.80840
H          5.91260        1.22650        4.78930
H          4.47170        0.36700        6.46390
H          0.51100       -1.61870        8.33220
H         -0.02370       -2.54310        6.92700
H         -1.72710       -1.78900        9.34870
H         -2.36680       -2.51690        7.86970
H         -1.19780       -3.39620        8.85720
H         -1.47940        1.45340        7.24390
H         -2.13470        0.25530        8.35550
H         -0.61240        1.88240        9.48830
H          0.72050        1.35930        8.46000
H          0.00660        0.23990        9.62640
H          2.23880       -0.53820        7.28270
H         -4.07700       -0.84740        4.49670
H         -6.01050        0.75340       -3.19760
H         -6.64580        1.82180       -1.91340
H         -6.89840        0.06120       -1.81130
H         -1.95100       -0.42620        0.94740
H         -2.65150        0.62300       -1.83510
H          1.57740        1.21310       -5.04690
H          3.29270        1.01190       -4.59940
H          2.14990        1.75430       -3.44880
H         -0.56440        2.26540       -2.44170
H         -1.23820        2.62980       -4.69420
H         -2.66250        1.73260       -9.27020
H         -3.22380        0.53890      -10.45050
H         -4.04590        0.61600       -7.50990
H         -4.53770       -0.61030       -8.68080
H         -5.04960        1.06630       -8.89190
H          0.24060       -0.59270       -9.47150
H         -0.19530        1.11740       -9.42530
H         -1.25550        0.95470      -11.63850
H          0.33610        0.20600      -11.74560
H         -1.10550       -0.80610      -11.61840
H         -1.61130        1.93650       -7.08750
H         -2.25490       -4.16530      -10.32790
H         -1.36520       -5.93350       -8.60140
