198

C          0.46990       -2.76050       16.10380
C          0.37960       -1.82480       15.13700
C         -0.67710       -2.08250       14.21590
C         -1.04290       -1.34520       13.07940
C         -0.32740       -0.14270       12.67990
S          1.38750       -0.15990       12.39220
C          1.40970        1.51160       11.94410
C          2.66300        2.17720       11.49350
C          2.85680        2.01050        9.98430
C          0.15400        2.03580       12.01390
Cl        -0.22080        3.66910       11.64600
C         -0.83270        1.10280       12.43240
Cl        -2.47170        1.54210       12.67140
C         -2.10590       -1.82800       12.32810
C         -2.82390       -3.00180       12.66670
C         -2.46910       -3.72860       13.81500
C         -3.16300       -4.95050       14.18910
S         -3.29140       -6.28910       13.08470
C         -4.12890       -7.26720       14.24150
C         -4.51350       -8.67210       13.93260
C         -3.36220       -9.63220       14.24190
C         -4.28970       -6.58370       15.40900
C         -3.74680       -5.27040       15.38260
Cl        -3.89550       -4.18750       16.70230
Cl        -5.07910       -7.22500       16.79080
C         -1.39710       -3.25060       14.56080
S         -0.72180       -4.00660       15.97590
C         -3.84910       -3.28440       11.73140
C         -3.90230       -2.39490       10.69520
S         -2.68950       -1.13950       10.84270
C         -4.77250       -2.40710        9.56880
S         -4.55740       -1.25580        8.27690
C         -5.85550       -1.97160        7.39490
C         -6.30010       -1.65320        6.09380
C         -7.24960       -2.47000        5.49450
O         -7.83370       -3.51650        6.09640
C         -7.60190       -3.78760        7.49610
C         -8.88840       -3.40700        8.26340
C         -9.20620       -1.91840        8.18760
C         -7.37030       -5.30910        7.57900
C         -6.07790       -5.73500        6.89280
C         -6.42880       -3.03490        8.06980
C         -5.81240       -3.27360        9.30160
C         -7.49590       -2.12150        4.15720
C         -6.74810       -1.04320        3.74160
S         -5.73350       -0.42600        5.01890
C         -6.63840       -0.49030        2.43700
C         -5.87590        0.57860        2.06110
C         -5.81740        0.76940        0.66220
C         -5.03920        1.69460       -0.05660
C         -4.24430        2.71540        0.60520
S         -3.11120        2.33270        1.86800
C         -2.62210        3.98250        2.04120
C         -1.55930        4.38000        3.00510
C         -0.18710        4.40120        2.32700
C         -3.29880        4.77100        1.15940
Cl        -3.08450        6.46890        1.03990
C         -4.21830        4.05830        0.34490
Cl        -5.24230        4.84060       -0.78420
C         -5.01340        1.55240       -1.43660
C         -5.77680        0.58370       -2.13610
C         -6.64290       -0.26550       -1.42140
C         -7.49030       -1.24280       -2.08390
S         -6.85780       -2.40130       -3.21710
C         -8.40490       -3.14480       -3.44790
C         -8.58470       -4.26750       -4.40900
C         -8.62290       -3.75640       -5.85080
C         -9.34700       -2.51360       -2.69330
C         -8.83250       -1.44220       -1.91420
Cl        -9.83560       -0.46000       -0.93180
Cl       -11.00490       -2.95500       -2.66360
C         -6.61240       -0.17360       -0.03530
S         -7.40630       -1.26600        1.06600
C         -5.47410        0.57080       -3.51760
C         -4.48110        1.44490       -3.86810
S         -3.94720        2.41050       -2.50790
C         -3.78940        1.53610       -5.10700
S         -2.43440        2.62200       -5.27790
C         -2.06690        1.95340       -6.82510
C         -0.88990        2.13750       -7.58310
C         -0.56640        1.17120       -8.52950
O         -1.39610        0.17160       -8.87490
C         -2.79900        0.30850       -8.55030
C         -3.43550        1.20500       -9.63620
C         -4.94110        1.37710       -9.49310
C         -3.35020       -1.12490       -8.53640
C         -3.15820       -1.86460       -9.85510
C         -2.96800        0.96770       -7.20160
C         -3.93930        0.73910       -6.22490
C          0.74680        1.29150       -9.00440
C          1.42010        2.35790       -8.44970
S          0.41490        3.24450       -7.32980
C          2.77880        2.72730       -8.61820
S          3.93370        1.60140       -9.28820
C          5.22450        2.70270       -8.95800
C          6.60550        2.52510       -9.18980
C          7.44940        3.61770       -9.03500
O          7.00040        4.84990       -8.72630
C          5.76950        4.94780       -7.97530
C          6.14000        4.72940       -6.48950
C          4.99680        4.92470       -5.50450
C          5.22400        6.35180       -8.27940
C          6.18240        7.47380       -7.89840
C          4.77700        3.88990       -8.39990
C          3.39380        3.89150       -8.20660
C          8.79340        3.30980       -9.28100
C          8.98800        1.98200       -9.59540
S          7.48240        1.09790       -9.61810
C         10.21400        1.30680       -9.82120
S         11.73190        2.17130       -9.79630
C         12.59680        0.70110      -10.07330
C         13.99730        0.50040      -10.14430
C         14.47410       -0.79850      -10.15720
O         13.69060       -1.89130      -10.10490
C         12.30360       -1.77030      -10.46730
C         11.52310       -2.82540       -9.64840
C         12.34920       -4.02890       -9.20700
C         12.17840       -1.97070      -11.99770
C         12.69200       -3.31160      -12.50430
C         11.75610       -0.39150      -10.17030
C         10.40970       -0.04100      -10.03500
C         15.88570       -0.85780      -10.16210
C         16.44880        0.38010      -10.16520
S         15.28930        1.65060      -10.15880
H          1.17180       -2.80590       16.91340
H          1.03380       -0.97550       15.06560
H          3.51430        1.74320       12.02040
H          2.60270        3.23960       11.73790
H          3.77060        2.50640        9.66840
H          2.92350        0.95630        9.72640
H          2.01880        2.44720        9.44720
H         -5.38300       -8.93830       14.53650
H         -4.78010       -8.75220       12.87740
H         -2.48950       -9.37960       13.64440
H         -3.09340       -9.57050       15.29330
H         -3.65680      -10.65360       14.01650
H         -4.51370       -4.12300       11.82070
H         -8.76730       -3.70470        9.30600
H         -9.71470       -3.97670        7.83460
H        -10.12470       -1.70740        8.72950
H         -9.34080       -1.60720        7.15420
H         -8.40510       -1.32750        8.62670
H         -8.21680       -5.79600        7.09250
H         -7.35670       -5.61120        8.62620
H         -6.08380       -5.41850        5.85250
H         -5.21390       -5.29360        7.38510
H         -5.97740       -6.81690        6.92340
H         -6.10520       -4.05140        9.98220
H         -8.18000       -2.64840        3.51800
H         -5.34230        1.18120        2.77320
H         -1.78870        5.37550        3.39090
H         -1.54560        3.67520        3.83780
H          0.57780        4.69040        3.04260
H         -0.18450        5.11340        1.50590
H          0.05540        3.41670        1.93400
H         -7.76200       -4.97670       -4.29850
H         -9.52030       -4.77780       -4.17460
H         -9.44150       -3.05270       -5.97980
H         -7.68980       -3.25490       -6.09680
H         -8.76530       -4.58610       -6.53790
H         -5.94100       -0.09400       -4.21940
H         -3.19390        0.78290      -10.61250
H         -2.95330        2.18460       -9.57320
H         -5.46200        0.43800       -9.65940
H         -5.29860        2.09690      -10.22550
H         -5.19340        1.74480       -8.50100
H         -2.82570       -1.66360       -7.74420
H         -4.40860       -1.09360       -8.28150
H         -3.43080       -2.91000       -9.73110
H         -2.11880       -1.81090      -10.16550
H         -3.78160       -1.44190      -10.63850
H         -4.71930        0.00520       -6.30330
H          1.19090        0.61660       -9.71230
H          6.96080        5.40740       -6.25020
H          6.52270        3.70820       -6.39940
H          4.62610        5.94570       -5.52860
H          5.34730        4.71530       -4.49650
H          4.17410        4.24880       -5.72460
H          4.27400        6.48320       -7.76350
H          5.03300        6.39450       -9.35410
H          7.16000        7.29400       -8.33620
H          6.28870        7.55170       -6.81980
H          5.80260        8.42180       -8.27200
H          2.83210        4.70080       -7.77640
H          9.59280        4.02470       -9.21770
H         11.13390       -2.33830       -8.75110
H         10.67120       -3.15780      -10.24290
H         11.71440       -4.71270       -8.64770
H         12.77010       -4.55900      -10.05440
H         13.16590       -3.71110       -8.56540
H         12.75000       -1.16780      -12.47300
H         11.13030       -1.83880      -12.27280
H         12.71870       -3.30740      -13.59170
H         12.04610       -4.12400      -12.18330
H         13.69850       -3.49090      -12.13460
H          9.59020       -0.73520      -10.08530
H         16.43790       -1.77880      -10.16150
H         17.49100        0.62800      -10.17840
