
  xtb     03012203363D
 energy: -348.191153811224 gnorm: 0.000189112327 xtb: 6.4.1 (unknown)
198219  0     0  0            999 V2000
    0.4699   -2.7605   16.1038 C   0  0  0  0  0  0  0  0  0  0  0  0
    0.3796   -1.8248   15.1370 C   0  0  0  0  0  0  0  0  0  0  0  0
   -0.6771   -2.0825   14.2159 C   0  0  0  0  0  0  0  0  0  0  0  0
   -1.0429   -1.3452   13.0794 C   0  0  0  0  0  0  0  0  0  0  0  0
   -0.3274   -0.1427   12.6799 C   0  0  0  0  0  0  0  0  0  0  0  0
    1.3875   -0.1599   12.3922 S   0  0  0  0  0  0  0  0  0  0  0  0
    1.4097    1.5116   11.9441 C   0  0  0  0  0  0  0  0  0  0  0  0
    2.6630    2.1772   11.4935 C   0  0  0  0  0  0  0  0  0  0  0  0
    2.8568    2.0105    9.9843 C   0  0  0  0  0  0  0  0  0  0  0  0
    0.1540    2.0358   12.0139 C   0  0  0  0  0  0  0  0  0  0  0  0
   -0.2208    3.6691   11.6460 Cl  0  0  0  0  0  0  0  0  0  0  0  0
   -0.8327    1.1028   12.4324 C   0  0  0  0  0  0  0  0  0  0  0  0
   -2.4717    1.5421   12.6714 Cl  0  0  0  0  0  0  0  0  0  0  0  0
   -2.1059   -1.8280   12.3281 C   0  0  0  0  0  0  0  0  0  0  0  0
   -2.8239   -3.0018   12.6667 C   0  0  0  0  0  0  0  0  0  0  0  0
   -2.4691   -3.7286   13.8150 C   0  0  0  0  0  0  0  0  0  0  0  0
   -3.1630   -4.9505   14.1891 C   0  0  0  0  0  0  0  0  0  0  0  0
   -3.2914   -6.2891   13.0847 S   0  0  0  0  0  0  0  0  0  0  0  0
   -4.1289   -7.2672   14.2415 C   0  0  0  0  0  0  0  0  0  0  0  0
   -4.5135   -8.6721   13.9326 C   0  0  0  0  0  0  0  0  0  0  0  0
   -3.3622   -9.6322   14.2419 C   0  0  0  0  0  0  0  0  0  0  0  0
   -4.2897   -6.5837   15.4090 C   0  0  0  0  0  0  0  0  0  0  0  0
   -3.7468   -5.2704   15.3826 C   0  0  0  0  0  0  0  0  0  0  0  0
   -3.8955   -4.1875   16.7023 Cl  0  0  0  0  0  0  0  0  0  0  0  0
   -5.0791   -7.2250   16.7908 Cl  0  0  0  0  0  0  0  0  0  0  0  0
   -1.3971   -3.2506   14.5608 C   0  0  0  0  0  0  0  0  0  0  0  0
   -0.7218   -4.0066   15.9759 S   0  0  0  0  0  0  0  0  0  0  0  0
   -3.8491   -3.2844   11.7314 C   0  0  0  0  0  0  0  0  0  0  0  0
   -3.9023   -2.3949   10.6952 C   0  0  0  0  0  0  0  0  0  0  0  0
   -2.6895   -1.1395   10.8427 S   0  0  0  0  0  0  0  0  0  0  0  0
   -4.7725   -2.4071    9.5688 C   0  0  0  0  0  0  0  0  0  0  0  0
   -4.5574   -1.2558    8.2769 S   0  0  0  0  0  0  0  0  0  0  0  0
   -5.8555   -1.9716    7.3949 C   0  0  0  0  0  0  0  0  0  0  0  0
   -6.3001   -1.6532    6.0938 C   0  0  0  0  0  0  0  0  0  0  0  0
   -7.2496   -2.4700    5.4945 C   0  0  0  0  0  0  0  0  0  0  0  0
   -7.8337   -3.5165    6.0964 O   0  0  0  0  0  0  0  0  0  0  0  0
   -7.6019   -3.7876    7.4961 C   0  0  0  0  0  0  0  0  0  0  0  0
   -8.8884   -3.4070    8.2634 C   0  0  0  0  0  0  0  0  0  0  0  0
   -9.2062   -1.9184    8.1876 C   0  0  0  0  0  0  0  0  0  0  0  0
   -7.3703   -5.3091    7.5790 C   0  0  0  0  0  0  0  0  0  0  0  0
   -6.0779   -5.7350    6.8928 C   0  0  0  0  0  0  0  0  0  0  0  0
   -6.4288   -3.0349    8.0698 C   0  0  0  0  0  0  0  0  0  0  0  0
   -5.8124   -3.2736    9.3016 C   0  0  0  0  0  0  0  0  0  0  0  0
   -7.4959   -2.1215    4.1572 C   0  0  0  0  0  0  0  0  0  0  0  0
   -6.7481   -1.0432    3.7416 C   0  0  0  0  0  0  0  0  0  0  0  0
   -5.7335   -0.4260    5.0189 S   0  0  0  0  0  0  0  0  0  0  0  0
   -6.6384   -0.4903    2.4370 C   0  0  0  0  0  0  0  0  0  0  0  0
   -5.8759    0.5786    2.0611 C   0  0  0  0  0  0  0  0  0  0  0  0
   -5.8174    0.7694    0.6622 C   0  0  0  0  0  0  0  0  0  0  0  0
   -5.0392    1.6946   -0.0566 C   0  0  0  0  0  0  0  0  0  0  0  0
   -4.2443    2.7154    0.6052 C   0  0  0  0  0  0  0  0  0  0  0  0
   -3.1112    2.3327    1.8680 S   0  0  0  0  0  0  0  0  0  0  0  0
   -2.6221    3.9825    2.0412 C   0  0  0  0  0  0  0  0  0  0  0  0
   -1.5593    4.3800    3.0051 C   0  0  0  0  0  0  0  0  0  0  0  0
   -0.1871    4.4012    2.3270 C   0  0  0  0  0  0  0  0  0  0  0  0
   -3.2988    4.7710    1.1594 C   0  0  0  0  0  0  0  0  0  0  0  0
   -3.0845    6.4689    1.0399 Cl  0  0  0  0  0  0  0  0  0  0  0  0
   -4.2183    4.0583    0.3449 C   0  0  0  0  0  0  0  0  0  0  0  0
   -5.2423    4.8406   -0.7842 Cl  0  0  0  0  0  0  0  0  0  0  0  0
   -5.0134    1.5524   -1.4366 C   0  0  0  0  0  0  0  0  0  0  0  0
   -5.7768    0.5837   -2.1361 C   0  0  0  0  0  0  0  0  0  0  0  0
   -6.6429   -0.2655   -1.4214 C   0  0  0  0  0  0  0  0  0  0  0  0
   -7.4903   -1.2428   -2.0839 C   0  0  0  0  0  0  0  0  0  0  0  0
   -6.8578   -2.4013   -3.2171 S   0  0  0  0  0  0  0  0  0  0  0  0
   -8.4049   -3.1448   -3.4479 C   0  0  0  0  0  0  0  0  0  0  0  0
   -8.5847   -4.2675   -4.4090 C   0  0  0  0  0  0  0  0  0  0  0  0
   -8.6229   -3.7564   -5.8508 C   0  0  0  0  0  0  0  0  0  0  0  0
   -9.3470   -2.5136   -2.6933 C   0  0  0  0  0  0  0  0  0  0  0  0
   -8.8325   -1.4422   -1.9142 C   0  0  0  0  0  0  0  0  0  0  0  0
   -9.8356   -0.4600   -0.9318 Cl  0  0  0  0  0  0  0  0  0  0  0  0
  -11.0049   -2.9550   -2.6636 Cl  0  0  0  0  0  0  0  0  0  0  0  0
   -6.6124   -0.1736   -0.0353 C   0  0  0  0  0  0  0  0  0  0  0  0
   -7.4063   -1.2660    1.0660 S   0  0  0  0  0  0  0  0  0  0  0  0
   -5.4741    0.5708   -3.5176 C   0  0  0  0  0  0  0  0  0  0  0  0
   -4.4811    1.4449   -3.8681 C   0  0  0  0  0  0  0  0  0  0  0  0
   -3.9472    2.4105   -2.5079 S   0  0  0  0  0  0  0  0  0  0  0  0
   -3.7894    1.5361   -5.1070 C   0  0  0  0  0  0  0  0  0  0  0  0
   -2.4344    2.6220   -5.2779 S   0  0  0  0  0  0  0  0  0  0  0  0
   -2.0669    1.9534   -6.8251 C   0  0  0  0  0  0  0  0  0  0  0  0
   -0.8899    2.1375   -7.5831 C   0  0  0  0  0  0  0  0  0  0  0  0
   -0.5664    1.1712   -8.5295 C   0  0  0  0  0  0  0  0  0  0  0  0
   -1.3961    0.1716   -8.8749 O   0  0  0  0  0  0  0  0  0  0  0  0
   -2.7990    0.3085   -8.5503 C   0  0  0  0  0  0  0  0  0  0  0  0
   -3.4355    1.2050   -9.6362 C   0  0  0  0  0  0  0  0  0  0  0  0
   -4.9411    1.3771   -9.4931 C   0  0  0  0  0  0  0  0  0  0  0  0
   -3.3502   -1.1249   -8.5364 C   0  0  0  0  0  0  0  0  0  0  0  0
   -3.1582   -1.8646   -9.8551 C   0  0  0  0  0  0  0  0  0  0  0  0
   -2.9680    0.9677   -7.2016 C   0  0  0  0  0  0  0  0  0  0  0  0
   -3.9393    0.7391   -6.2249 C   0  0  0  0  0  0  0  0  0  0  0  0
    0.7468    1.2915   -9.0044 C   0  0  0  0  0  0  0  0  0  0  0  0
    1.4201    2.3579   -8.4497 C   0  0  0  0  0  0  0  0  0  0  0  0
    0.4149    3.2445   -7.3298 S   0  0  0  0  0  0  0  0  0  0  0  0
    2.7788    2.7273   -8.6182 C   0  0  0  0  0  0  0  0  0  0  0  0
    3.9337    1.6014   -9.2882 S   0  0  0  0  0  0  0  0  0  0  0  0
    5.2245    2.7027   -8.9580 C   0  0  0  0  0  0  0  0  0  0  0  0
    6.6055    2.5251   -9.1898 C   0  0  0  0  0  0  0  0  0  0  0  0
    7.4494    3.6177   -9.0350 C   0  0  0  0  0  0  0  0  0  0  0  0
    7.0004    4.8499   -8.7263 O   0  0  0  0  0  0  0  0  0  0  0  0
    5.7695    4.9478   -7.9753 C   0  0  0  0  0  0  0  0  0  0  0  0
    6.1400    4.7294   -6.4895 C   0  0  0  0  0  0  0  0  0  0  0  0
    4.9968    4.9247   -5.5045 C   0  0  0  0  0  0  0  0  0  0  0  0
    5.2240    6.3518   -8.2794 C   0  0  0  0  0  0  0  0  0  0  0  0
    6.1824    7.4738   -7.8984 C   0  0  0  0  0  0  0  0  0  0  0  0
    4.7770    3.8899   -8.3999 C   0  0  0  0  0  0  0  0  0  0  0  0
    3.3938    3.8915   -8.2066 C   0  0  0  0  0  0  0  0  0  0  0  0
    8.7934    3.3098   -9.2810 C   0  0  0  0  0  0  0  0  0  0  0  0
    8.9880    1.9820   -9.5954 C   0  0  0  0  0  0  0  0  0  0  0  0
    7.4824    1.0979   -9.6181 S   0  0  0  0  0  0  0  0  0  0  0  0
   10.2140    1.3068   -9.8212 C   0  0  0  0  0  0  0  0  0  0  0  0
   11.7319    2.1713   -9.7963 S   0  0  0  0  0  0  0  0  0  0  0  0
   12.5968    0.7011  -10.0733 C   0  0  0  0  0  0  0  0  0  0  0  0
   13.9973    0.5004  -10.1443 C   0  0  0  0  0  0  0  0  0  0  0  0
   14.4741   -0.7985  -10.1572 C   0  0  0  0  0  0  0  0  0  0  0  0
   13.6906   -1.8913  -10.1049 O   0  0  0  0  0  0  0  0  0  0  0  0
   12.3036   -1.7703  -10.4673 C   0  0  0  0  0  0  0  0  0  0  0  0
   11.5231   -2.8254   -9.6484 C   0  0  0  0  0  0  0  0  0  0  0  0
   12.3492   -4.0289   -9.2070 C   0  0  0  0  0  0  0  0  0  0  0  0
   12.1784   -1.9707  -11.9977 C   0  0  0  0  0  0  0  0  0  0  0  0
   12.6920   -3.3116  -12.5043 C   0  0  0  0  0  0  0  0  0  0  0  0
   11.7561   -0.3915  -10.1703 C   0  0  0  0  0  0  0  0  0  0  0  0
   10.4097   -0.0410  -10.0350 C   0  0  0  0  0  0  0  0  0  0  0  0
   15.8857   -0.8578  -10.1621 C   0  0  0  0  0  0  0  0  0  0  0  0
   16.4488    0.3801  -10.1652 C   0  0  0  0  0  0  0  0  0  0  0  0
   15.2893    1.6506  -10.1588 S   0  0  0  0  0  0  0  0  0  0  0  0
    1.1718   -2.8059   16.9134 H   0  0  0  0  0  0  0  0  0  0  0  0
    1.0338   -0.9755   15.0656 H   0  0  0  0  0  0  0  0  0  0  0  0
    3.5143    1.7432   12.0204 H   0  0  0  0  0  0  0  0  0  0  0  0
    2.6027    3.2396   11.7379 H   0  0  0  0  0  0  0  0  0  0  0  0
    3.7706    2.5064    9.6684 H   0  0  0  0  0  0  0  0  0  0  0  0
    2.9235    0.9563    9.7264 H   0  0  0  0  0  0  0  0  0  0  0  0
    2.0188    2.4472    9.4472 H   0  0  0  0  0  0  0  0  0  0  0  0
   -5.3830   -8.9383   14.5365 H   0  0  0  0  0  0  0  0  0  0  0  0
   -4.7801   -8.7522   12.8774 H   0  0  0  0  0  0  0  0  0  0  0  0
   -2.4895   -9.3796   13.6444 H   0  0  0  0  0  0  0  0  0  0  0  0
   -3.0934   -9.5705   15.2933 H   0  0  0  0  0  0  0  0  0  0  0  0
   -3.6568  -10.6536   14.0165 H   0  0  0  0  0  0  0  0  0  0  0  0
   -4.5137   -4.1230   11.8207 H   0  0  0  0  0  0  0  0  0  0  0  0
   -8.7673   -3.7047    9.3060 H   0  0  0  0  0  0  0  0  0  0  0  0
   -9.7147   -3.9767    7.8346 H   0  0  0  0  0  0  0  0  0  0  0  0
  -10.1247   -1.7074    8.7295 H   0  0  0  0  0  0  0  0  0  0  0  0
   -9.3408   -1.6072    7.1542 H   0  0  0  0  0  0  0  0  0  0  0  0
   -8.4051   -1.3275    8.6267 H   0  0  0  0  0  0  0  0  0  0  0  0
   -8.2168   -5.7960    7.0925 H   0  0  0  0  0  0  0  0  0  0  0  0
   -7.3567   -5.6112    8.6262 H   0  0  0  0  0  0  0  0  0  0  0  0
   -6.0838   -5.4185    5.8525 H   0  0  0  0  0  0  0  0  0  0  0  0
   -5.2139   -5.2936    7.3851 H   0  0  0  0  0  0  0  0  0  0  0  0
   -5.9774   -6.8169    6.9234 H   0  0  0  0  0  0  0  0  0  0  0  0
   -6.1052   -4.0514    9.9822 H   0  0  0  0  0  0  0  0  0  0  0  0
   -8.1800   -2.6484    3.5180 H   0  0  0  0  0  0  0  0  0  0  0  0
   -5.3423    1.1812    2.7732 H   0  0  0  0  0  0  0  0  0  0  0  0
   -1.7887    5.3755    3.3909 H   0  0  0  0  0  0  0  0  0  0  0  0
   -1.5456    3.6752    3.8378 H   0  0  0  0  0  0  0  0  0  0  0  0
    0.5778    4.6904    3.0426 H   0  0  0  0  0  0  0  0  0  0  0  0
   -0.1845    5.1134    1.5059 H   0  0  0  0  0  0  0  0  0  0  0  0
    0.0554    3.4167    1.9340 H   0  0  0  0  0  0  0  0  0  0  0  0
   -7.7620   -4.9767   -4.2985 H   0  0  0  0  0  0  0  0  0  0  0  0
   -9.5203   -4.7778   -4.1746 H   0  0  0  0  0  0  0  0  0  0  0  0
   -9.4415   -3.0527   -5.9798 H   0  0  0  0  0  0  0  0  0  0  0  0
   -7.6898   -3.2549   -6.0968 H   0  0  0  0  0  0  0  0  0  0  0  0
   -8.7653   -4.5861   -6.5379 H   0  0  0  0  0  0  0  0  0  0  0  0
   -5.9410   -0.0940   -4.2194 H   0  0  0  0  0  0  0  0  0  0  0  0
   -3.1939    0.7829  -10.6125 H   0  0  0  0  0  0  0  0  0  0  0  0
   -2.9533    2.1846   -9.5732 H   0  0  0  0  0  0  0  0  0  0  0  0
   -5.4620    0.4380   -9.6594 H   0  0  0  0  0  0  0  0  0  0  0  0
   -5.2986    2.0969  -10.2255 H   0  0  0  0  0  0  0  0  0  0  0  0
   -5.1934    1.7448   -8.5010 H   0  0  0  0  0  0  0  0  0  0  0  0
   -2.8257   -1.6636   -7.7442 H   0  0  0  0  0  0  0  0  0  0  0  0
   -4.4086   -1.0936   -8.2815 H   0  0  0  0  0  0  0  0  0  0  0  0
   -3.4308   -2.9100   -9.7311 H   0  0  0  0  0  0  0  0  0  0  0  0
   -2.1188   -1.8109  -10.1655 H   0  0  0  0  0  0  0  0  0  0  0  0
   -3.7816   -1.4419  -10.6385 H   0  0  0  0  0  0  0  0  0  0  0  0
   -4.7193    0.0052   -6.3033 H   0  0  0  0  0  0  0  0  0  0  0  0
    1.1909    0.6166   -9.7123 H   0  0  0  0  0  0  0  0  0  0  0  0
    6.9608    5.4074   -6.2502 H   0  0  0  0  0  0  0  0  0  0  0  0
    6.5227    3.7082   -6.3994 H   0  0  0  0  0  0  0  0  0  0  0  0
    4.6261    5.9457   -5.5286 H   0  0  0  0  0  0  0  0  0  0  0  0
    5.3473    4.7153   -4.4965 H   0  0  0  0  0  0  0  0  0  0  0  0
    4.1741    4.2488   -5.7246 H   0  0  0  0  0  0  0  0  0  0  0  0
    4.2740    6.4832   -7.7635 H   0  0  0  0  0  0  0  0  0  0  0  0
    5.0330    6.3945   -9.3541 H   0  0  0  0  0  0  0  0  0  0  0  0
    7.1600    7.2940   -8.3362 H   0  0  0  0  0  0  0  0  0  0  0  0
    6.2887    7.5517   -6.8198 H   0  0  0  0  0  0  0  0  0  0  0  0
    5.8026    8.4218   -8.2720 H   0  0  0  0  0  0  0  0  0  0  0  0
    2.8321    4.7008   -7.7764 H   0  0  0  0  0  0  0  0  0  0  0  0
    9.5928    4.0247   -9.2177 H   0  0  0  0  0  0  0  0  0  0  0  0
   11.1339   -2.3383   -8.7511 H   0  0  0  0  0  0  0  0  0  0  0  0
   10.6712   -3.1578  -10.2429 H   0  0  0  0  0  0  0  0  0  0  0  0
   11.7144   -4.7127   -8.6477 H   0  0  0  0  0  0  0  0  0  0  0  0
   12.7701   -4.5590  -10.0544 H   0  0  0  0  0  0  0  0  0  0  0  0
   13.1659   -3.7111   -8.5654 H   0  0  0  0  0  0  0  0  0  0  0  0
   12.7500   -1.1678  -12.4730 H   0  0  0  0  0  0  0  0  0  0  0  0
   11.1303   -1.8388  -12.2728 H   0  0  0  0  0  0  0  0  0  0  0  0
   12.7187   -3.3074  -13.5917 H   0  0  0  0  0  0  0  0  0  0  0  0
   12.0461   -4.1240  -12.1833 H   0  0  0  0  0  0  0  0  0  0  0  0
   13.6985   -3.4909  -12.1346 H   0  0  0  0  0  0  0  0  0  0  0  0
    9.5902   -0.7352  -10.0853 H   0  0  0  0  0  0  0  0  0  0  0  0
   16.4379   -1.7788  -10.1615 H   0  0  0  0  0  0  0  0  0  0  0  0
   17.4910    0.6280  -10.1784 H   0  0  0  0  0  0  0  0  0  0  0  0
  1  2  2  0  0  0  0
  2  3  1  0  0  0  0
  3  4  2  0  0  0  0
  4  5  1  0  0  0  0
  5  6  1  0  0  0  0
  6  7  1  0  0  0  0
  7  8  1  0  0  0  0
  8  9  1  0  0  0  0
  7 10  2  0  0  0  0
 10 11  1  0  0  0  0
 10 12  1  0  0  0  0
 12 13  1  0  0  0  0
  4 14  1  0  0  0  0
 14 15  2  0  0  0  0
 15 16  1  0  0  0  0
 16 17  1  0  0  0  0
 17 18  1  0  0  0  0
 18 19  1  0  0  0  0
 19 20  1  0  0  0  0
 20 21  1  0  0  0  0
 19 22  2  0  0  0  0
 22 23  1  0  0  0  0
 23 24  1  0  0  0  0
 22 25  1  0  0  0  0
 16 26  2  0  0  0  0
 26 27  1  0  0  0  0
 15 28  1  0  0  0  0
 28 29  2  0  0  0  0
 29 30  1  0  0  0  0
 29 31  1  0  0  0  0
 31 32  1  0  0  0  0
 32 33  1  0  0  0  0
 33 34  1  0  0  0  0
 34 35  2  0  0  0  0
 35 36  1  0  0  0  0
 36 37  1  0  0  0  0
 37 38  1  0  0  0  0
 38 39  1  0  0  0  0
 37 40  1  0  0  0  0
 40 41  1  0  0  0  0
 37 42  1  0  0  0  0
 42 43  1  0  0  0  0
 35 44  1  0  0  0  0
 44 45  2  0  0  0  0
 45 46  1  0  0  0  0
 45 47  1  0  0  0  0
 47 48  2  0  0  0  0
 48 49  1  0  0  0  0
 49 50  2  0  0  0  0
 50 51  1  0  0  0  0
 51 52  1  0  0  0  0
 52 53  1  0  0  0  0
 53 54  1  0  0  0  0
 54 55  1  0  0  0  0
 53 56  2  0  0  0  0
 56 57  1  0  0  0  0
 56 58  1  0  0  0  0
 58 59  1  0  0  0  0
 50 60  1  0  0  0  0
 60 61  2  0  0  0  0
 61 62  1  0  0  0  0
 62 63  1  0  0  0  0
 63 64  1  0  0  0  0
 64 65  1  0  0  0  0
 65 66  1  0  0  0  0
 66 67  1  0  0  0  0
 65 68  2  0  0  0  0
 68 69  1  0  0  0  0
 69 70  1  0  0  0  0
 68 71  1  0  0  0  0
 62 72  2  0  0  0  0
 72 73  1  0  0  0  0
 61 74  1  0  0  0  0
 74 75  2  0  0  0  0
 75 76  1  0  0  0  0
 75 77  1  0  0  0  0
 77 78  1  0  0  0  0
 78 79  1  0  0  0  0
 79 80  1  0  0  0  0
 80 81  2  0  0  0  0
 81 82  1  0  0  0  0
 82 83  1  0  0  0  0
 83 84  1  0  0  0  0
 84 85  1  0  0  0  0
 83 86  1  0  0  0  0
 86 87  1  0  0  0  0
 83 88  1  0  0  0  0
 88 89  1  0  0  0  0
 81 90  1  0  0  0  0
 90 91  2  0  0  0  0
 91 92  1  0  0  0  0
 91 93  1  0  0  0  0
 93 94  1  0  0  0  0
 94 95  1  0  0  0  0
 95 96  1  0  0  0  0
 96 97  2  0  0  0  0
 97 98  1  0  0  0  0
 98 99  1  0  0  0  0
 99100  1  0  0  0  0
100101  1  0  0  0  0
 99102  1  0  0  0  0
102103  1  0  0  0  0
 99104  1  0  0  0  0
104105  1  0  0  0  0
 97106  1  0  0  0  0
106107  2  0  0  0  0
107108  1  0  0  0  0
107109  1  0  0  0  0
109110  1  0  0  0  0
110111  1  0  0  0  0
111112  1  0  0  0  0
112113  2  0  0  0  0
113114  1  0  0  0  0
114115  1  0  0  0  0
115116  1  0  0  0  0
116117  1  0  0  0  0
115118  1  0  0  0  0
118119  1  0  0  0  0
115120  1  0  0  0  0
120121  1  0  0  0  0
113122  1  0  0  0  0
122123  2  0  0  0  0
123124  1  0  0  0  0
 27  1  1  0  0  0  0
 43 31  2  0  0  0  0
 73 47  1  0  0  0  0
 89 77  2  0  0  0  0
105 93  2  0  0  0  0
121109  2  0  0  0  0
 26  3  1  0  0  0  0
 42 33  2  0  0  0  0
 72 49  1  0  0  0  0
 88 79  2  0  0  0  0
104 95  2  0  0  0  0
120111  2  0  0  0  0
 12  5  2  0  0  0  0
 30 14  1  0  0  0  0
 46 34  1  0  0  0  0
 58 51  2  0  0  0  0
 76 60  1  0  0  0  0
 92 80  1  0  0  0  0
108 96  1  0  0  0  0
124112  1  0  0  0  0
 23 17  2  0  0  0  0
 69 63  2  0  0  0  0
  1125  1  0  0  0  0
  2126  1  0  0  0  0
  8127  1  0  0  0  0
  8128  1  0  0  0  0
  9129  1  0  0  0  0
  9130  1  0  0  0  0
  9131  1  0  0  0  0
 20132  1  0  0  0  0
 20133  1  0  0  0  0
 21134  1  0  0  0  0
 21135  1  0  0  0  0
 21136  1  0  0  0  0
 28137  1  0  0  0  0
 38138  1  0  0  0  0
 38139  1  0  0  0  0
 39140  1  0  0  0  0
 39141  1  0  0  0  0
 39142  1  0  0  0  0
 40143  1  0  0  0  0
 40144  1  0  0  0  0
 41145  1  0  0  0  0
 41146  1  0  0  0  0
 41147  1  0  0  0  0
 43148  1  0  0  0  0
 44149  1  0  0  0  0
 48150  1  0  0  0  0
 54151  1  0  0  0  0
 54152  1  0  0  0  0
 55153  1  0  0  0  0
 55154  1  0  0  0  0
 55155  1  0  0  0  0
 66156  1  0  0  0  0
 66157  1  0  0  0  0
 67158  1  0  0  0  0
 67159  1  0  0  0  0
 67160  1  0  0  0  0
 74161  1  0  0  0  0
 84162  1  0  0  0  0
 84163  1  0  0  0  0
 85164  1  0  0  0  0
 85165  1  0  0  0  0
 85166  1  0  0  0  0
 86167  1  0  0  0  0
 86168  1  0  0  0  0
 87169  1  0  0  0  0
 87170  1  0  0  0  0
 87171  1  0  0  0  0
 89172  1  0  0  0  0
 90173  1  0  0  0  0
100174  1  0  0  0  0
100175  1  0  0  0  0
101176  1  0  0  0  0
101177  1  0  0  0  0
101178  1  0  0  0  0
102179  1  0  0  0  0
102180  1  0  0  0  0
103181  1  0  0  0  0
103182  1  0  0  0  0
103183  1  0  0  0  0
105184  1  0  0  0  0
106185  1  0  0  0  0
116186  1  0  0  0  0
116187  1  0  0  0  0
117188  1  0  0  0  0
117189  1  0  0  0  0
117190  1  0  0  0  0
118191  1  0  0  0  0
118192  1  0  0  0  0
119193  1  0  0  0  0
119194  1  0  0  0  0
119195  1  0  0  0  0
121196  1  0  0  0  0
122197  1  0  0  0  0
123198  1  0  0  0  0
M  END
