
  xtb     03012205153D
 energy: -348.201416703735 gnorm: 0.000274271017 xtb: 6.4.1 (unknown)
198219  0     0  0            999 V2000
   12.7757   -7.4675   15.0211 C   0  0  0  0  0  0  0  0  0  0  0  0
   12.9143   -6.1786   14.6490 C   0  0  0  0  0  0  0  0  0  0  0  0
   12.1784   -5.8621   13.4703 C   0  0  0  0  0  0  0  0  0  0  0  0
   12.1115   -4.6384   12.7856 C   0  0  0  0  0  0  0  0  0  0  0  0
   12.8370   -3.4642   13.2472 C   0  0  0  0  0  0  0  0  0  0  0  0
   14.5595   -3.4941   13.4825 S   0  0  0  0  0  0  0  0  0  0  0  0
   14.6027   -1.8329   13.9665 C   0  0  0  0  0  0  0  0  0  0  0  0
   15.8878   -1.1530   14.2873 C   0  0  0  0  0  0  0  0  0  0  0  0
   16.5308   -0.5780   13.0229 C   0  0  0  0  0  0  0  0  0  0  0  0
   13.3494   -1.2994   13.9347 C   0  0  0  0  0  0  0  0  0  0  0  0
   12.9921    0.3258   14.3539 Cl  0  0  0  0  0  0  0  0  0  0  0  0
   12.3459   -2.2208   13.5304 C   0  0  0  0  0  0  0  0  0  0  0  0
   10.6828   -1.8093   13.4872 Cl  0  0  0  0  0  0  0  0  0  0  0  0
   11.3338   -4.5990   11.6369 C   0  0  0  0  0  0  0  0  0  0  0  0
   10.6068   -5.7161   11.1553 C   0  0  0  0  0  0  0  0  0  0  0  0
   10.6559   -6.9334   11.8535 C   0  0  0  0  0  0  0  0  0  0  0  0
    9.9341   -8.1067   11.3885 C   0  0  0  0  0  0  0  0  0  0  0  0
   10.1631   -8.7286    9.7799 S   0  0  0  0  0  0  0  0  0  0  0  0
    9.0740  -10.0462   10.0483 C   0  0  0  0  0  0  0  0  0  0  0  0
    8.8386  -11.0795    9.0028 C   0  0  0  0  0  0  0  0  0  0  0  0
    9.9055  -12.1750    9.0706 C   0  0  0  0  0  0  0  0  0  0  0  0
    8.5734   -9.9949   11.3144 C   0  0  0  0  0  0  0  0  0  0  0  0
    9.0550   -8.8960   12.0758 C   0  0  0  0  0  0  0  0  0  0  0  0
    8.5060   -8.5698   13.6660 Cl  0  0  0  0  0  0  0  0  0  0  0  0
    7.4577  -11.1341   11.9481 Cl  0  0  0  0  0  0  0  0  0  0  0  0
   11.4511   -6.9777   12.9936 C   0  0  0  0  0  0  0  0  0  0  0  0
   11.7361   -8.3801   13.9845 S   0  0  0  0  0  0  0  0  0  0  0  0
    9.8921   -5.4119    9.9710 C   0  0  0  0  0  0  0  0  0  0  0  0
   10.0817   -4.1339    9.5313 C   0  0  0  0  0  0  0  0  0  0  0  0
   11.1557   -3.2271   10.5816 S   0  0  0  0  0  0  0  0  0  0  0  0
    9.5208   -3.5031    8.3891 C   0  0  0  0  0  0  0  0  0  0  0  0
    8.3705   -4.3341    7.3711 S   0  0  0  0  0  0  0  0  0  0  0  0
    8.2237   -2.9355    6.3653 C   0  0  0  0  0  0  0  0  0  0  0  0
    7.4535   -2.7744    5.1930 C   0  0  0  0  0  0  0  0  0  0  0  0
    7.6633   -1.6436    4.4122 C   0  0  0  0  0  0  0  0  0  0  0  0
    8.5666   -0.6933    4.7136 O   0  0  0  0  0  0  0  0  0  0  0  0
    8.9796   -0.5594    6.0917 C   0  0  0  0  0  0  0  0  0  0  0  0
   10.3581    0.1115    6.0276 C   0  0  0  0  0  0  0  0  0  0  0  0
   11.3905   -0.7634    5.3264 C   0  0  0  0  0  0  0  0  0  0  0  0
    7.9246    0.3465    6.7738 C   0  0  0  0  0  0  0  0  0  0  0  0
    8.1620    0.6245    8.2511 C   0  0  0  0  0  0  0  0  0  0  0  0
    9.0296   -1.8927    6.7930 C   0  0  0  0  0  0  0  0  0  0  0  0
    9.7588   -2.2231    7.9377 C   0  0  0  0  0  0  0  0  0  0  0  0
    6.8760   -1.6246    3.2546 C   0  0  0  0  0  0  0  0  0  0  0  0
    6.0480   -2.7220    3.1519 C   0  0  0  0  0  0  0  0  0  0  0  0
    6.2566   -3.8133    4.4990 S   0  0  0  0  0  0  0  0  0  0  0  0
    5.0745   -2.9827    2.1565 C   0  0  0  0  0  0  0  0  0  0  0  0
    4.8305   -1.8633    0.8368 S   0  0  0  0  0  0  0  0  0  0  0  0
    3.5363   -2.8343    0.2280 C   0  0  0  0  0  0  0  0  0  0  0  0
    2.6492   -2.5374   -0.8286 C   0  0  0  0  0  0  0  0  0  0  0  0
    1.4796   -3.2819   -0.9377 C   0  0  0  0  0  0  0  0  0  0  0  0
    1.1888   -4.3256   -0.1420 O   0  0  0  0  0  0  0  0  0  0  0  0
    2.2677   -4.9608    0.5805 C   0  0  0  0  0  0  0  0  0  0  0  0
    2.8956   -5.9928   -0.3879 C   0  0  0  0  0  0  0  0  0  0  0  0
    4.0702   -6.7754    0.1818 C   0  0  0  0  0  0  0  0  0  0  0  0
    1.5921   -5.6379    1.7804 C   0  0  0  0  0  0  0  0  0  0  0  0
    0.9254   -4.6313    2.7108 C   0  0  0  0  0  0  0  0  0  0  0  0
    3.3171   -3.9638    1.0010 C   0  0  0  0  0  0  0  0  0  0  0  0
    4.1921   -4.0415    2.0864 C   0  0  0  0  0  0  0  0  0  0  0  0
    0.6019   -2.7793   -1.9063 C   0  0  0  0  0  0  0  0  0  0  0  0
    1.0990   -1.6695   -2.5556 C   0  0  0  0  0  0  0  0  0  0  0  0
    2.6851   -1.2362   -1.9680 S   0  0  0  0  0  0  0  0  0  0  0  0
    0.4615   -0.8787   -3.5434 C   0  0  0  0  0  0  0  0  0  0  0  0
   -1.2245   -1.1269   -3.9266 S   0  0  0  0  0  0  0  0  0  0  0  0
   -1.1874    0.2002   -5.0339 C   0  0  0  0  0  0  0  0  0  0  0  0
   -2.2646    0.7855   -5.7344 C   0  0  0  0  0  0  0  0  0  0  0  0
   -2.0596    2.0151   -6.3502 C   0  0  0  0  0  0  0  0  0  0  0  0
   -0.8779    2.6550   -6.3684 O   0  0  0  0  0  0  0  0  0  0  0  0
    0.3200    1.9080   -6.0914 C   0  0  0  0  0  0  0  0  0  0  0  0
    1.3493    2.9002   -5.5047 C   0  0  0  0  0  0  0  0  0  0  0  0
    1.1601    4.3495   -5.9403 C   0  0  0  0  0  0  0  0  0  0  0  0
    0.7953    1.2329   -7.4020 C   0  0  0  0  0  0  0  0  0  0  0  0
    1.0878    2.1961   -8.5444 C   0  0  0  0  0  0  0  0  0  0  0  0
    0.0650    0.7865   -5.1090 C   0  0  0  0  0  0  0  0  0  0  0  0
    0.9913    0.1719   -4.2645 C   0  0  0  0  0  0  0  0  0  0  0  0
   -3.2384    2.5625   -6.8746 C   0  0  0  0  0  0  0  0  0  0  0  0
   -4.3371    1.7574   -6.6729 C   0  0  0  0  0  0  0  0  0  0  0  0
   -3.9165    0.2874   -5.8330 S   0  0  0  0  0  0  0  0  0  0  0  0
   -5.6899    2.0229   -7.0145 C   0  0  0  0  0  0  0  0  0  0  0  0
   -6.7760    1.2238   -6.7985 C   0  0  0  0  0  0  0  0  0  0  0  0
   -8.0027    1.8181   -7.1753 C   0  0  0  0  0  0  0  0  0  0  0  0
   -9.2962    1.2701   -7.0936 C   0  0  0  0  0  0  0  0  0  0  0  0
   -9.5243   -0.0683   -6.5754 C   0  0  0  0  0  0  0  0  0  0  0  0
   -8.9143   -0.5558   -5.0208 S   0  0  0  0  0  0  0  0  0  0  0  0
   -9.6149   -2.1321   -5.1500 C   0  0  0  0  0  0  0  0  0  0  0  0
   -9.4109   -3.1593   -4.0917 C   0  0  0  0  0  0  0  0  0  0  0  0
   -8.1459   -3.9776   -4.3626 C   0  0  0  0  0  0  0  0  0  0  0  0
  -10.2696   -2.2620   -6.3380 C   0  0  0  0  0  0  0  0  0  0  0  0
  -11.0803   -3.6918   -6.8292 Cl  0  0  0  0  0  0  0  0  0  0  0  0
  -10.2275   -1.0936   -7.1452 C   0  0  0  0  0  0  0  0  0  0  0  0
  -10.9225   -1.0344   -8.7101 Cl  0  0  0  0  0  0  0  0  0  0  0  0
  -10.3494    2.0763   -7.5032 C   0  0  0  0  0  0  0  0  0  0  0  0
  -10.1674    3.3859   -8.0135 C   0  0  0  0  0  0  0  0  0  0  0  0
   -8.8677    3.9059   -8.1607 C   0  0  0  0  0  0  0  0  0  0  0  0
   -8.6489    5.2122   -8.7565 C   0  0  0  0  0  0  0  0  0  0  0  0
   -7.6715    6.4215   -7.9789 S   0  0  0  0  0  0  0  0  0  0  0  0
   -7.9268    7.5616   -9.2563 C   0  0  0  0  0  0  0  0  0  0  0  0
   -7.2746    8.8998   -9.2354 C   0  0  0  0  0  0  0  0  0  0  0  0
   -5.8290    8.8093   -9.7297 C   0  0  0  0  0  0  0  0  0  0  0  0
   -8.7140    7.0174  -10.2266 C   0  0  0  0  0  0  0  0  0  0  0  0
   -9.1299    5.6887   -9.9451 C   0  0  0  0  0  0  0  0  0  0  0  0
  -10.0745    4.7663  -11.0434 Cl  0  0  0  0  0  0  0  0  0  0  0  0
   -9.1774    7.8421  -11.6591 Cl  0  0  0  0  0  0  0  0  0  0  0  0
   -7.8190    3.1170   -7.7100 C   0  0  0  0  0  0  0  0  0  0  0  0
   -6.1338    3.5573   -7.7396 S   0  0  0  0  0  0  0  0  0  0  0  0
  -11.3992    4.0360   -8.2567 C   0  0  0  0  0  0  0  0  0  0  0  0
  -12.4916    3.2655   -7.9686 C   0  0  0  0  0  0  0  0  0  0  0  0
  -12.0381    1.6813   -7.3757 S   0  0  0  0  0  0  0  0  0  0  0  0
  -13.8640    3.6183   -8.0979 C   0  0  0  0  0  0  0  0  0  0  0  0
  -15.1246    2.4988   -7.6540 S   0  0  0  0  0  0  0  0  0  0  0  0
  -16.3308    3.6575   -8.0715 C   0  0  0  0  0  0  0  0  0  0  0  0
  -17.7388    3.4960   -8.0741 C   0  0  0  0  0  0  0  0  0  0  0  0
  -18.5081    4.4563   -8.7074 C   0  0  0  0  0  0  0  0  0  0  0  0
  -17.9933    5.5501   -9.3011 O   0  0  0  0  0  0  0  0  0  0  0  0
  -16.6940    6.0071   -8.8645 C   0  0  0  0  0  0  0  0  0  0  0  0
  -16.1351    6.8194  -10.0428 C   0  0  0  0  0  0  0  0  0  0  0  0
  -17.0273    7.9832  -10.4579 C   0  0  0  0  0  0  0  0  0  0  0  0
  -16.9238    6.8453   -7.5849 C   0  0  0  0  0  0  0  0  0  0  0  0
  -15.6753    7.5164   -7.0310 C   0  0  0  0  0  0  0  0  0  0  0  0
  -15.7863    4.8440   -8.5337 C   0  0  0  0  0  0  0  0  0  0  0  0
  -14.3889    4.8118   -8.5493 C   0  0  0  0  0  0  0  0  0  0  0  0
  -19.8823    4.1308   -8.7179 C   0  0  0  0  0  0  0  0  0  0  0  0
  -20.1313    2.9511   -8.0884 C   0  0  0  0  0  0  0  0  0  0  0  0
  -18.7128    2.2002   -7.4710 S   0  0  0  0  0  0  0  0  0  0  0  0
   13.2207   -7.9616   15.8625 H   0  0  0  0  0  0  0  0  0  0  0  0
   13.5161   -5.4658   15.1819 H   0  0  0  0  0  0  0  0  0  0  0  0
   15.6902   -0.3460   14.9954 H   0  0  0  0  0  0  0  0  0  0  0  0
   16.5705   -1.8674   14.7503 H   0  0  0  0  0  0  0  0  0  0  0  0
   17.4650   -0.0819   13.2714 H   0  0  0  0  0  0  0  0  0  0  0  0
   16.7353   -1.3724   12.3090 H   0  0  0  0  0  0  0  0  0  0  0  0
   15.8648    0.1443   12.5579 H   0  0  0  0  0  0  0  0  0  0  0  0
    7.8522  -11.5196    9.1610 H   0  0  0  0  0  0  0  0  0  0  0  0
    8.8603  -10.6107    8.0176 H   0  0  0  0  0  0  0  0  0  0  0  0
    9.8849  -12.6602   10.0431 H   0  0  0  0  0  0  0  0  0  0  0  0
   10.8938  -11.7486    8.9156 H   0  0  0  0  0  0  0  0  0  0  0  0
    9.7228  -12.9227    8.3036 H   0  0  0  0  0  0  0  0  0  0  0  0
    9.2571   -6.1105    9.4570 H   0  0  0  0  0  0  0  0  0  0  0  0
   10.2436    1.0477    5.4790 H   0  0  0  0  0  0  0  0  0  0  0  0
   10.6910    0.3421    7.0384 H   0  0  0  0  0  0  0  0  0  0  0  0
   11.0554   -1.0016    4.3201 H   0  0  0  0  0  0  0  0  0  0  0  0
   11.5434   -1.6932    5.8699 H   0  0  0  0  0  0  0  0  0  0  0  0
   12.3411   -0.2401    5.2614 H   0  0  0  0  0  0  0  0  0  0  0  0
    7.8927    1.2867    6.2189 H   0  0  0  0  0  0  0  0  0  0  0  0
    6.9530   -0.1420    6.6533 H   0  0  0  0  0  0  0  0  0  0  0  0
    7.3473    1.2306    8.6400 H   0  0  0  0  0  0  0  0  0  0  0  0
    8.1989   -0.3009    8.8206 H   0  0  0  0  0  0  0  0  0  0  0  0
    9.0902    1.1674    8.4065 H   0  0  0  0  0  0  0  0  0  0  0  0
   10.4441   -1.5644    8.4401 H   0  0  0  0  0  0  0  0  0  0  0  0
    6.9039   -0.8355    2.5262 H   0  0  0  0  0  0  0  0  0  0  0  0
    3.2263   -5.4451   -1.2752 H   0  0  0  0  0  0  0  0  0  0  0  0
    2.1049   -6.6793   -0.6979 H   0  0  0  0  0  0  0  0  0  0  0  0
    4.8593   -6.1044    0.5127 H   0  0  0  0  0  0  0  0  0  0  0  0
    3.7624   -7.3922    1.0217 H   0  0  0  0  0  0  0  0  0  0  0  0
    4.4774   -7.4286   -0.5861 H   0  0  0  0  0  0  0  0  0  0  0  0
    0.8382   -6.3230    1.3897 H   0  0  0  0  0  0  0  0  0  0  0  0
    2.3338   -6.2171    2.3283 H   0  0  0  0  0  0  0  0  0  0  0  0
    0.1930   -4.0448    2.1620 H   0  0  0  0  0  0  0  0  0  0  0  0
    1.6600   -3.9540    3.1405 H   0  0  0  0  0  0  0  0  0  0  0  0
    0.4185   -5.1508    3.5200 H   0  0  0  0  0  0  0  0  0  0  0  0
    4.1976   -4.8305    2.8166 H   0  0  0  0  0  0  0  0  0  0  0  0
   -0.3617   -3.2047   -2.1174 H   0  0  0  0  0  0  0  0  0  0  0  0
    2.3480    2.5572   -5.7780 H   0  0  0  0  0  0  0  0  0  0  0  0
    1.2696    2.8657   -4.4156 H   0  0  0  0  0  0  0  0  0  0  0  0
    0.1837    4.7112   -5.6319 H   0  0  0  0  0  0  0  0  0  0  0  0
    1.9234    4.9658   -5.4703 H   0  0  0  0  0  0  0  0  0  0  0  0
    1.2387    4.4599   -7.0162 H   0  0  0  0  0  0  0  0  0  0  0  0
    0.0033    0.5446   -7.7123 H   0  0  0  0  0  0  0  0  0  0  0  0
    1.6810    0.6368   -7.1739 H   0  0  0  0  0  0  0  0  0  0  0  0
    0.2477    2.8704   -8.6906 H   0  0  0  0  0  0  0  0  0  0  0  0
    1.2454    1.6363   -9.4636 H   0  0  0  0  0  0  0  0  0  0  0  0
    1.9821    2.7796   -8.3450 H   0  0  0  0  0  0  0  0  0  0  0  0
    2.0205    0.4669   -4.1668 H   0  0  0  0  0  0  0  0  0  0  0  0
   -3.2879    3.5160   -7.3674 H   0  0  0  0  0  0  0  0  0  0  0  0
   -6.6901    0.2417   -6.3704 H   0  0  0  0  0  0  0  0  0  0  0  0
  -10.2776   -3.8230   -4.0751 H   0  0  0  0  0  0  0  0  0  0  0  0
   -9.3260   -2.6675   -3.1214 H   0  0  0  0  0  0  0  0  0  0  0  0
   -7.2730   -3.3293   -4.3821 H   0  0  0  0  0  0  0  0  0  0  0  0
   -8.0099   -4.7228   -3.5835 H   0  0  0  0  0  0  0  0  0  0  0  0
   -8.2245   -4.4850   -5.3206 H   0  0  0  0  0  0  0  0  0  0  0  0
   -7.8410    9.5759   -9.8783 H   0  0  0  0  0  0  0  0  0  0  0  0
   -7.2852    9.2924   -8.2171 H   0  0  0  0  0  0  0  0  0  0  0  0
   -5.2585    8.1302   -9.1007 H   0  0  0  0  0  0  0  0  0  0  0  0
   -5.8026    8.4411  -10.7521 H   0  0  0  0  0  0  0  0  0  0  0  0
   -5.3621    9.7901   -9.7002 H   0  0  0  0  0  0  0  0  0  0  0  0
  -11.4716    5.0477   -8.6086 H   0  0  0  0  0  0  0  0  0  0  0  0
  -15.1444    7.1886   -9.7816 H   0  0  0  0  0  0  0  0  0  0  0  0
  -16.0284    6.1322  -10.8850 H   0  0  0  0  0  0  0  0  0  0  0  0
  -16.6532    8.4200  -11.3808 H   0  0  0  0  0  0  0  0  0  0  0  0
  -17.0426    8.7589   -9.6968 H   0  0  0  0  0  0  0  0  0  0  0  0
  -18.0423    7.6346  -10.6249 H   0  0  0  0  0  0  0  0  0  0  0  0
  -17.3363    6.1717   -6.8279 H   0  0  0  0  0  0  0  0  0  0  0  0
  -17.6859    7.5937   -7.8068 H   0  0  0  0  0  0  0  0  0  0  0  0
  -14.9000    6.7817   -6.8266 H   0  0  0  0  0  0  0  0  0  0  0  0
  -15.2836    8.2539   -7.7263 H   0  0  0  0  0  0  0  0  0  0  0  0
  -15.9174    8.0238   -6.1001 H   0  0  0  0  0  0  0  0  0  0  0  0
  -13.7671    5.6235   -8.8771 H   0  0  0  0  0  0  0  0  0  0  0  0
  -20.6327    4.7495   -9.1730 H   0  0  0  0  0  0  0  0  0  0  0  0
  -21.0787    2.4734   -7.9394 H   0  0  0  0  0  0  0  0  0  0  0  0
  1  2  2  0  0  0  0
  2  3  1  0  0  0  0
  3  4  2  0  0  0  0
  4  5  1  0  0  0  0
  5  6  1  0  0  0  0
  6  7  1  0  0  0  0
  7  8  1  0  0  0  0
  8  9  1  0  0  0  0
  7 10  2  0  0  0  0
 10 11  1  0  0  0  0
 10 12  1  0  0  0  0
 12 13  1  0  0  0  0
  4 14  1  0  0  0  0
 14 15  2  0  0  0  0
 15 16  1  0  0  0  0
 16 17  1  0  0  0  0
 17 18  1  0  0  0  0
 18 19  1  0  0  0  0
 19 20  1  0  0  0  0
 20 21  1  0  0  0  0
 19 22  2  0  0  0  0
 22 23  1  0  0  0  0
 23 24  1  0  0  0  0
 22 25  1  0  0  0  0
 16 26  2  0  0  0  0
 26 27  1  0  0  0  0
 15 28  1  0  0  0  0
 28 29  2  0  0  0  0
 29 30  1  0  0  0  0
 29 31  1  0  0  0  0
 31 32  1  0  0  0  0
 32 33  1  0  0  0  0
 33 34  1  0  0  0  0
 34 35  2  0  0  0  0
 35 36  1  0  0  0  0
 36 37  1  0  0  0  0
 37 38  1  0  0  0  0
 38 39  1  0  0  0  0
 37 40  1  0  0  0  0
 40 41  1  0  0  0  0
 37 42  1  0  0  0  0
 42 43  1  0  0  0  0
 35 44  1  0  0  0  0
 44 45  2  0  0  0  0
 45 46  1  0  0  0  0
 45 47  1  0  0  0  0
 47 48  1  0  0  0  0
 48 49  1  0  0  0  0
 49 50  1  0  0  0  0
 50 51  2  0  0  0  0
 51 52  1  0  0  0  0
 52 53  1  0  0  0  0
 53 54  1  0  0  0  0
 54 55  1  0  0  0  0
 53 56  1  0  0  0  0
 56 57  1  0  0  0  0
 53 58  1  0  0  0  0
 58 59  1  0  0  0  0
 51 60  1  0  0  0  0
 60 61  2  0  0  0  0
 61 62  1  0  0  0  0
 61 63  1  0  0  0  0
 63 64  1  0  0  0  0
 64 65  1  0  0  0  0
 65 66  1  0  0  0  0
 66 67  2  0  0  0  0
 67 68  1  0  0  0  0
 68 69  1  0  0  0  0
 69 70  1  0  0  0  0
 70 71  1  0  0  0  0
 69 72  1  0  0  0  0
 72 73  1  0  0  0  0
 69 74  1  0  0  0  0
 74 75  1  0  0  0  0
 67 76  1  0  0  0  0
 76 77  2  0  0  0  0
 77 78  1  0  0  0  0
 77 79  1  0  0  0  0
 79 80  2  0  0  0  0
 80 81  1  0  0  0  0
 81 82  2  0  0  0  0
 82 83  1  0  0  0  0
 83 84  1  0  0  0  0
 84 85  1  0  0  0  0
 85 86  1  0  0  0  0
 86 87  1  0  0  0  0
 85 88  2  0  0  0  0
 88 89  1  0  0  0  0
 88 90  1  0  0  0  0
 90 91  1  0  0  0  0
 82 92  1  0  0  0  0
 92 93  2  0  0  0  0
 93 94  1  0  0  0  0
 94 95  1  0  0  0  0
 95 96  1  0  0  0  0
 96 97  1  0  0  0  0
 97 98  1  0  0  0  0
 98 99  1  0  0  0  0
 97100  2  0  0  0  0
100101  1  0  0  0  0
101102  1  0  0  0  0
100103  1  0  0  0  0
 94104  2  0  0  0  0
104105  1  0  0  0  0
 93106  1  0  0  0  0
106107  2  0  0  0  0
107108  1  0  0  0  0
107109  1  0  0  0  0
109110  1  0  0  0  0
110111  1  0  0  0  0
111112  1  0  0  0  0
112113  2  0  0  0  0
113114  1  0  0  0  0
114115  1  0  0  0  0
115116  1  0  0  0  0
116117  1  0  0  0  0
115118  1  0  0  0  0
118119  1  0  0  0  0
115120  1  0  0  0  0
120121  1  0  0  0  0
113122  1  0  0  0  0
122123  2  0  0  0  0
123124  1  0  0  0  0
 27  1  1  0  0  0  0
 43 31  2  0  0  0  0
 59 47  2  0  0  0  0
 75 63  2  0  0  0  0
105 79  1  0  0  0  0
121109  2  0  0  0  0
 26  3  1  0  0  0  0
 42 33  2  0  0  0  0
 58 49  2  0  0  0  0
 74 65  2  0  0  0  0
104 81  1  0  0  0  0
120111  2  0  0  0  0
 12  5  2  0  0  0  0
 30 14  1  0  0  0  0
 46 34  1  0  0  0  0
 62 50  1  0  0  0  0
 78 66  1  0  0  0  0
 90 83  2  0  0  0  0
108 92  1  0  0  0  0
124112  1  0  0  0  0
 23 17  2  0  0  0  0
101 95  2  0  0  0  0
  1125  1  0  0  0  0
  2126  1  0  0  0  0
  8127  1  0  0  0  0
  8128  1  0  0  0  0
  9129  1  0  0  0  0
  9130  1  0  0  0  0
  9131  1  0  0  0  0
 20132  1  0  0  0  0
 20133  1  0  0  0  0
 21134  1  0  0  0  0
 21135  1  0  0  0  0
 21136  1  0  0  0  0
 28137  1  0  0  0  0
 38138  1  0  0  0  0
 38139  1  0  0  0  0
 39140  1  0  0  0  0
 39141  1  0  0  0  0
 39142  1  0  0  0  0
 40143  1  0  0  0  0
 40144  1  0  0  0  0
 41145  1  0  0  0  0
 41146  1  0  0  0  0
 41147  1  0  0  0  0
 43148  1  0  0  0  0
 44149  1  0  0  0  0
 54150  1  0  0  0  0
 54151  1  0  0  0  0
 55152  1  0  0  0  0
 55153  1  0  0  0  0
 55154  1  0  0  0  0
 56155  1  0  0  0  0
 56156  1  0  0  0  0
 57157  1  0  0  0  0
 57158  1  0  0  0  0
 57159  1  0  0  0  0
 59160  1  0  0  0  0
 60161  1  0  0  0  0
 70162  1  0  0  0  0
 70163  1  0  0  0  0
 71164  1  0  0  0  0
 71165  1  0  0  0  0
 71166  1  0  0  0  0
 72167  1  0  0  0  0
 72168  1  0  0  0  0
 73169  1  0  0  0  0
 73170  1  0  0  0  0
 73171  1  0  0  0  0
 75172  1  0  0  0  0
 76173  1  0  0  0  0
 80174  1  0  0  0  0
 86175  1  0  0  0  0
 86176  1  0  0  0  0
 87177  1  0  0  0  0
 87178  1  0  0  0  0
 87179  1  0  0  0  0
 98180  1  0  0  0  0
 98181  1  0  0  0  0
 99182  1  0  0  0  0
 99183  1  0  0  0  0
 99184  1  0  0  0  0
106185  1  0  0  0  0
116186  1  0  0  0  0
116187  1  0  0  0  0
117188  1  0  0  0  0
117189  1  0  0  0  0
117190  1  0  0  0  0
118191  1  0  0  0  0
118192  1  0  0  0  0
119193  1  0  0  0  0
119194  1  0  0  0  0
119195  1  0  0  0  0
121196  1  0  0  0  0
122197  1  0  0  0  0
123198  1  0  0  0  0
M  END
