
  xtb     03012215153D
 energy: -286.375099081154 gnorm: 0.000462896957 xtb: 6.4.1 (unknown)
174187  0     0  0            999 V2000
   -8.6783   -4.6292   -4.9144 C   0  0  0  0  0  0  0  0  0  0  0  0
   -9.0405   -5.7411   -3.6650 S   0  0  0  0  0  0  0  0  0  0  0  0
   -7.3990   -5.7878   -3.0886 C   0  0  0  0  0  0  0  0  0  0  0  0
   -6.6060   -4.9803   -3.8910 C   0  0  0  0  0  0  0  0  0  0  0  0
   -7.3455   -4.3120   -4.9232 C   0  0  0  0  0  0  0  0  0  0  0  0
   -6.7322   -3.4567   -5.7925 N   0  0  0  0  0  0  0  0  0  0  0  0
   -5.4503   -3.3241   -5.6623 C   0  0  0  0  0  0  0  0  0  0  0  0
   -4.7642   -2.4810   -6.4297 O   0  0  0  0  0  0  0  0  0  0  0  0
   -5.5270   -1.7193   -7.3606 C   0  0  0  0  0  0  0  0  0  0  0  0
   -4.6064   -0.6928   -7.9952 C   0  0  0  0  0  0  0  0  0  0  0  0
   -4.6836   -4.0704   -4.6659 C   0  0  0  0  0  0  0  0  0  0  0  0
   -3.3658   -3.8862   -4.6870 O   0  0  0  0  0  0  0  0  0  0  0  0
   -2.5925   -4.6058   -3.7308 C   0  0  0  0  0  0  0  0  0  0  0  0
   -2.4752   -6.0860   -4.0619 C   0  0  0  0  0  0  0  0  0  0  0  0
   -5.2542   -4.8536   -3.8049 N   0  0  0  0  0  0  0  0  0  0  0  0
   -7.0442   -6.6655   -2.0169 C   0  0  0  0  0  0  0  0  0  0  0  0
   -6.0348   -6.5132   -1.1332 C   0  0  0  0  0  0  0  0  0  0  0  0
   -5.2493   -5.3424   -0.9111 C   0  0  0  0  0  0  0  0  0  0  0  0
   -3.6472   -5.5045   -0.2335 S   0  0  0  0  0  0  0  0  0  0  0  0
   -3.4431   -3.7876   -0.2364 C   0  0  0  0  0  0  0  0  0  0  0  0
   -2.2990   -3.0463    0.1192 C   0  0  0  0  0  0  0  0  0  0  0  0
   -2.3767   -1.6561    0.1485 C   0  0  0  0  0  0  0  0  0  0  0  0
   -3.5336   -0.9907   -0.0434 O   0  0  0  0  0  0  0  0  0  0  0  0
   -4.6014   -1.6224   -0.7928 C   0  0  0  0  0  0  0  0  0  0  0  0
   -5.9053   -1.0816   -0.1867 C   0  0  0  0  0  0  0  0  0  0  0  0
   -6.0406   -1.4606    1.2833 C   0  0  0  0  0  0  0  0  0  0  0  0
   -4.3950   -1.1738   -2.2635 C   0  0  0  0  0  0  0  0  0  0  0  0
   -5.6418   -1.1333   -3.1338 C   0  0  0  0  0  0  0  0  0  0  0  0
   -4.5710   -3.1277   -0.6963 C   0  0  0  0  0  0  0  0  0  0  0  0
   -5.5814   -4.0154   -1.0778 C   0  0  0  0  0  0  0  0  0  0  0  0
   -1.1524   -1.0441    0.4421 C   0  0  0  0  0  0  0  0  0  0  0  0
   -0.1335   -1.9603    0.6295 C   0  0  0  0  0  0  0  0  0  0  0  0
   -0.7056   -3.6058    0.4687 S   0  0  0  0  0  0  0  0  0  0  0  0
    1.2425   -1.7309    0.8397 C   0  0  0  0  0  0  0  0  0  0  0  0
    2.3299   -3.0515    1.1275 S   0  0  0  0  0  0  0  0  0  0  0  0
    3.7563   -2.0457    1.1559 C   0  0  0  0  0  0  0  0  0  0  0  0
    3.3758   -0.7248    0.9118 C   0  0  0  0  0  0  0  0  0  0  0  0
    1.9692   -0.5386    0.7603 C   0  0  0  0  0  0  0  0  0  0  0  0
    1.4535    0.6792    0.5024 N   0  0  0  0  0  0  0  0  0  0  0  0
    2.2699    1.6901    0.3613 C   0  0  0  0  0  0  0  0  0  0  0  0
    1.6332    2.8481    0.1503 O   0  0  0  0  0  0  0  0  0  0  0  0
    2.2854    4.0999   -0.0011 C   0  0  0  0  0  0  0  0  0  0  0  0
    2.7147    4.3588   -1.4406 C   0  0  0  0  0  0  0  0  0  0  0  0
    3.7072    1.4790    0.4239 C   0  0  0  0  0  0  0  0  0  0  0  0
    4.5275    2.5058    0.1607 O   0  0  0  0  0  0  0  0  0  0  0  0
    5.9318    2.2571    0.1300 C   0  0  0  0  0  0  0  0  0  0  0  0
    6.6534    3.5053    0.6065 C   0  0  0  0  0  0  0  0  0  0  0  0
    4.2156    0.3109    0.6938 N   0  0  0  0  0  0  0  0  0  0  0  0
    5.0098   -2.6967    1.2664 C   0  0  0  0  0  0  0  0  0  0  0  0
    6.2295   -2.2274    1.6460 C   0  0  0  0  0  0  0  0  0  0  0  0
    6.5972   -1.0193    2.2732 C   0  0  0  0  0  0  0  0  0  0  0  0
    5.5168    0.0700    3.0810 S   0  0  0  0  0  0  0  0  0  0  0  0
    6.7857    1.1504    3.5736 C   0  0  0  0  0  0  0  0  0  0  0  0
    8.0174    0.6449    3.1561 C   0  0  0  0  0  0  0  0  0  0  0  0
    7.9148   -0.5785    2.4410 C   0  0  0  0  0  0  0  0  0  0  0  0
    9.0149   -1.2063    1.9570 N   0  0  0  0  0  0  0  0  0  0  0  0
   10.1607   -0.6298    2.1745 C   0  0  0  0  0  0  0  0  0  0  0  0
   11.3022   -1.1598    1.7329 O   0  0  0  0  0  0  0  0  0  0  0  0
   11.2077   -2.3990    1.0390 C   0  0  0  0  0  0  0  0  0  0  0  0
   10.9914   -3.5724    1.9854 C   0  0  0  0  0  0  0  0  0  0  0  0
   10.2641    0.6316    2.8907 C   0  0  0  0  0  0  0  0  0  0  0  0
   11.4915    1.1266    3.0541 O   0  0  0  0  0  0  0  0  0  0  0  0
   11.5966    2.3599    3.7564 C   0  0  0  0  0  0  0  0  0  0  0  0
   11.1917    3.5491    2.8953 C   0  0  0  0  0  0  0  0  0  0  0  0
    9.2182    1.2446    3.3615 N   0  0  0  0  0  0  0  0  0  0  0  0
    6.5860    2.4502    4.1073 C   0  0  0  0  0  0  0  0  0  0  0  0
    5.4073    3.0684    4.3282 C   0  0  0  0  0  0  0  0  0  0  0  0
    4.1176    2.4266    4.2857 C   0  0  0  0  0  0  0  0  0  0  0  0
    2.8361    3.0542    3.2779 S   0  0  0  0  0  0  0  0  0  0  0  0
    1.7496    1.8384    3.8505 C   0  0  0  0  0  0  0  0  0  0  0  0
    0.4082    1.6165    3.4655 C   0  0  0  0  0  0  0  0  0  0  0  0
   -0.2742    0.5549    4.0453 C   0  0  0  0  0  0  0  0  0  0  0  0
    0.2896   -0.3305    4.8892 O   0  0  0  0  0  0  0  0  0  0  0  0
    1.5043    0.0350    5.5785 C   0  0  0  0  0  0  0  0  0  0  0  0
    2.2495   -1.2873    5.8072 C   0  0  0  0  0  0  0  0  0  0  0  0
    2.6015   -1.9664    4.4903 C   0  0  0  0  0  0  0  0  0  0  0  0
    1.0416    0.6800    6.9106 C   0  0  0  0  0  0  0  0  0  0  0  0
    2.1482    1.1064    7.8638 C   0  0  0  0  0  0  0  0  0  0  0  0
    2.3347    1.0273    4.8038 C   0  0  0  0  0  0  0  0  0  0  0  0
    3.6811    1.3527    5.0219 C   0  0  0  0  0  0  0  0  0  0  0  0
   -1.6083    0.4744    3.6247 C   0  0  0  0  0  0  0  0  0  0  0  0
   -1.9275    1.4394    2.6980 C   0  0  0  0  0  0  0  0  0  0  0  0
   -0.5782    2.4757    2.3383 S   0  0  0  0  0  0  0  0  0  0  0  0
   -3.1861    1.6665    2.0720 C   0  0  0  0  0  0  0  0  0  0  0  0
   -4.6811    1.5722    2.9391 S   0  0  0  0  0  0  0  0  0  0  0  0
   -5.6428    1.9751    1.5526 C   0  0  0  0  0  0  0  0  0  0  0  0
   -4.8185    2.1478    0.4463 C   0  0  0  0  0  0  0  0  0  0  0  0
   -3.4326    1.9857    0.7468 C   0  0  0  0  0  0  0  0  0  0  0  0
   -2.4950    2.0503   -0.2255 N   0  0  0  0  0  0  0  0  0  0  0  0
   -2.9040    2.2363   -1.4440 C   0  0  0  0  0  0  0  0  0  0  0  0
   -1.9998    2.2575   -2.4325 O   0  0  0  0  0  0  0  0  0  0  0  0
   -0.6492    2.0006   -2.0446 C   0  0  0  0  0  0  0  0  0  0  0  0
    0.2126    2.0568   -3.2922 C   0  0  0  0  0  0  0  0  0  0  0  0
   -4.3161    2.4114   -1.7637 C   0  0  0  0  0  0  0  0  0  0  0  0
   -4.8259    2.6138   -2.9870 O   0  0  0  0  0  0  0  0  0  0  0  0
   -4.0498    2.4898   -4.1687 C   0  0  0  0  0  0  0  0  0  0  0  0
   -5.0127    2.6005   -5.3409 C   0  0  0  0  0  0  0  0  0  0  0  0
   -5.2202    2.3791   -0.8271 N   0  0  0  0  0  0  0  0  0  0  0  0
   -7.0685    2.0510    1.6654 C   0  0  0  0  0  0  0  0  0  0  0  0
   -7.8857    2.3347    0.6507 C   0  0  0  0  0  0  0  0  0  0  0  0
   -9.4482   -4.2718   -5.5663 H   0  0  0  0  0  0  0  0  0  0  0  0
   -6.3594   -1.2411   -6.8310 H   0  0  0  0  0  0  0  0  0  0  0  0
   -5.9526   -2.3951   -8.1110 H   0  0  0  0  0  0  0  0  0  0  0  0
   -5.1651   -0.0859   -8.7016 H   0  0  0  0  0  0  0  0  0  0  0  0
   -4.1822   -0.0496   -7.2286 H   0  0  0  0  0  0  0  0  0  0  0  0
   -3.7940   -1.1916   -8.5163 H   0  0  0  0  0  0  0  0  0  0  0  0
   -1.6132   -4.1219   -3.7525 H   0  0  0  0  0  0  0  0  0  0  0  0
   -3.0462   -4.4830   -2.7445 H   0  0  0  0  0  0  0  0  0  0  0  0
   -3.4523   -6.5570   -3.9964 H   0  0  0  0  0  0  0  0  0  0  0  0
   -1.8072   -6.5593   -3.3482 H   0  0  0  0  0  0  0  0  0  0  0  0
   -2.0791   -6.2188   -5.0657 H   0  0  0  0  0  0  0  0  0  0  0  0
   -7.6516   -7.5587   -1.9428 H   0  0  0  0  0  0  0  0  0  0  0  0
   -5.7941   -7.3537   -0.4946 H   0  0  0  0  0  0  0  0  0  0  0  0
   -6.7496   -1.4839   -0.7438 H   0  0  0  0  0  0  0  0  0  0  0  0
   -5.9113    0.0019   -0.2909 H   0  0  0  0  0  0  0  0  0  0  0  0
   -6.1308   -2.5393    1.3970 H   0  0  0  0  0  0  0  0  0  0  0  0
   -6.9237   -0.9898    1.7073 H   0  0  0  0  0  0  0  0  0  0  0  0
   -5.1687   -1.1271    1.8403 H   0  0  0  0  0  0  0  0  0  0  0  0
   -3.6488   -1.8324   -2.7186 H   0  0  0  0  0  0  0  0  0  0  0  0
   -3.9629   -0.1708   -2.2202 H   0  0  0  0  0  0  0  0  0  0  0  0
   -6.3217   -0.3526   -2.8033 H   0  0  0  0  0  0  0  0  0  0  0  0
   -6.1635   -2.0870   -3.1188 H   0  0  0  0  0  0  0  0  0  0  0  0
   -5.3529   -0.9217   -4.1612 H   0  0  0  0  0  0  0  0  0  0  0  0
   -6.5488   -3.7154   -1.4354 H   0  0  0  0  0  0  0  0  0  0  0  0
   -1.0024    0.0172    0.5059 H   0  0  0  0  0  0  0  0  0  0  0  0
    1.5206    4.8236    0.2962 H   0  0  0  0  0  0  0  0  0  0  0  0
    3.1356    4.1867    0.6776 H   0  0  0  0  0  0  0  0  0  0  0  0
    1.8593    4.2835   -2.1063 H   0  0  0  0  0  0  0  0  0  0  0  0
    3.4679    3.6391   -1.7488 H   0  0  0  0  0  0  0  0  0  0  0  0
    3.1353    5.3576   -1.5153 H   0  0  0  0  0  0  0  0  0  0  0  0
    6.1614    1.3989    0.7630 H   0  0  0  0  0  0  0  0  0  0  0  0
    6.2112    2.0108   -0.9018 H   0  0  0  0  0  0  0  0  0  0  0  0
    6.4069    4.3518   -0.0294 H   0  0  0  0  0  0  0  0  0  0  0  0
    6.3623    3.7351    1.6284 H   0  0  0  0  0  0  0  0  0  0  0  0
    7.7260    3.3362    0.5761 H   0  0  0  0  0  0  0  0  0  0  0  0
    4.9710   -3.7437    0.9883 H   0  0  0  0  0  0  0  0  0  0  0  0
    7.0778   -2.8822    1.4849 H   0  0  0  0  0  0  0  0  0  0  0  0
   10.3872   -2.3430    0.3160 H   0  0  0  0  0  0  0  0  0  0  0  0
   12.1619   -2.4926    0.5155 H   0  0  0  0  0  0  0  0  0  0  0  0
   11.7796   -3.6002    2.7338 H   0  0  0  0  0  0  0  0  0  0  0  0
   11.0031   -4.5010    1.4221 H   0  0  0  0  0  0  0  0  0  0  0  0
   10.0314   -3.4725    2.4846 H   0  0  0  0  0  0  0  0  0  0  0  0
   10.9703    2.3156    4.6536 H   0  0  0  0  0  0  0  0  0  0  0  0
   12.6497    2.4253    4.0389 H   0  0  0  0  0  0  0  0  0  0  0  0
   10.1365    3.4813    2.6444 H   0  0  0  0  0  0  0  0  0  0  0  0
   11.3675    4.4710    3.4423 H   0  0  0  0  0  0  0  0  0  0  0  0
   11.7755    3.5631    1.9781 H   0  0  0  0  0  0  0  0  0  0  0  0
    7.5066    3.0044    4.2362 H   0  0  0  0  0  0  0  0  0  0  0  0
    5.4047    4.1319    4.5318 H   0  0  0  0  0  0  0  0  0  0  0  0
    1.6003   -1.9407    6.3923 H   0  0  0  0  0  0  0  0  0  0  0  0
    3.1556   -1.0945    6.3795 H   0  0  0  0  0  0  0  0  0  0  0  0
    3.1105   -2.9096    4.6726 H   0  0  0  0  0  0  0  0  0  0  0  0
    3.2540   -1.3312    3.8946 H   0  0  0  0  0  0  0  0  0  0  0  0
    1.6955   -2.1646    3.9232 H   0  0  0  0  0  0  0  0  0  0  0  0
    0.4353    1.5529    6.6507 H   0  0  0  0  0  0  0  0  0  0  0  0
    0.3861   -0.0410    7.4042 H   0  0  0  0  0  0  0  0  0  0  0  0
    1.7070    1.5580    8.7493 H   0  0  0  0  0  0  0  0  0  0  0  0
    2.8016    1.8398    7.3980 H   0  0  0  0  0  0  0  0  0  0  0  0
    2.7449    0.2551    8.1801 H   0  0  0  0  0  0  0  0  0  0  0  0
    4.3262    0.8414    5.7128 H   0  0  0  0  0  0  0  0  0  0  0  0
   -2.2999   -0.2732    3.9660 H   0  0  0  0  0  0  0  0  0  0  0  0
   -0.5935    1.0148   -1.5718 H   0  0  0  0  0  0  0  0  0  0  0  0
   -0.3393    2.7382   -1.2988 H   0  0  0  0  0  0  0  0  0  0  0  0
    0.1525    3.0393   -3.7547 H   0  0  0  0  0  0  0  0  0  0  0  0
    1.2441    1.8492   -3.0238 H   0  0  0  0  0  0  0  0  0  0  0  0
   -0.1200    1.3154   -4.0147 H   0  0  0  0  0  0  0  0  0  0  0  0
   -3.2972    3.2850   -4.2137 H   0  0  0  0  0  0  0  0  0  0  0  0
   -3.5366    1.5220   -4.1876 H   0  0  0  0  0  0  0  0  0  0  0  0
   -5.5392    3.5497   -5.2989 H   0  0  0  0  0  0  0  0  0  0  0  0
   -5.7450    1.7988   -5.2985 H   0  0  0  0  0  0  0  0  0  0  0  0
   -4.4635    2.5380   -6.2762 H   0  0  0  0  0  0  0  0  0  0  0  0
   -7.4604    1.8607    2.6569 H   0  0  0  0  0  0  0  0  0  0  0  0
   -7.4954    2.5260   -0.3329 H   0  0  0  0  0  0  0  0  0  0  0  0
   -8.9517    2.3819    0.7890 H   0  0  0  0  0  0  0  0  0  0  0  0
  1  2  1  0  0  0  0
  2  3  1  0  0  0  0
  3  4  2  0  0  0  0
  4  5  1  0  0  0  0
  5  6  1  0  0  0  0
  6  7  2  0  0  0  0
  7  8  1  0  0  0  0
  8  9  1  0  0  0  0
  9 10  1  0  0  0  0
  7 11  1  0  0  0  0
 11 12  1  0  0  0  0
 12 13  1  0  0  0  0
 13 14  1  0  0  0  0
 11 15  2  0  0  0  0
  3 16  1  0  0  0  0
 16 17  2  0  0  0  0
 17 18  1  0  0  0  0
 18 19  1  0  0  0  0
 19 20  1  0  0  0  0
 20 21  1  0  0  0  0
 21 22  2  0  0  0  0
 22 23  1  0  0  0  0
 23 24  1  0  0  0  0
 24 25  1  0  0  0  0
 25 26  1  0  0  0  0
 24 27  1  0  0  0  0
 27 28  1  0  0  0  0
 24 29  1  0  0  0  0
 29 30  1  0  0  0  0
 22 31  1  0  0  0  0
 31 32  2  0  0  0  0
 32 33  1  0  0  0  0
 32 34  1  0  0  0  0
 34 35  1  0  0  0  0
 35 36  1  0  0  0  0
 36 37  2  0  0  0  0
 37 38  1  0  0  0  0
 38 39  1  0  0  0  0
 39 40  2  0  0  0  0
 40 41  1  0  0  0  0
 41 42  1  0  0  0  0
 42 43  1  0  0  0  0
 40 44  1  0  0  0  0
 44 45  1  0  0  0  0
 45 46  1  0  0  0  0
 46 47  1  0  0  0  0
 44 48  2  0  0  0  0
 36 49  1  0  0  0  0
 49 50  2  0  0  0  0
 50 51  1  0  0  0  0
 51 52  1  0  0  0  0
 52 53  1  0  0  0  0
 53 54  2  0  0  0  0
 54 55  1  0  0  0  0
 55 56  1  0  0  0  0
 56 57  2  0  0  0  0
 57 58  1  0  0  0  0
 58 59  1  0  0  0  0
 59 60  1  0  0  0  0
 57 61  1  0  0  0  0
 61 62  1  0  0  0  0
 62 63  1  0  0  0  0
 63 64  1  0  0  0  0
 61 65  2  0  0  0  0
 53 66  1  0  0  0  0
 66 67  2  0  0  0  0
 67 68  1  0  0  0  0
 68 69  1  0  0  0  0
 69 70  1  0  0  0  0
 70 71  1  0  0  0  0
 71 72  2  0  0  0  0
 72 73  1  0  0  0  0
 73 74  1  0  0  0  0
 74 75  1  0  0  0  0
 75 76  1  0  0  0  0
 74 77  1  0  0  0  0
 77 78  1  0  0  0  0
 74 79  1  0  0  0  0
 79 80  1  0  0  0  0
 72 81  1  0  0  0  0
 81 82  2  0  0  0  0
 82 83  1  0  0  0  0
 82 84  1  0  0  0  0
 84 85  1  0  0  0  0
 85 86  1  0  0  0  0
 86 87  2  0  0  0  0
 87 88  1  0  0  0  0
 88 89  1  0  0  0  0
 89 90  2  0  0  0  0
 90 91  1  0  0  0  0
 91 92  1  0  0  0  0
 92 93  1  0  0  0  0
 90 94  1  0  0  0  0
 94 95  1  0  0  0  0
 95 96  1  0  0  0  0
 96 97  1  0  0  0  0
 94 98  2  0  0  0  0
 86 99  1  0  0  0  0
 99100  2  0  0  0  0
  5  1  2  0  0  0  0
 30 18  2  0  0  0  0
 38 34  2  0  0  0  0
 55 51  2  0  0  0  0
 80 68  2  0  0  0  0
 88 84  2  0  0  0  0
 15  4  1  0  0  0  0
 29 20  2  0  0  0  0
 48 37  1  0  0  0  0
 65 54  1  0  0  0  0
 79 70  2  0  0  0  0
 98 87  1  0  0  0  0
 33 21  1  0  0  0  0
 83 71  1  0  0  0  0
  1101  1  0  0  0  0
  9102  1  0  0  0  0
  9103  1  0  0  0  0
 10104  1  0  0  0  0
 10105  1  0  0  0  0
 10106  1  0  0  0  0
 13107  1  0  0  0  0
 13108  1  0  0  0  0
 14109  1  0  0  0  0
 14110  1  0  0  0  0
 14111  1  0  0  0  0
 16112  1  0  0  0  0
 17113  1  0  0  0  0
 25114  1  0  0  0  0
 25115  1  0  0  0  0
 26116  1  0  0  0  0
 26117  1  0  0  0  0
 26118  1  0  0  0  0
 27119  1  0  0  0  0
 27120  1  0  0  0  0
 28121  1  0  0  0  0
 28122  1  0  0  0  0
 28123  1  0  0  0  0
 30124  1  0  0  0  0
 31125  1  0  0  0  0
 42126  1  0  0  0  0
 42127  1  0  0  0  0
 43128  1  0  0  0  0
 43129  1  0  0  0  0
 43130  1  0  0  0  0
 46131  1  0  0  0  0
 46132  1  0  0  0  0
 47133  1  0  0  0  0
 47134  1  0  0  0  0
 47135  1  0  0  0  0
 49136  1  0  0  0  0
 50137  1  0  0  0  0
 59138  1  0  0  0  0
 59139  1  0  0  0  0
 60140  1  0  0  0  0
 60141  1  0  0  0  0
 60142  1  0  0  0  0
 63143  1  0  0  0  0
 63144  1  0  0  0  0
 64145  1  0  0  0  0
 64146  1  0  0  0  0
 64147  1  0  0  0  0
 66148  1  0  0  0  0
 67149  1  0  0  0  0
 75150  1  0  0  0  0
 75151  1  0  0  0  0
 76152  1  0  0  0  0
 76153  1  0  0  0  0
 76154  1  0  0  0  0
 77155  1  0  0  0  0
 77156  1  0  0  0  0
 78157  1  0  0  0  0
 78158  1  0  0  0  0
 78159  1  0  0  0  0
 80160  1  0  0  0  0
 81161  1  0  0  0  0
 92162  1  0  0  0  0
 92163  1  0  0  0  0
 93164  1  0  0  0  0
 93165  1  0  0  0  0
 93166  1  0  0  0  0
 96167  1  0  0  0  0
 96168  1  0  0  0  0
 97169  1  0  0  0  0
 97170  1  0  0  0  0
 97171  1  0  0  0  0
 99172  1  0  0  0  0
100173  1  0  0  0  0
100174  1  0  0  0  0
M  END
