95

C          2.96370        1.80590        4.99790
S          2.01680        0.93670        6.14310
C          3.33960        0.78860        7.23880
C          4.44610        1.38490        6.72970
C          4.24050        1.97920        5.43830
C          5.44660        2.57660        4.95060
C          6.48810        2.40850        5.84910
S          6.08960        1.56250        7.32120
S          7.96930        3.07930        5.29460
C          7.18000        3.59640        3.81000
C          5.84890        3.27160        3.79550
C          7.92580        4.26370        2.79020
S          9.27240        5.29970        3.19260
C          9.54430        5.72300        1.54600
C          8.65230        5.09620        0.73790
C          7.72650        4.24680        1.42620
C          6.87130        3.56650        0.50190
C          7.14020        3.95590       -0.80320
S          8.42860        5.11010       -1.00230
S          6.15050        3.16900       -1.96850
C          5.35520        2.27380       -0.68140
C          5.85660        2.59200        0.55370
C          4.30480        1.36010       -0.96970
S          3.42440        0.60870        0.33770
C          2.41780       -0.21920       -0.79640
C          1.42100       -1.18320       -0.52160
C          0.94320       -1.94830       -1.57530
O          1.37040       -1.79710       -2.84520
C          1.91930       -0.51000       -3.23070
C          2.76200       -0.87300       -4.47010
C          3.00280        0.21180       -5.51110
C          0.70380        0.40360       -3.52950
C          0.97160        1.90320       -3.49150
C          2.74590        0.07240       -2.10880
C          3.82060        0.96540       -2.19550
C          0.03120       -2.93220       -1.16580
C         -0.19930       -2.90970        0.19140
S          0.73310       -1.66810        0.98600
C         -1.06300       -3.75650        0.94570
S         -0.66630       -4.18490        2.59360
C         -2.04560       -5.20270        2.74620
C         -2.76970       -5.20380        1.59790
C         -2.23390       -4.37480        0.55870
C         -3.10940       -4.34210       -0.57250
C         -4.20870       -5.16350       -0.36780
S         -4.27170       -5.99480        1.16030
S         -5.34780       -5.10980       -1.64950
C         -4.36530       -3.89970       -2.46670
C         -3.21170       -3.62980       -1.78820
C         -4.85140       -3.27420       -3.66490
S         -3.86440       -3.08460       -5.09170
C         -5.10290       -2.22350       -5.92880
C         -6.20800       -2.09060       -5.15190
C         -6.08170       -2.69590       -3.86080
C         -7.22330       -2.42400       -3.04740
C         -8.14950       -1.64130       -3.71920
S         -7.73210       -1.24270       -5.36750
S         -9.48750       -1.19060       -2.73410
C         -8.78690       -2.06920       -1.38160
C         -7.61210       -2.68130       -1.72250
C         -9.39320       -2.13360       -0.09190
S        -11.12130       -2.02210        0.11650
C        -11.01890       -2.36760        1.79910
C         -9.72650       -2.54670        2.17430
C         -8.77300       -2.39340        1.11540
C         -7.43340       -2.52190        1.61230
C         -7.43740       -2.83860        2.96230
S         -9.00230       -2.94080        3.72080
S         -5.86350       -3.00370        3.63190
C         -5.17910       -2.60110        2.09320
C         -6.10560       -2.36950        1.13260
H          2.52190        2.12660        4.07680
H          3.21170        0.27680        8.17000
H          5.17840        3.56320        3.00980
H         10.33490        6.39670        1.28780
H          5.51560        2.10980        1.45070
H          3.72150       -1.25670       -4.11610
H          2.23730       -1.70250       -4.94990
H          3.60310       -0.20640       -6.31640
H          3.54280        1.05990       -5.10090
H          2.06920        0.56520       -5.93870
H         -0.05180        0.17580       -2.77160
H          0.28940        0.11440       -4.49650
H          1.29690        2.21330       -2.50150
H          0.05330        2.43600       -3.72820
H          1.73030        2.19700       -4.20860
H          4.24830        1.32750       -3.11160
H         -0.39460       -3.65850       -1.83130
H         -2.23270       -5.72340        3.66230
H         -2.49860       -2.90140       -2.12690
H         -4.92620       -1.86900       -6.92320
H         -7.08670       -3.32880       -1.05100
H        -11.90810       -2.41680        2.39260
H         -4.11210       -2.55130        2.00320
H         -5.84680       -2.06710        0.13500
