
  xtb     03032216473D
 energy: -396.701774032866 gnorm: 0.000201341886 xtb: 6.4.1 (unknown)
236259  0     0  0            999 V2000
    6.6209   -0.5643   11.5731 C   0  0  0  0  0  0  0  0  0  0  0  0
    5.5843    0.0296   12.1974 C   0  0  0  0  0  0  0  0  0  0  0  0
    4.3365   -0.1977   11.5432 C   0  0  0  0  0  0  0  0  0  0  0  0
    3.0673    0.2763   11.9089 C   0  0  0  0  0  0  0  0  0  0  0  0
    2.8847    1.1921   13.0423 C   0  0  0  0  0  0  0  0  0  0  0  0
    3.6369    2.3590   13.1388 C   0  0  0  0  0  0  0  0  0  0  0  0
    3.4579    3.2419   14.1863 C   0  0  0  0  0  0  0  0  0  0  0  0
    2.5152    2.9894   15.1761 C   0  0  0  0  0  0  0  0  0  0  0  0
    2.2008    4.0129   16.5761 S   0  0  0  0  0  0  0  0  0  0  0  0
    2.9922    5.6038   16.1547 C   0  0  0  0  0  0  0  0  0  0  0  0
    2.2593    6.3367   15.0472 C   0  0  0  0  0  0  0  0  0  0  0  0
    1.7733    1.8115   15.0699 C   0  0  0  0  0  0  0  0  0  0  0  0
    0.8600    1.5272   16.0200 F   0  0  0  0  0  0  0  0  0  0  0  0
    1.9399    0.9249   14.0302 C   0  0  0  0  0  0  0  0  0  0  0  0
    2.0002   -0.1373   11.1267 C   0  0  0  0  0  0  0  0  0  0  0  0
    2.1546   -0.9547    9.9797 C   0  0  0  0  0  0  0  0  0  0  0  0
    3.4291   -1.3955    9.5890 C   0  0  0  0  0  0  0  0  0  0  0  0
    3.6194   -2.1901    8.3686 C   0  0  0  0  0  0  0  0  0  0  0  0
    4.3303   -3.3886    8.3864 C   0  0  0  0  0  0  0  0  0  0  0  0
    4.5002   -4.1212    7.2315 C   0  0  0  0  0  0  0  0  0  0  0  0
    3.9701   -3.6979    6.0130 C   0  0  0  0  0  0  0  0  0  0  0  0
    4.1993   -4.7739    4.6287 S   0  0  0  0  0  0  0  0  0  0  0  0
    4.3971   -3.6703    3.1819 C   0  0  0  0  0  0  0  0  0  0  0  0
    5.5584   -2.7117    3.3412 C   0  0  0  0  0  0  0  0  0  0  0  0
    3.2531   -2.5055    6.0129 C   0  0  0  0  0  0  0  0  0  0  0  0
    3.0866   -1.7546    7.1590 C   0  0  0  0  0  0  0  0  0  0  0  0
    2.6851   -2.0344    4.8789 F   0  0  0  0  0  0  0  0  0  0  0  0
    4.4891   -1.0231   10.4036 C   0  0  0  0  0  0  0  0  0  0  0  0
    6.1644   -1.4447   10.1539 S   0  0  0  0  0  0  0  0  0  0  0  0
    0.9124   -1.2267    9.3564 C   0  0  0  0  0  0  0  0  0  0  0  0
   -0.1522   -0.6240    9.9605 C   0  0  0  0  0  0  0  0  0  0  0  0
    0.3276    0.3091   11.3658 S   0  0  0  0  0  0  0  0  0  0  0  0
   -1.5053   -0.6661    9.5253 C   0  0  0  0  0  0  0  0  0  0  0  0
   -1.8943   -1.5634    8.0787 S   0  0  0  0  0  0  0  0  0  0  0  0
   -3.5390   -1.0616    8.1960 C   0  0  0  0  0  0  0  0  0  0  0  0
   -4.5593   -1.2668    7.2437 C   0  0  0  0  0  0  0  0  0  0  0  0
   -5.7283   -0.5249    7.3452 C   0  0  0  0  0  0  0  0  0  0  0  0
   -5.9899    0.3017    8.3732 O   0  0  0  0  0  0  0  0  0  0  0  0
   -5.1802    0.2276    9.5701 C   0  0  0  0  0  0  0  0  0  0  0  0
   -5.1891    1.6513   10.1456 C   0  0  0  0  0  0  0  0  0  0  0  0
   -4.4546    2.6417    9.2490 C   0  0  0  0  0  0  0  0  0  0  0  0
   -5.8309   -0.7958   10.5319 C   0  0  0  0  0  0  0  0  0  0  0  0
   -7.2721   -0.4646   10.8992 C   0  0  0  0  0  0  0  0  0  0  0  0
   -3.7755   -0.2529    9.2912 C   0  0  0  0  0  0  0  0  0  0  0  0
   -2.6160   -0.0405   10.0477 C   0  0  0  0  0  0  0  0  0  0  0  0
   -6.5501   -0.6543    6.2133 C   0  0  0  0  0  0  0  0  0  0  0  0
   -6.0107   -1.4924    5.2604 C   0  0  0  0  0  0  0  0  0  0  0  0
   -4.4874   -2.1635    5.7763 S   0  0  0  0  0  0  0  0  0  0  0  0
   -6.4238   -1.7575    3.9230 C   0  0  0  0  0  0  0  0  0  0  0  0
   -7.3772   -1.1424    3.1606 C   0  0  0  0  0  0  0  0  0  0  0  0
   -7.3176   -1.4956    1.7865 C   0  0  0  0  0  0  0  0  0  0  0  0
   -8.0316   -0.9326    0.7101 C   0  0  0  0  0  0  0  0  0  0  0  0
   -9.1609   -0.0277    0.9503 C   0  0  0  0  0  0  0  0  0  0  0  0
  -10.1671   -0.3878    1.8434 C   0  0  0  0  0  0  0  0  0  0  0  0
  -11.2529    0.4348    2.0711 C   0  0  0  0  0  0  0  0  0  0  0  0
  -11.3728    1.6529    1.4117 C   0  0  0  0  0  0  0  0  0  0  0  0
  -12.6883    2.8067    1.6210 S   0  0  0  0  0  0  0  0  0  0  0  0
  -14.0016    1.8433    2.4471 C   0  0  0  0  0  0  0  0  0  0  0  0
  -14.6181    0.8046    1.5296 C   0  0  0  0  0  0  0  0  0  0  0  0
  -10.3493    2.0082    0.5311 C   0  0  0  0  0  0  0  0  0  0  0  0
  -10.4215    3.1922   -0.1097 F   0  0  0  0  0  0  0  0  0  0  0  0
   -9.2639    1.1962    0.2927 C   0  0  0  0  0  0  0  0  0  0  0  0
   -7.5962   -1.2620   -0.5655 C   0  0  0  0  0  0  0  0  0  0  0  0
   -6.5322   -2.1679   -0.8110 C   0  0  0  0  0  0  0  0  0  0  0  0
   -5.8691   -2.7858    0.2588 C   0  0  0  0  0  0  0  0  0  0  0  0
   -4.7240   -3.6883    0.0796 C   0  0  0  0  0  0  0  0  0  0  0  0
   -4.6974   -4.9322    0.7074 C   0  0  0  0  0  0  0  0  0  0  0  0
   -3.5881   -5.7442    0.6102 C   0  0  0  0  0  0  0  0  0  0  0  0
   -2.4634   -5.3514   -0.1121 C   0  0  0  0  0  0  0  0  0  0  0  0
   -1.1070   -6.4862   -0.1799 S   0  0  0  0  0  0  0  0  0  0  0  0
    0.3734   -5.4203   -0.0196 C   0  0  0  0  0  0  0  0  0  0  0  0
    0.3578   -4.6091    1.2603 C   0  0  0  0  0  0  0  0  0  0  0  0
   -2.5164   -4.1210   -0.7596 C   0  0  0  0  0  0  0  0  0  0  0  0
   -3.6164   -3.2925   -0.6624 C   0  0  0  0  0  0  0  0  0  0  0  0
   -1.4759   -3.6844   -1.5045 F   0  0  0  0  0  0  0  0  0  0  0  0
   -6.2788   -2.4232    1.5298 C   0  0  0  0  0  0  0  0  0  0  0  0
   -5.4649   -2.8953    2.9925 S   0  0  0  0  0  0  0  0  0  0  0  0
   -6.2366   -2.2852   -2.1870 C   0  0  0  0  0  0  0  0  0  0  0  0
   -7.0000   -1.4843   -2.9870 C   0  0  0  0  0  0  0  0  0  0  0  0
   -8.2118   -0.6080   -2.0684 S   0  0  0  0  0  0  0  0  0  0  0  0
   -6.7534   -1.2193   -4.3618 C   0  0  0  0  0  0  0  0  0  0  0  0
   -5.2596   -1.8235   -5.0420 S   0  0  0  0  0  0  0  0  0  0  0  0
   -5.5462   -0.9372   -6.4902 C   0  0  0  0  0  0  0  0  0  0  0  0
   -4.6285   -0.7215   -7.5378 C   0  0  0  0  0  0  0  0  0  0  0  0
   -4.8937    0.2781   -8.4636 C   0  0  0  0  0  0  0  0  0  0  0  0
   -6.0501    0.9621   -8.5011 O   0  0  0  0  0  0  0  0  0  0  0  0
   -7.1701    0.5328   -7.6899 C   0  0  0  0  0  0  0  0  0  0  0  0
   -7.9074    1.8258   -7.3111 C   0  0  0  0  0  0  0  0  0  0  0  0
   -7.0832    2.7119   -6.3838 C   0  0  0  0  0  0  0  0  0  0  0  0
   -8.0477   -0.4104   -8.5481 C   0  0  0  0  0  0  0  0  0  0  0  0
   -8.5464    0.2220   -9.8416 C   0  0  0  0  0  0  0  0  0  0  0  0
   -6.7424   -0.2442   -6.4672 C   0  0  0  0  0  0  0  0  0  0  0  0
   -7.4236   -0.4114   -5.2542 C   0  0  0  0  0  0  0  0  0  0  0  0
   -3.7857    0.5709   -9.2757 C   0  0  0  0  0  0  0  0  0  0  0  0
   -2.6770   -0.1858   -8.9546 C   0  0  0  0  0  0  0  0  0  0  0  0
   -3.0180   -1.3215   -7.6767 S   0  0  0  0  0  0  0  0  0  0  0  0
   -1.3364   -0.0814   -9.4156 C   0  0  0  0  0  0  0  0  0  0  0  0
   -0.0821   -0.8456   -8.4709 S   0  0  0  0  0  0  0  0  0  0  0  0
    1.1270   -0.1758   -9.4982 C   0  0  0  0  0  0  0  0  0  0  0  0
    2.5259   -0.2358   -9.3254 C   0  0  0  0  0  0  0  0  0  0  0  0
    3.3338    0.5508  -10.1343 C   0  0  0  0  0  0  0  0  0  0  0  0
    2.8618    1.3349  -11.1203 O   0  0  0  0  0  0  0  0  0  0  0  0
    1.4984    1.1797  -11.5741 C   0  0  0  0  0  0  0  0  0  0  0  0
    1.0451    2.5935  -11.9697 C   0  0  0  0  0  0  0  0  0  0  0  0
    0.9161    3.5150  -10.7622 C   0  0  0  0  0  0  0  0  0  0  0  0
    1.5040    0.2084  -12.7799 C   0  0  0  0  0  0  0  0  0  0  0  0
    2.3987    0.6602  -13.9274 C   0  0  0  0  0  0  0  0  0  0  0  0
    0.5916    0.5805  -10.5249 C   0  0  0  0  0  0  0  0  0  0  0  0
   -0.8066    0.6288  -10.4738 C   0  0  0  0  0  0  0  0  0  0  0  0
    4.6849    0.5029   -9.7585 C   0  0  0  0  0  0  0  0  0  0  0  0
    4.9033   -0.3073   -8.6639 C   0  0  0  0  0  0  0  0  0  0  0  0
    3.4300   -1.0439   -8.1004 S   0  0  0  0  0  0  0  0  0  0  0  0
    6.1209   -0.5578   -7.9673 C   0  0  0  0  0  0  0  0  0  0  0  0
    7.3921   -0.1947   -8.3072 C   0  0  0  0  0  0  0  0  0  0  0  0
    8.3687   -0.5829   -7.3535 C   0  0  0  0  0  0  0  0  0  0  0  0
    9.7509   -0.3361   -7.3786 C   0  0  0  0  0  0  0  0  0  0  0  0
   10.3908    0.3135   -8.5283 C   0  0  0  0  0  0  0  0  0  0  0  0
   10.1758   -0.1570   -9.8207 C   0  0  0  0  0  0  0  0  0  0  0  0
   10.7791    0.4403  -10.9103 C   0  0  0  0  0  0  0  0  0  0  0  0
   11.6099    1.5431  -10.7478 C   0  0  0  0  0  0  0  0  0  0  0  0
   12.4453    2.3984  -12.0417 S   0  0  0  0  0  0  0  0  0  0  0  0
   11.6388    1.8013  -13.5675 C   0  0  0  0  0  0  0  0  0  0  0  0
   10.2211    2.3213  -13.7137 C   0  0  0  0  0  0  0  0  0  0  0  0
   11.8251    1.9971   -9.4449 C   0  0  0  0  0  0  0  0  0  0  0  0
   12.6296    3.0607   -9.2496 F   0  0  0  0  0  0  0  0  0  0  0  0
   11.2401    1.4035   -8.3498 C   0  0  0  0  0  0  0  0  0  0  0  0
   10.4787   -0.7529   -6.2722 C   0  0  0  0  0  0  0  0  0  0  0  0
    9.8957   -1.4038   -5.1584 C   0  0  0  0  0  0  0  0  0  0  0  0
    8.5157   -1.6524   -5.1331 C   0  0  0  0  0  0  0  0  0  0  0  0
    7.8537   -2.2707   -3.9767 C   0  0  0  0  0  0  0  0  0  0  0  0
    8.0445   -1.7670   -2.6910 C   0  0  0  0  0  0  0  0  0  0  0  0
    7.3691   -2.3080   -1.6172 C   0  0  0  0  0  0  0  0  0  0  0  0
    6.4925   -3.3776   -1.7792 C   0  0  0  0  0  0  0  0  0  0  0  0
    5.6924   -4.0223   -0.3362 S   0  0  0  0  0  0  0  0  0  0  0  0
    3.9545   -4.2260   -0.8793 C   0  0  0  0  0  0  0  0  0  0  0  0
    3.3355   -2.9050   -1.2882 C   0  0  0  0  0  0  0  0  0  0  0  0
    6.3428   -3.8969   -3.0612 C   0  0  0  0  0  0  0  0  0  0  0  0
    6.9915   -3.3484   -4.1488 C   0  0  0  0  0  0  0  0  0  0  0  0
    5.5532   -4.9690   -3.2816 F   0  0  0  0  0  0  0  0  0  0  0  0
    7.7902   -1.2478   -6.2438 C   0  0  0  0  0  0  0  0  0  0  0  0
    6.0656   -1.4089   -6.4348 S   0  0  0  0  0  0  0  0  0  0  0  0
   10.8781   -1.7736   -4.1921 C   0  0  0  0  0  0  0  0  0  0  0  0
   12.1275   -1.4164   -4.5512 C   0  0  0  0  0  0  0  0  0  0  0  0
   12.2074   -0.6080   -6.0792 S   0  0  0  0  0  0  0  0  0  0  0  0
    7.6552   -0.5541   11.8565 H   0  0  0  0  0  0  0  0  0  0  0  0
    5.6796    0.6006   13.1031 H   0  0  0  0  0  0  0  0  0  0  0  0
    4.3601    2.5904   12.3711 H   0  0  0  0  0  0  0  0  0  0  0  0
    4.0662    4.1310   14.2251 H   0  0  0  0  0  0  0  0  0  0  0  0
    2.9443    6.1648   17.0880 H   0  0  0  0  0  0  0  0  0  0  0  0
    4.0392    5.4226   15.9147 H   0  0  0  0  0  0  0  0  0  0  0  0
    2.2580    5.7559   14.1272 H   0  0  0  0  0  0  0  0  0  0  0  0
    1.2274    6.5183   15.3381 H   0  0  0  0  0  0  0  0  0  0  0  0
    2.7406    7.2936   14.8543 H   0  0  0  0  0  0  0  0  0  0  0  0
    1.3440    0.0265   14.0057 H   0  0  0  0  0  0  0  0  0  0  0  0
    4.7403   -3.7541    9.3150 H   0  0  0  0  0  0  0  0  0  0  0  0
    5.0487   -5.0500    7.2516 H   0  0  0  0  0  0  0  0  0  0  0  0
    4.5871   -4.3683    2.3663 H   0  0  0  0  0  0  0  0  0  0  0  0
    3.4587   -3.1506    3.0008 H   0  0  0  0  0  0  0  0  0  0  0  0
    5.3700   -1.9968    4.1396 H   0  0  0  0  0  0  0  0  0  0  0  0
    5.7035   -2.1658    2.4116 H   0  0  0  0  0  0  0  0  0  0  0  0
    6.4715   -3.2569    3.5689 H   0  0  0  0  0  0  0  0  0  0  0  0
    2.5421   -0.8250    7.0936 H   0  0  0  0  0  0  0  0  0  0  0  0
    0.8046   -1.8574    8.4921 H   0  0  0  0  0  0  0  0  0  0  0  0
   -4.7411    1.6331   11.1393 H   0  0  0  0  0  0  0  0  0  0  0  0
   -6.2284    1.9650   10.2386 H   0  0  0  0  0  0  0  0  0  0  0  0
   -4.8927    2.6376    8.2539 H   0  0  0  0  0  0  0  0  0  0  0  0
   -4.5357    3.6454    9.6587 H   0  0  0  0  0  0  0  0  0  0  0  0
   -3.4006    2.3876    9.1638 H   0  0  0  0  0  0  0  0  0  0  0  0
   -5.2154   -0.8609   11.4307 H   0  0  0  0  0  0  0  0  0  0  0  0
   -5.8021   -1.7703   10.0360 H   0  0  0  0  0  0  0  0  0  0  0  0
   -7.3214    0.4008   11.5543 H   0  0  0  0  0  0  0  0  0  0  0  0
   -7.8483   -0.2578   10.0007 H   0  0  0  0  0  0  0  0  0  0  0  0
   -7.7242   -1.3084   11.4150 H   0  0  0  0  0  0  0  0  0  0  0  0
   -2.5666    0.5534   10.9428 H   0  0  0  0  0  0  0  0  0  0  0  0
   -7.4818   -0.1340    6.0953 H   0  0  0  0  0  0  0  0  0  0  0  0
   -8.0494   -0.3989    3.5487 H   0  0  0  0  0  0  0  0  0  0  0  0
  -10.1076   -1.3374    2.3541 H   0  0  0  0  0  0  0  0  0  0  0  0
  -12.0066    0.1177    2.7736 H   0  0  0  0  0  0  0  0  0  0  0  0
  -14.7351    2.6011    2.7227 H   0  0  0  0  0  0  0  0  0  0  0  0
  -13.5965    1.4074    3.3594 H   0  0  0  0  0  0  0  0  0  0  0  0
  -13.8762    0.0768    1.2076 H   0  0  0  0  0  0  0  0  0  0  0  0
  -15.0322    1.2845    0.6461 H   0  0  0  0  0  0  0  0  0  0  0  0
  -15.4182    0.2801    2.0486 H   0  0  0  0  0  0  0  0  0  0  0  0
   -8.4994    1.5328   -0.3887 H   0  0  0  0  0  0  0  0  0  0  0  0
   -5.5540   -5.2621    1.2748 H   0  0  0  0  0  0  0  0  0  0  0  0
   -3.5682   -6.7035    1.1033 H   0  0  0  0  0  0  0  0  0  0  0  0
    1.1945   -6.1374   -0.0231 H   0  0  0  0  0  0  0  0  0  0  0  0
    0.4501   -4.7908   -0.9032 H   0  0  0  0  0  0  0  0  0  0  0  0
   -0.4837   -3.9188    1.2731 H   0  0  0  0  0  0  0  0  0  0  0  0
    1.2755   -4.0295    1.3401 H   0  0  0  0  0  0  0  0  0  0  0  0
    0.2810   -5.2621    2.1269 H   0  0  0  0  0  0  0  0  0  0  0  0
   -3.5880   -2.3326   -1.1548 H   0  0  0  0  0  0  0  0  0  0  0  0
   -5.4616   -2.9210   -2.5757 H   0  0  0  0  0  0  0  0  0  0  0  0
   -8.8574    1.5662   -6.8434 H   0  0  0  0  0  0  0  0  0  0  0  0
   -8.1115    2.3734   -8.2308 H   0  0  0  0  0  0  0  0  0  0  0  0
   -6.1309    2.9536   -6.8497 H   0  0  0  0  0  0  0  0  0  0  0  0
   -7.6159    3.6381   -6.1840 H   0  0  0  0  0  0  0  0  0  0  0  0
   -6.8881    2.2153   -5.4362 H   0  0  0  0  0  0  0  0  0  0  0  0
   -7.4407   -1.2877   -8.7888 H   0  0  0  0  0  0  0  0  0  0  0  0
   -8.8897   -0.7442   -7.9391 H   0  0  0  0  0  0  0  0  0  0  0  0
   -9.3002    0.9790   -9.6436 H   0  0  0  0  0  0  0  0  0  0  0  0
   -7.7184    0.6827  -10.3747 H   0  0  0  0  0  0  0  0  0  0  0  0
   -8.9881   -0.5405  -10.4787 H   0  0  0  0  0  0  0  0  0  0  0  0
   -8.3641    0.0490   -5.0095 H   0  0  0  0  0  0  0  0  0  0  0  0
   -3.7889    1.3387  -10.0261 H   0  0  0  0  0  0  0  0  0  0  0  0
    0.0945    2.5253  -12.4990 H   0  0  0  0  0  0  0  0  0  0  0  0
    1.7920    3.0039  -12.6488 H   0  0  0  0  0  0  0  0  0  0  0  0
    0.1521    3.1566  -10.0760 H   0  0  0  0  0  0  0  0  0  0  0  0
    1.8627    3.5645  -10.2295 H   0  0  0  0  0  0  0  0  0  0  0  0
    0.6483    4.5180  -11.0850 H   0  0  0  0  0  0  0  0  0  0  0  0
    0.4766    0.0831  -13.1256 H   0  0  0  0  0  0  0  0  0  0  0  0
    1.8533   -0.7607  -12.4126 H   0  0  0  0  0  0  0  0  0  0  0  0
    2.5033   -0.1436  -14.6521 H   0  0  0  0  0  0  0  0  0  0  0  0
    3.3851    0.9191  -13.5508 H   0  0  0  0  0  0  0  0  0  0  0  0
    1.9797    1.5246  -14.4351 H   0  0  0  0  0  0  0  0  0  0  0  0
   -1.4215    1.1596  -11.1770 H   0  0  0  0  0  0  0  0  0  0  0  0
    5.4562    1.0623  -10.2530 H   0  0  0  0  0  0  0  0  0  0  0  0
    7.6274    0.3499   -9.2027 H   0  0  0  0  0  0  0  0  0  0  0  0
    9.5470   -1.0214   -9.9735 H   0  0  0  0  0  0  0  0  0  0  0  0
   10.6019    0.0295  -11.8910 H   0  0  0  0  0  0  0  0  0  0  0  0
   11.6894    0.7134  -13.5875 H   0  0  0  0  0  0  0  0  0  0  0  0
   12.2771    2.1913  -14.3602 H   0  0  0  0  0  0  0  0  0  0  0  0
    9.5937    1.9845  -12.8913 H   0  0  0  0  0  0  0  0  0  0  0  0
    9.7907    1.9657  -14.6481 H   0  0  0  0  0  0  0  0  0  0  0  0
   10.2202    3.4086  -13.7213 H   0  0  0  0  0  0  0  0  0  0  0  0
   11.4321    1.8079   -7.3688 H   0  0  0  0  0  0  0  0  0  0  0  0
    8.6997   -0.9224   -2.5411 H   0  0  0  0  0  0  0  0  0  0  0  0
    7.5055   -1.9036   -0.6261 H   0  0  0  0  0  0  0  0  0  0  0  0
    3.4601   -4.6393   -0.0004 H   0  0  0  0  0  0  0  0  0  0  0  0
    3.9186   -4.9593   -1.6814 H   0  0  0  0  0  0  0  0  0  0  0  0
    3.3942   -2.1865   -0.4730 H   0  0  0  0  0  0  0  0  0  0  0  0
    3.8483   -2.4889   -2.1538 H   0  0  0  0  0  0  0  0  0  0  0  0
    2.2896   -3.0528   -1.5488 H   0  0  0  0  0  0  0  0  0  0  0  0
    6.8370   -3.7905   -5.1205 H   0  0  0  0  0  0  0  0  0  0  0  0
   10.6443   -2.3003   -3.2847 H   0  0  0  0  0  0  0  0  0  0  0  0
   13.0399   -1.5757   -4.0103 H   0  0  0  0  0  0  0  0  0  0  0  0
  1  2  2  0  0  0  0
  2  3  1  0  0  0  0
  3  4  2  0  0  0  0
  4  5  1  0  0  0  0
  5  6  2  0  0  0  0
  6  7  1  0  0  0  0
  7  8  2  0  0  0  0
  8  9  1  0  0  0  0
  9 10  1  0  0  0  0
 10 11  1  0  0  0  0
  8 12  1  0  0  0  0
 12 13  1  0  0  0  0
 12 14  2  0  0  0  0
  4 15  1  0  0  0  0
 15 16  2  0  0  0  0
 16 17  1  0  0  0  0
 17 18  1  0  0  0  0
 18 19  2  0  0  0  0
 19 20  1  0  0  0  0
 20 21  2  0  0  0  0
 21 22  1  0  0  0  0
 22 23  1  0  0  0  0
 23 24  1  0  0  0  0
 21 25  1  0  0  0  0
 25 26  2  0  0  0  0
 25 27  1  0  0  0  0
 17 28  2  0  0  0  0
 28 29  1  0  0  0  0
 16 30  1  0  0  0  0
 30 31  2  0  0  0  0
 31 32  1  0  0  0  0
 31 33  1  0  0  0  0
 33 34  1  0  0  0  0
 34 35  1  0  0  0  0
 35 36  1  0  0  0  0
 36 37  2  0  0  0  0
 37 38  1  0  0  0  0
 38 39  1  0  0  0  0
 39 40  1  0  0  0  0
 40 41  1  0  0  0  0
 39 42  1  0  0  0  0
 42 43  1  0  0  0  0
 39 44  1  0  0  0  0
 44 45  1  0  0  0  0
 37 46  1  0  0  0  0
 46 47  2  0  0  0  0
 47 48  1  0  0  0  0
 47 49  1  0  0  0  0
 49 50  2  0  0  0  0
 50 51  1  0  0  0  0
 51 52  2  0  0  0  0
 52 53  1  0  0  0  0
 53 54  2  0  0  0  0
 54 55  1  0  0  0  0
 55 56  2  0  0  0  0
 56 57  1  0  0  0  0
 57 58  1  0  0  0  0
 58 59  1  0  0  0  0
 56 60  1  0  0  0  0
 60 61  1  0  0  0  0
 60 62  2  0  0  0  0
 52 63  1  0  0  0  0
 63 64  2  0  0  0  0
 64 65  1  0  0  0  0
 65 66  1  0  0  0  0
 66 67  2  0  0  0  0
 67 68  1  0  0  0  0
 68 69  2  0  0  0  0
 69 70  1  0  0  0  0
 70 71  1  0  0  0  0
 71 72  1  0  0  0  0
 69 73  1  0  0  0  0
 73 74  2  0  0  0  0
 73 75  1  0  0  0  0
 65 76  2  0  0  0  0
 76 77  1  0  0  0  0
 64 78  1  0  0  0  0
 78 79  2  0  0  0  0
 79 80  1  0  0  0  0
 79 81  1  0  0  0  0
 81 82  1  0  0  0  0
 82 83  1  0  0  0  0
 83 84  1  0  0  0  0
 84 85  2  0  0  0  0
 85 86  1  0  0  0  0
 86 87  1  0  0  0  0
 87 88  1  0  0  0  0
 88 89  1  0  0  0  0
 87 90  1  0  0  0  0
 90 91  1  0  0  0  0
 87 92  1  0  0  0  0
 92 93  1  0  0  0  0
 85 94  1  0  0  0  0
 94 95  2  0  0  0  0
 95 96  1  0  0  0  0
 95 97  1  0  0  0  0
 97 98  1  0  0  0  0
 98 99  1  0  0  0  0
 99100  1  0  0  0  0
100101  2  0  0  0  0
101102  1  0  0  0  0
102103  1  0  0  0  0
103104  1  0  0  0  0
104105  1  0  0  0  0
103106  1  0  0  0  0
106107  1  0  0  0  0
103108  1  0  0  0  0
108109  1  0  0  0  0
101110  1  0  0  0  0
110111  2  0  0  0  0
111112  1  0  0  0  0
111113  1  0  0  0  0
113114  2  0  0  0  0
114115  1  0  0  0  0
115116  2  0  0  0  0
116117  1  0  0  0  0
117118  2  0  0  0  0
118119  1  0  0  0  0
119120  2  0  0  0  0
120121  1  0  0  0  0
121122  1  0  0  0  0
122123  1  0  0  0  0
120124  1  0  0  0  0
124125  1  0  0  0  0
124126  2  0  0  0  0
116127  1  0  0  0  0
127128  2  0  0  0  0
128129  1  0  0  0  0
129130  1  0  0  0  0
130131  2  0  0  0  0
131132  1  0  0  0  0
132133  2  0  0  0  0
133134  1  0  0  0  0
134135  1  0  0  0  0
135136  1  0  0  0  0
133137  1  0  0  0  0
137138  2  0  0  0  0
137139  1  0  0  0  0
129140  2  0  0  0  0
140141  1  0  0  0  0
128142  1  0  0  0  0
142143  2  0  0  0  0
143144  1  0  0  0  0
 29  1  1  0  0  0  0
 45 33  2  0  0  0  0
 77 49  1  0  0  0  0
 93 81  2  0  0  0  0
109 97  2  0  0  0  0
141113  1  0  0  0  0
 28  3  1  0  0  0  0
 44 35  2  0  0  0  0
 76 51  1  0  0  0  0
 92 83  2  0  0  0  0
108 99  2  0  0  0  0
140115  1  0  0  0  0
 14  5  1  0  0  0  0
 32 15  1  0  0  0  0
 48 36  1  0  0  0  0
 62 53  1  0  0  0  0
 80 63  1  0  0  0  0
 96 84  1  0  0  0  0
112100  1  0  0  0  0
126117  1  0  0  0  0
144127  1  0  0  0  0
 26 18  1  0  0  0  0
 74 66  1  0  0  0  0
138130  1  0  0  0  0
  1145  1  0  0  0  0
  2146  1  0  0  0  0
  6147  1  0  0  0  0
  7148  1  0  0  0  0
 10149  1  0  0  0  0
 10150  1  0  0  0  0
 11151  1  0  0  0  0
 11152  1  0  0  0  0
 11153  1  0  0  0  0
 14154  1  0  0  0  0
 19155  1  0  0  0  0
 20156  1  0  0  0  0
 23157  1  0  0  0  0
 23158  1  0  0  0  0
 24159  1  0  0  0  0
 24160  1  0  0  0  0
 24161  1  0  0  0  0
 26162  1  0  0  0  0
 30163  1  0  0  0  0
 40164  1  0  0  0  0
 40165  1  0  0  0  0
 41166  1  0  0  0  0
 41167  1  0  0  0  0
 41168  1  0  0  0  0
 42169  1  0  0  0  0
 42170  1  0  0  0  0
 43171  1  0  0  0  0
 43172  1  0  0  0  0
 43173  1  0  0  0  0
 45174  1  0  0  0  0
 46175  1  0  0  0  0
 50176  1  0  0  0  0
 54177  1  0  0  0  0
 55178  1  0  0  0  0
 58179  1  0  0  0  0
 58180  1  0  0  0  0
 59181  1  0  0  0  0
 59182  1  0  0  0  0
 59183  1  0  0  0  0
 62184  1  0  0  0  0
 67185  1  0  0  0  0
 68186  1  0  0  0  0
 71187  1  0  0  0  0
 71188  1  0  0  0  0
 72189  1  0  0  0  0
 72190  1  0  0  0  0
 72191  1  0  0  0  0
 74192  1  0  0  0  0
 78193  1  0  0  0  0
 88194  1  0  0  0  0
 88195  1  0  0  0  0
 89196  1  0  0  0  0
 89197  1  0  0  0  0
 89198  1  0  0  0  0
 90199  1  0  0  0  0
 90200  1  0  0  0  0
 91201  1  0  0  0  0
 91202  1  0  0  0  0
 91203  1  0  0  0  0
 93204  1  0  0  0  0
 94205  1  0  0  0  0
104206  1  0  0  0  0
104207  1  0  0  0  0
105208  1  0  0  0  0
105209  1  0  0  0  0
105210  1  0  0  0  0
106211  1  0  0  0  0
106212  1  0  0  0  0
107213  1  0  0  0  0
107214  1  0  0  0  0
107215  1  0  0  0  0
109216  1  0  0  0  0
110217  1  0  0  0  0
114218  1  0  0  0  0
118219  1  0  0  0  0
119220  1  0  0  0  0
122221  1  0  0  0  0
122222  1  0  0  0  0
123223  1  0  0  0  0
123224  1  0  0  0  0
123225  1  0  0  0  0
126226  1  0  0  0  0
131227  1  0  0  0  0
132228  1  0  0  0  0
135229  1  0  0  0  0
135230  1  0  0  0  0
136231  1  0  0  0  0
136232  1  0  0  0  0
136233  1  0  0  0  0
138234  1  0  0  0  0
142235  1  0  0  0  0
143236  1  0  0  0  0
M  END
