254

C          4.09360       -8.49570        9.29200
C          3.99340       -9.26620        8.19020
C          3.01440       -8.79450        7.26620
C          2.63120       -9.34890        6.03090
C          3.27550      -10.51300        5.45550
C          2.69240      -11.53730        4.76420
C          3.61610      -12.48850        4.28780
C          4.90730      -12.19550        4.60020
C          6.14590      -12.93820        4.23410
C          6.92450      -12.21120        3.13550
S          5.00440      -10.72170        5.50670
C          1.59970       -8.70230        5.35590
C          0.93970       -7.55410        5.85470
C          1.33480       -6.99190        7.08000
C          0.72400       -5.79350        7.62600
C          1.35140       -4.67690        8.09750
C          0.45960       -3.69990        8.58450
C         -0.84610       -4.07120        8.50150
C         -2.05070       -3.32920        8.96790
C         -2.48910       -3.81060       10.35300
S         -1.00230       -5.65250        7.80500
C          2.37220       -7.63090        7.74820
S          3.01440       -7.14410        9.29420
C         -0.01880       -7.05150        4.93880
C         -0.08290       -7.75360        3.77390
S          1.01300       -9.12190        3.76640
C         -0.85140       -7.43630        2.61470
C         -0.70360       -7.92300        1.35110
C         -1.52730       -7.28140        0.39090
C         -1.54810       -7.48910       -1.00340
C         -0.79790       -8.57170       -1.60310
C         -0.65710       -9.85030       -1.13850
C          0.13680      -10.66200       -1.97170
C          0.61440      -10.00950       -3.06650
C          1.45490      -10.54280       -4.17480
C          0.64450      -10.68310       -5.46490
S          0.07080       -8.36450       -3.09760
C         -2.30290       -6.58900       -1.74850
C         -3.11920       -5.59210       -1.16150
C         -3.16990       -5.44250        0.23920
C         -4.02700       -4.46530        0.87810
C         -3.76560       -3.68590        1.97020
C         -4.84690       -2.86400        2.34290
C         -5.94410       -3.01900        1.55320
C         -7.24110       -2.28850        1.60570
C         -7.29660       -1.19890        0.53280
S         -5.65190       -4.18900        0.31040
C         -2.32490       -6.26770        0.97410
S         -2.07110       -6.18160        2.69740
C         -3.71700       -4.76020       -2.13900
C         -3.37580       -5.08420       -3.41930
S         -2.34360       -6.49280       -3.48980
C         -3.62630       -4.26640       -4.56620
C         -4.58550       -3.30630       -4.69510
C         -4.36030       -2.41840       -5.77550
C         -5.09030       -1.26040       -6.10760
C         -6.33140       -0.85510       -5.47990
C         -7.37510       -0.22280       -6.09720
C         -8.40680        0.15290       -5.21590
C         -8.15920       -0.17760       -3.92010
C         -8.98340        0.12510       -2.71690
C         -8.42090        1.33220       -1.96240
S         -6.63180       -0.98440       -3.76880
C         -4.49270       -0.41190       -7.03350
C         -3.27420       -0.69590       -7.69070
C         -2.64650       -1.94600       -7.50140
C         -1.47570       -2.31870       -8.26320
C         -0.38620       -3.05690       -7.89070
C          0.55050       -3.23280       -8.92690
C          0.18190       -2.64930      -10.10030
C          0.93640       -2.58240      -11.38300
C          1.55780       -1.19770      -11.58160
S         -1.34560       -1.85120       -9.94000
C         -3.18630       -2.74960       -6.49910
S         -2.45770       -4.20330       -5.86780
C         -2.71530        0.46480       -8.28660
C         -3.45250        1.59400       -8.08120
S         -4.98740        1.23910       -7.30250
C         -2.98680        2.94160       -8.06690
C         -3.58570        3.95980       -7.38380
C         -2.69920        4.99770       -7.01740
C         -2.94080        6.02160       -6.08300
C         -4.22070        6.25940       -5.44470
C         -4.74390        7.46570       -5.07190
C         -5.95500        7.35600       -4.35950
C         -6.35210        6.07020       -4.16080
C         -7.56720        5.56340       -3.46200
C         -8.47610        4.77670       -4.40770
S         -5.23280        4.95900       -4.87800
C         -1.81530        6.69660       -5.62530
C         -0.50720        6.47300       -6.11020
C         -0.29910        5.57780       -7.18660
C          1.00440        5.45880       -7.79210
C          1.93340        6.45640       -7.93880
C          3.10210        6.04020       -8.60120
C          3.07810        4.72890       -8.96780
C          4.13630        3.93470       -9.65240
C          4.78320        2.92880       -8.69810
S          1.58900        3.97770       -8.49660
C         -1.39730        4.79700       -7.54210
S         -1.33290        3.33590       -8.50000
C          0.47600        6.98310       -5.21860
C         -0.04980        7.53350       -4.08670
S         -1.80060        7.65430       -4.16920
C          0.55750        7.66610       -2.80030
C         -0.13150        7.47760       -1.63910
C          0.68800        7.21190       -0.51870
C          0.26320        6.69320        0.72000
C         -1.14340        6.59620        1.05280
C         -1.81430        5.56630        1.65080
C         -3.19880        5.79640        1.77280
C         -3.59420        7.00500        1.28810
C         -4.97360        7.55400        1.16460
C         -5.48570        7.41330       -0.27210
S         -2.24370        7.89370        0.66890
C          1.26570        6.18820        1.53870
C          2.64940        6.29560        1.24800
C          3.07170        6.89010        0.03950
C          4.45930        7.04780       -0.34230
C          4.99410        8.08470       -1.05710
C          6.36870        7.93480       -1.32160
C          6.89390        6.78250       -0.82380
C          8.28620        6.26650       -0.94280
C          8.37230        5.13810       -1.97300
S          5.68290        5.85580       -0.00180
C          2.06200        7.27460       -0.84130
S          2.28860        7.68340       -2.53060
C          3.44090        5.66210        2.24370
C          2.71040        5.02640        3.20050
S          0.99020        5.28260        2.99920
C          3.14300        4.08320        4.18540
C          2.41080        3.01960        4.61820
C          3.12100        2.14700        5.47870
C          2.69180        0.90750        5.99290
C          1.48870        0.28200        5.48970
C          1.04250        0.29790        4.19470
C         -0.12920       -0.45390        3.99710
C         -0.58860       -1.04560        5.13370
C         -1.73940       -1.97900        5.27540
C         -1.27980       -3.41650        5.02450
S          0.43850       -0.68970        6.48190
C          3.53950        0.30230        6.91650
C          4.80690        0.82690        7.25990
C          5.28910        1.99420        6.63790
C          6.63850        2.46640        6.87560
C          7.78620        1.72840        6.94890
C          8.93550        2.50770        7.18760
C          8.67320        3.83820        7.29960
C          9.62080        4.94980        7.59320
C          9.45940        5.45160        9.02970
S          6.98100        4.15770        7.10360
C          4.41260        2.64190        5.77400
S          4.75320        4.09800        4.86860
C          5.45500        0.02510        8.24600
C          4.73580       -1.05840        8.60040
S          3.22550       -1.18680        7.76750
H          4.74730       -8.63090       10.13140
H          4.58370      -10.15000        8.03480
H          1.62960      -11.62600        4.62910
H          3.32920      -13.36450        3.73320
H          6.78530      -13.04560        5.11400
H          5.86720      -13.93620        3.88900
H          7.82060      -12.76910        2.87530
H          7.21710      -11.22010        3.47510
H          6.30960      -12.10310        2.24480
H          2.41780       -4.54380        8.06610
H          0.78050       -2.74820        8.96840
H         -2.87220       -3.47670        8.26290
H         -1.81190       -2.26400        9.00900
H         -1.68790       -3.66490       11.07360
H         -3.36370       -3.25760       10.68670
H         -2.73730       -4.86930       10.32190
H         -0.61500       -6.17590        5.11800
H          0.02260       -8.67690        1.10600
H         -1.14360      -10.20930       -0.24900
H          0.34730      -11.69630       -1.76300
H          2.29740       -9.87000       -4.35390
H          1.85120      -11.51660       -3.87890
H          1.26940      -11.07590       -6.26310
H          0.25490       -9.71470       -5.77030
H         -0.19350      -11.35970       -5.31310
H         -2.81540       -3.67180        2.47050
H         -4.81350       -2.18120        3.17400
H         -7.35500       -1.83810        2.59420
H         -8.06540       -2.98840        1.44960
H         -7.17760       -1.63800       -0.45560
H         -8.24910       -0.67680        0.57460
H         -6.49680       -0.47780        0.68520
H         -4.31180       -3.89710       -1.90530
H         -5.40640       -3.21430       -4.00920
H         -7.41510       -0.05800       -7.15890
H         -9.30400        0.65370       -5.53450
H         -9.00310       -0.74040       -2.05140
H        -10.00630        0.33640       -3.03620
H         -8.40140        2.20420       -2.61160
H         -7.40650        1.12690       -1.62890
H         -9.03540        1.55680       -1.09400
H         -0.23440       -3.43150       -6.89530
H          1.46940       -3.77880       -8.80450
H          0.26580       -2.79700      -12.21860
H          1.72240       -3.34050      -11.36960
H          2.23840       -0.96840      -10.76460
H          0.78090       -0.43680      -11.60670
H          2.11070       -1.16230      -12.51700
H         -1.73800        0.49620       -8.73360
H         -4.60860        3.90320       -7.06110
H         -4.28890        8.40600       -5.32750
H         -6.50860        8.20580       -4.00100
H         -7.26860        4.91470       -2.63290
H         -8.11000        6.41520       -3.04670
H         -8.78600        5.40250       -5.24150
H         -7.94940        3.91080       -4.80410
H         -9.36500        4.43600       -3.88160
H          1.76360        7.46790       -7.61570
H          3.93070        6.69500       -8.80680
H          3.70040        3.39510      -10.49710
H          4.89530        4.61890      -10.03770
H          5.55570        2.36280       -9.21250
H          5.23330        3.44460       -7.85290
H          4.03490        2.23570       -8.32060
H          1.53080        6.80920       -5.33630
H         -1.20340        7.41280       -1.62100
H         -1.34200        4.64950        1.95290
H         -3.87970        5.08290        2.20260
H         -5.63340        7.01150        1.84510
H         -4.98050        8.60940        1.44600
H         -6.49740        7.80300       -0.35290
H         -5.49020        6.36790       -0.57250
H         -4.84510        7.96280       -0.95820
H          4.42600        8.94720       -1.35590
H          6.94960        8.66170       -1.86130
H          8.62500        5.89260        0.02650
H          8.94080        7.08810       -1.24190
H          9.39510        4.77890       -2.05500
H          8.04710        5.49170       -2.94880
H          7.73440        4.30860       -1.67620
H          4.51430        5.62100        2.22840
H          1.38770        2.86790        4.32640
H          1.56900        0.79160        3.39780
H         -0.61430       -0.55590        3.04210
H         -2.15890       -1.90260        6.27970
H         -2.51260       -1.71000        4.55220
H         -2.10890       -4.10880        5.15260
H         -0.48670       -3.67490        5.72190
H         -0.88910       -3.51950        4.01430
H          7.81060        0.66410        6.79530
H          9.92530        2.09320        7.26700
H          9.44100        5.77770        6.90300
H         10.64120        4.59130        7.44090
H          9.64650        4.64530        9.73530
H         10.16000        6.25860        9.22910
H          8.44840        5.82040        9.18660
H          6.40600        0.27600        8.67870
H          4.98960       -1.81270        9.31940
