
  xtb     03012200333D
 energy: -388.132242750677 gnorm: 0.000226279950 xtb: 6.4.1 (unknown)
212235  0     0  0            999 V2000
   -3.4951    0.3817   16.4490 C   0  0  0  0  0  0  0  0  0  0  0  0
   -4.6928    0.4822   15.2172 S   0  0  0  0  0  0  0  0  0  0  0  0
   -3.5550    1.2334   14.1552 C   0  0  0  0  0  0  0  0  0  0  0  0
   -3.7745    1.7448   12.8504 C   0  0  0  0  0  0  0  0  0  0  0  0
   -2.7998    2.5615   12.2957 C   0  0  0  0  0  0  0  0  0  0  0  0
   -1.6543    2.8786   12.9316 O   0  0  0  0  0  0  0  0  0  0  0  0
   -1.1717    1.9586   13.9361 C   0  0  0  0  0  0  0  0  0  0  0  0
   -0.4615    0.8068   13.1869 C   0  0  0  0  0  0  0  0  0  0  0  0
    0.2119   -0.2171   14.0892 C   0  0  0  0  0  0  0  0  0  0  0  0
   -0.2317    2.7887   14.8231 C   0  0  0  0  0  0  0  0  0  0  0  0
    0.9258    3.4211   14.0594 C   0  0  0  0  0  0  0  0  0  0  0  0
   -2.3170    1.3924   14.7435 C   0  0  0  0  0  0  0  0  0  0  0  0
   -2.2970    0.8992   16.0636 C   0  0  0  0  0  0  0  0  0  0  0  0
   -3.1589    3.0594   11.0359 C   0  0  0  0  0  0  0  0  0  0  0  0
   -4.3912    2.6096   10.6179 C   0  0  0  0  0  0  0  0  0  0  0  0
   -5.1344    1.5674   11.8021 S   0  0  0  0  0  0  0  0  0  0  0  0
   -5.0238    2.8552    9.3693 C   0  0  0  0  0  0  0  0  0  0  0  0
   -6.1909    2.3268    8.8972 C   0  0  0  0  0  0  0  0  0  0  0  0
   -6.4944    2.7157    7.5708 C   0  0  0  0  0  0  0  0  0  0  0  0
   -7.5886    2.3182    6.7771 C   0  0  0  0  0  0  0  0  0  0  0  0
   -8.6718    1.5365    7.3451 C   0  0  0  0  0  0  0  0  0  0  0  0
   -9.2422    0.0744    6.5970 S   0  0  0  0  0  0  0  0  0  0  0  0
  -10.4319   -0.1839    7.8268 C   0  0  0  0  0  0  0  0  0  0  0  0
  -11.3028   -1.3912    7.8172 C   0  0  0  0  0  0  0  0  0  0  0  0
  -10.6025   -2.5765    8.4862 C   0  0  0  0  0  0  0  0  0  0  0  0
  -10.3764    0.8110    8.7568 C   0  0  0  0  0  0  0  0  0  0  0  0
  -11.4070    0.8996   10.1259 Cl  0  0  0  0  0  0  0  0  0  0  0  0
   -9.3834    1.7898    8.4862 C   0  0  0  0  0  0  0  0  0  0  0  0
   -9.1750    3.1848    9.4641 Cl  0  0  0  0  0  0  0  0  0  0  0  0
   -7.5614    2.6887    5.4397 C   0  0  0  0  0  0  0  0  0  0  0  0
   -6.5438    3.5070    4.8927 C   0  0  0  0  0  0  0  0  0  0  0  0
   -5.5119    3.9993    5.7128 C   0  0  0  0  0  0  0  0  0  0  0  0
   -4.5098    4.8999    5.1719 C   0  0  0  0  0  0  0  0  0  0  0  0
   -2.8066    4.5933    5.3376 S   0  0  0  0  0  0  0  0  0  0  0  0
   -2.3849    6.0133    4.4441 C   0  0  0  0  0  0  0  0  0  0  0  0
   -0.9667    6.3473    4.1363 C   0  0  0  0  0  0  0  0  0  0  0  0
   -0.5650    5.8074    2.7612 C   0  0  0  0  0  0  0  0  0  0  0  0
   -3.5082    6.6766    4.0483 C   0  0  0  0  0  0  0  0  0  0  0  0
   -4.7140    6.0504    4.4596 C   0  0  0  0  0  0  0  0  0  0  0  0
   -6.2599    6.7268    4.1465 Cl  0  0  0  0  0  0  0  0  0  0  0  0
   -3.4861    8.1352    3.1450 Cl  0  0  0  0  0  0  0  0  0  0  0  0
   -5.4908    3.5539    7.0257 C   0  0  0  0  0  0  0  0  0  0  0  0
   -4.2469    3.8992    8.1929 S   0  0  0  0  0  0  0  0  0  0  0  0
   -6.6719    3.6482    3.4933 C   0  0  0  0  0  0  0  0  0  0  0  0
   -7.7447    2.9854    2.9692 C   0  0  0  0  0  0  0  0  0  0  0  0
   -8.6970    2.1924    4.2115 S   0  0  0  0  0  0  0  0  0  0  0  0
   -8.0134    2.7902    1.5878 C   0  0  0  0  0  0  0  0  0  0  0  0
   -6.9014    3.4561    0.4169 S   0  0  0  0  0  0  0  0  0  0  0  0
   -7.7094    2.6116   -0.8513 C   0  0  0  0  0  0  0  0  0  0  0  0
   -7.2349    2.4035   -2.1647 C   0  0  0  0  0  0  0  0  0  0  0  0
   -7.7532    1.3333   -2.8843 C   0  0  0  0  0  0  0  0  0  0  0  0
   -8.8120    0.6141   -2.4804 O   0  0  0  0  0  0  0  0  0  0  0  0
   -9.6292    1.1156   -1.4013 C   0  0  0  0  0  0  0  0  0  0  0  0
  -10.2763   -0.1115   -0.7235 C   0  0  0  0  0  0  0  0  0  0  0  0
  -10.4995   -1.3101   -1.6403 C   0  0  0  0  0  0  0  0  0  0  0  0
  -10.6571    2.1185   -1.9791 C   0  0  0  0  0  0  0  0  0  0  0  0
  -11.5890    1.5458   -3.0384 C   0  0  0  0  0  0  0  0  0  0  0  0
   -8.7983    1.8869   -0.3986 C   0  0  0  0  0  0  0  0  0  0  0  0
   -8.9695    2.0008    0.9855 C   0  0  0  0  0  0  0  0  0  0  0  0
   -6.9705    1.0065   -4.0038 C   0  0  0  0  0  0  0  0  0  0  0  0
   -5.8737    1.8265   -4.1441 C   0  0  0  0  0  0  0  0  0  0  0  0
   -5.8233    3.0598   -2.9090 S   0  0  0  0  0  0  0  0  0  0  0  0
   -4.7433    1.6843   -4.9949 C   0  0  0  0  0  0  0  0  0  0  0  0
   -3.6734    2.5304   -5.0632 C   0  0  0  0  0  0  0  0  0  0  0  0
   -2.5688    1.9959   -5.7635 C   0  0  0  0  0  0  0  0  0  0  0  0
   -1.2787    2.5480   -5.8792 C   0  0  0  0  0  0  0  0  0  0  0  0
   -1.0243    3.9086   -5.4438 C   0  0  0  0  0  0  0  0  0  0  0  0
    0.2650    4.2985   -4.3445 S   0  0  0  0  0  0  0  0  0  0  0  0
   -0.1634    5.9747   -4.3139 C   0  0  0  0  0  0  0  0  0  0  0  0
    0.5570    6.9390   -3.4378 C   0  0  0  0  0  0  0  0  0  0  0  0
   -0.0452    6.9488   -2.0302 C   0  0  0  0  0  0  0  0  0  0  0  0
   -1.2413    6.2045   -5.1163 C   0  0  0  0  0  0  0  0  0  0  0  0
   -1.9511    7.7499   -5.3463 Cl  0  0  0  0  0  0  0  0  0  0  0  0
   -1.7314    5.0370   -5.7591 C   0  0  0  0  0  0  0  0  0  0  0  0
   -3.0375    5.0743   -6.8715 Cl  0  0  0  0  0  0  0  0  0  0  0  0
   -0.2818    1.7107   -6.3562 C   0  0  0  0  0  0  0  0  0  0  0  0
   -0.5275    0.3818   -6.7836 C   0  0  0  0  0  0  0  0  0  0  0  0
   -1.8350   -0.1358   -6.7502 C   0  0  0  0  0  0  0  0  0  0  0  0
   -2.1226   -1.5020   -7.1595 C   0  0  0  0  0  0  0  0  0  0  0  0
   -3.3203   -1.8417   -8.3718 S   0  0  0  0  0  0  0  0  0  0  0  0
   -3.0627   -3.5487   -8.2584 C   0  0  0  0  0  0  0  0  0  0  0  0
   -3.8698   -4.5077   -9.0620 C   0  0  0  0  0  0  0  0  0  0  0  0
   -5.1527   -4.8920   -8.3206 C   0  0  0  0  0  0  0  0  0  0  0  0
   -2.1127   -3.8232   -7.3206 C   0  0  0  0  0  0  0  0  0  0  0  0
   -1.5747   -2.6656   -6.6970 C   0  0  0  0  0  0  0  0  0  0  0  0
   -0.4143   -2.7527   -5.4337 Cl  0  0  0  0  0  0  0  0  0  0  0  0
   -1.5946   -5.4092   -6.9202 Cl  0  0  0  0  0  0  0  0  0  0  0  0
   -2.8259    0.6860   -6.2339 C   0  0  0  0  0  0  0  0  0  0  0  0
   -4.4641    0.1977   -5.8852 S   0  0  0  0  0  0  0  0  0  0  0  0
    0.6668   -0.2846   -7.1468 C   0  0  0  0  0  0  0  0  0  0  0  0
    1.7891    0.4726   -6.9757 C   0  0  0  0  0  0  0  0  0  0  0  0
    1.4112    2.1056   -6.4523 S   0  0  0  0  0  0  0  0  0  0  0  0
    3.1437    0.0431   -7.0245 C   0  0  0  0  0  0  0  0  0  0  0  0
    3.5133   -1.6623   -6.9694 S   0  0  0  0  0  0  0  0  0  0  0  0
    5.1946   -1.3078   -6.7991 C   0  0  0  0  0  0  0  0  0  0  0  0
    6.2567   -2.2105   -6.5695 C   0  0  0  0  0  0  0  0  0  0  0  0
    7.5529   -1.7156   -6.5168 C   0  0  0  0  0  0  0  0  0  0  0  0
    7.8683   -0.4336   -6.7728 O   0  0  0  0  0  0  0  0  0  0  0  0
    6.8531    0.5827   -6.6321 C   0  0  0  0  0  0  0  0  0  0  0  0
    6.9288    1.1388   -5.1893 C   0  0  0  0  0  0  0  0  0  0  0  0
    8.2954    1.7043   -4.8232 C   0  0  0  0  0  0  0  0  0  0  0  0
    7.1966    1.6473   -7.6856 C   0  0  0  0  0  0  0  0  0  0  0  0
    6.9788    1.1374   -9.1055 C   0  0  0  0  0  0  0  0  0  0  0  0
    5.4550    0.0499   -6.8342 C   0  0  0  0  0  0  0  0  0  0  0  0
    4.2859    0.8089   -6.9481 C   0  0  0  0  0  0  0  0  0  0  0  0
    8.4983   -2.7050   -6.2091 C   0  0  0  0  0  0  0  0  0  0  0  0
    7.9271   -3.9407   -6.0044 C   0  0  0  0  0  0  0  0  0  0  0  0
    6.1972   -3.8995   -6.2186 S   0  0  0  0  0  0  0  0  0  0  0  0
    8.5596   -5.1505   -5.6077 C   0  0  0  0  0  0  0  0  0  0  0  0
    7.9561   -6.3419   -5.3271 C   0  0  0  0  0  0  0  0  0  0  0  0
    8.8580   -7.3538   -4.9195 C   0  0  0  0  0  0  0  0  0  0  0  0
    8.5688   -8.6792   -4.5533 C   0  0  0  0  0  0  0  0  0  0  0  0
    7.2041   -9.1810   -4.5619 C   0  0  0  0  0  0  0  0  0  0  0  0
    6.2056   -9.0735   -5.9822 S   0  0  0  0  0  0  0  0  0  0  0  0
    4.8646   -9.8327   -5.1959 C   0  0  0  0  0  0  0  0  0  0  0  0
    3.5591  -10.0086   -5.8897 C   0  0  0  0  0  0  0  0  0  0  0  0
    2.6850   -8.7622   -5.7269 C   0  0  0  0  0  0  0  0  0  0  0  0
    5.1844  -10.1381   -3.9069 C   0  0  0  0  0  0  0  0  0  0  0  0
    4.1042  -10.8917   -2.8072 Cl  0  0  0  0  0  0  0  0  0  0  0  0
    6.5097   -9.7756   -3.5450 C   0  0  0  0  0  0  0  0  0  0  0  0
    7.1161   -9.9889   -1.9568 Cl  0  0  0  0  0  0  0  0  0  0  0  0
    9.6424   -9.4780   -4.1773 C   0  0  0  0  0  0  0  0  0  0  0  0
   10.9762   -9.0050   -4.1324 C   0  0  0  0  0  0  0  0  0  0  0  0
   11.2633   -7.6804   -4.4971 C   0  0  0  0  0  0  0  0  0  0  0  0
   12.6247   -7.1675   -4.4857 C   0  0  0  0  0  0  0  0  0  0  0  0
   13.0426   -5.7414   -3.5850 S   0  0  0  0  0  0  0  0  0  0  0  0
   14.7009   -5.8248   -4.0738 C   0  0  0  0  0  0  0  0  0  0  0  0
   15.6771   -4.7831   -3.6517 C   0  0  0  0  0  0  0  0  0  0  0  0
   15.5216   -3.5166   -4.4967 C   0  0  0  0  0  0  0  0  0  0  0  0
   14.8994   -6.8930   -4.8963 C   0  0  0  0  0  0  0  0  0  0  0  0
   13.7257   -7.6605   -5.1270 C   0  0  0  0  0  0  0  0  0  0  0  0
   13.6998   -9.0225   -6.1717 Cl  0  0  0  0  0  0  0  0  0  0  0  0
   16.4141   -7.2982   -5.5947 Cl  0  0  0  0  0  0  0  0  0  0  0  0
   10.1927   -6.8830   -4.8758 C   0  0  0  0  0  0  0  0  0  0  0  0
   10.2963   -5.2173   -5.3761 S   0  0  0  0  0  0  0  0  0  0  0  0
   11.8769  -10.0158   -3.6873 C   0  0  0  0  0  0  0  0  0  0  0  0
   11.2652  -11.1950   -3.4549 C   0  0  0  0  0  0  0  0  0  0  0  0
    9.5599  -11.1595   -3.7363 S   0  0  0  0  0  0  0  0  0  0  0  0
   -3.7512   -0.0604   17.3907 H   0  0  0  0  0  0  0  0  0  0  0  0
   -1.2169    0.3052   12.5748 H   0  0  0  0  0  0  0  0  0  0  0  0
    0.2691    1.2478   12.5072 H   0  0  0  0  0  0  0  0  0  0  0  0
   -0.5036   -0.6470   14.7862 H   0  0  0  0  0  0  0  0  0  0  0  0
    1.0248    0.2306   14.6547 H   0  0  0  0  0  0  0  0  0  0  0  0
    0.6233   -1.0215   13.4839 H   0  0  0  0  0  0  0  0  0  0  0  0
   -0.8339    3.5785   15.2777 H   0  0  0  0  0  0  0  0  0  0  0  0
    0.1540    2.1560   15.6213 H   0  0  0  0  0  0  0  0  0  0  0  0
    1.4602    4.1101   14.7092 H   0  0  0  0  0  0  0  0  0  0  0  0
    0.5501    3.9721   13.2021 H   0  0  0  0  0  0  0  0  0  0  0  0
    1.6280    2.6674   13.7129 H   0  0  0  0  0  0  0  0  0  0  0  0
   -1.4374    0.9213   16.7079 H   0  0  0  0  0  0  0  0  0  0  0  0
   -2.5395    3.7142   10.4512 H   0  0  0  0  0  0  0  0  0  0  0  0
   -6.7902    1.6472    9.4756 H   0  0  0  0  0  0  0  0  0  0  0  0
  -11.5505   -1.6500    6.7864 H   0  0  0  0  0  0  0  0  0  0  0  0
  -12.2253   -1.1617    8.3537 H   0  0  0  0  0  0  0  0  0  0  0  0
  -11.2497   -3.4493    8.4717 H   0  0  0  0  0  0  0  0  0  0  0  0
  -10.3622   -2.3377    9.5190 H   0  0  0  0  0  0  0  0  0  0  0  0
   -9.6810   -2.8150    7.9606 H   0  0  0  0  0  0  0  0  0  0  0  0
   -0.3206    5.9166    4.9024 H   0  0  0  0  0  0  0  0  0  0  0  0
   -0.8495    7.4329    4.1473 H   0  0  0  0  0  0  0  0  0  0  0  0
    0.4706    6.0592    2.5493 H   0  0  0  0  0  0  0  0  0  0  0  0
   -1.1943    6.2406    1.9881 H   0  0  0  0  0  0  0  0  0  0  0  0
   -0.6748    4.7260    2.7335 H   0  0  0  0  0  0  0  0  0  0  0  0
   -5.9629    4.1740    2.8796 H   0  0  0  0  0  0  0  0  0  0  0  0
   -9.6194   -0.4340    0.0876 H   0  0  0  0  0  0  0  0  0  0  0  0
  -11.2236    0.2034   -0.2835 H   0  0  0  0  0  0  0  0  0  0  0  0
  -11.1550   -1.0690   -2.4695 H   0  0  0  0  0  0  0  0  0  0  0  0
  -10.9480   -2.1181   -1.0665 H   0  0  0  0  0  0  0  0  0  0  0  0
   -9.5528   -1.6561   -2.0443 H   0  0  0  0  0  0  0  0  0  0  0  0
  -11.2363    2.5227   -1.1464 H   0  0  0  0  0  0  0  0  0  0  0  0
  -10.0880    2.9437   -2.4173 H   0  0  0  0  0  0  0  0  0  0  0  0
  -12.1471    2.3528   -3.5081 H   0  0  0  0  0  0  0  0  0  0  0  0
  -12.3012    0.8524   -2.6002 H   0  0  0  0  0  0  0  0  0  0  0  0
  -11.0154    1.0314   -3.8053 H   0  0  0  0  0  0  0  0  0  0  0  0
   -9.7438    1.5151    1.5516 H   0  0  0  0  0  0  0  0  0  0  0  0
   -7.1775    0.1795   -4.6578 H   0  0  0  0  0  0  0  0  0  0  0  0
   -3.6586    3.4803   -4.5599 H   0  0  0  0  0  0  0  0  0  0  0  0
    0.4804    7.9363   -3.8749 H   0  0  0  0  0  0  0  0  0  0  0  0
    1.6103    6.6598   -3.3811 H   0  0  0  0  0  0  0  0  0  0  0  0
    0.4885    7.6556   -1.4006 H   0  0  0  0  0  0  0  0  0  0  0  0
   -1.0918    7.2393   -2.0706 H   0  0  0  0  0  0  0  0  0  0  0  0
    0.0241    5.9599   -1.5834 H   0  0  0  0  0  0  0  0  0  0  0  0
   -3.2727   -5.4028   -9.2466 H   0  0  0  0  0  0  0  0  0  0  0  0
   -4.1252   -4.0520  -10.0199 H   0  0  0  0  0  0  0  0  0  0  0  0
   -5.7533   -4.0072   -8.1237 H   0  0  0  0  0  0  0  0  0  0  0  0
   -4.9116   -5.3663   -7.3727 H   0  0  0  0  0  0  0  0  0  0  0  0
   -5.7366   -5.5856   -8.9194 H   0  0  0  0  0  0  0  0  0  0  0  0
    0.7052   -1.2999   -7.4964 H   0  0  0  0  0  0  0  0  0  0  0  0
    6.6887    0.3141   -4.5120 H   0  0  0  0  0  0  0  0  0  0  0  0
    6.1582    1.9019   -5.0710 H   0  0  0  0  0  0  0  0  0  0  0  0
    8.4897    2.6330   -5.3526 H   0  0  0  0  0  0  0  0  0  0  0  0
    8.3373    1.9049   -3.7554 H   0  0  0  0  0  0  0  0  0  0  0  0
    9.0748    0.9888   -5.0728 H   0  0  0  0  0  0  0  0  0  0  0  0
    8.2461    1.9122   -7.5606 H   0  0  0  0  0  0  0  0  0  0  0  0
    6.5880    2.5334   -7.5047 H   0  0  0  0  0  0  0  0  0  0  0  0
    7.5630    0.2353   -9.2708 H   0  0  0  0  0  0  0  0  0  0  0  0
    7.2930    1.8894   -9.8248 H   0  0  0  0  0  0  0  0  0  0  0  0
    5.9299    0.9084   -9.2811 H   0  0  0  0  0  0  0  0  0  0  0  0
    4.2524    1.8836   -6.9608 H   0  0  0  0  0  0  0  0  0  0  0  0
    9.5536   -2.5211   -6.1257 H   0  0  0  0  0  0  0  0  0  0  0  0
    6.8931   -6.4805   -5.4039 H   0  0  0  0  0  0  0  0  0  0  0  0
    3.0472  -10.8720   -5.4607 H   0  0  0  0  0  0  0  0  0  0  0  0
    3.7338  -10.1949   -6.9506 H   0  0  0  0  0  0  0  0  0  0  0  0
    3.1823   -7.8928   -6.1504 H   0  0  0  0  0  0  0  0  0  0  0  0
    2.4908   -8.5732   -4.6742 H   0  0  0  0  0  0  0  0  0  0  0  0
    1.7355   -8.9031   -6.2360 H   0  0  0  0  0  0  0  0  0  0  0  0
   15.5148   -4.5383   -2.6004 H   0  0  0  0  0  0  0  0  0  0  0  0
   16.6864   -5.1817   -3.7668 H   0  0  0  0  0  0  0  0  0  0  0  0
   15.7026   -3.7385   -5.5453 H   0  0  0  0  0  0  0  0  0  0  0  0
   16.2322   -2.7613   -4.1722 H   0  0  0  0  0  0  0  0  0  0  0  0
   14.5149   -3.1182   -4.3945 H   0  0  0  0  0  0  0  0  0  0  0  0
   12.9291   -9.8520   -3.5461 H   0  0  0  0  0  0  0  0  0  0  0  0
   11.7089  -12.1123   -3.1203 H   0  0  0  0  0  0  0  0  0  0  0  0
  1  2  1  0  0  0  0
  2  3  1  0  0  0  0
  3  4  1  0  0  0  0
  4  5  2  0  0  0  0
  5  6  1  0  0  0  0
  6  7  1  0  0  0  0
  7  8  1  0  0  0  0
  8  9  1  0  0  0  0
  7 10  1  0  0  0  0
 10 11  1  0  0  0  0
  7 12  1  0  0  0  0
 12 13  1  0  0  0  0
  5 14  1  0  0  0  0
 14 15  2  0  0  0  0
 15 16  1  0  0  0  0
 15 17  1  0  0  0  0
 17 18  2  0  0  0  0
 18 19  1  0  0  0  0
 19 20  2  0  0  0  0
 20 21  1  0  0  0  0
 21 22  1  0  0  0  0
 22 23  1  0  0  0  0
 23 24  1  0  0  0  0
 24 25  1  0  0  0  0
 23 26  2  0  0  0  0
 26 27  1  0  0  0  0
 26 28  1  0  0  0  0
 28 29  1  0  0  0  0
 20 30  1  0  0  0  0
 30 31  2  0  0  0  0
 31 32  1  0  0  0  0
 32 33  1  0  0  0  0
 33 34  1  0  0  0  0
 34 35  1  0  0  0  0
 35 36  1  0  0  0  0
 36 37  1  0  0  0  0
 35 38  2  0  0  0  0
 38 39  1  0  0  0  0
 39 40  1  0  0  0  0
 38 41  1  0  0  0  0
 32 42  2  0  0  0  0
 42 43  1  0  0  0  0
 31 44  1  0  0  0  0
 44 45  2  0  0  0  0
 45 46  1  0  0  0  0
 45 47  1  0  0  0  0
 47 48  1  0  0  0  0
 48 49  1  0  0  0  0
 49 50  1  0  0  0  0
 50 51  2  0  0  0  0
 51 52  1  0  0  0  0
 52 53  1  0  0  0  0
 53 54  1  0  0  0  0
 54 55  1  0  0  0  0
 53 56  1  0  0  0  0
 56 57  1  0  0  0  0
 53 58  1  0  0  0  0
 58 59  1  0  0  0  0
 51 60  1  0  0  0  0
 60 61  2  0  0  0  0
 61 62  1  0  0  0  0
 61 63  1  0  0  0  0
 63 64  2  0  0  0  0
 64 65  1  0  0  0  0
 65 66  2  0  0  0  0
 66 67  1  0  0  0  0
 67 68  1  0  0  0  0
 68 69  1  0  0  0  0
 69 70  1  0  0  0  0
 70 71  1  0  0  0  0
 69 72  2  0  0  0  0
 72 73  1  0  0  0  0
 72 74  1  0  0  0  0
 74 75  1  0  0  0  0
 66 76  1  0  0  0  0
 76 77  2  0  0  0  0
 77 78  1  0  0  0  0
 78 79  1  0  0  0  0
 79 80  1  0  0  0  0
 80 81  1  0  0  0  0
 81 82  1  0  0  0  0
 82 83  1  0  0  0  0
 81 84  2  0  0  0  0
 84 85  1  0  0  0  0
 85 86  1  0  0  0  0
 84 87  1  0  0  0  0
 78 88  2  0  0  0  0
 88 89  1  0  0  0  0
 77 90  1  0  0  0  0
 90 91  2  0  0  0  0
 91 92  1  0  0  0  0
 91 93  1  0  0  0  0
 93 94  1  0  0  0  0
 94 95  1  0  0  0  0
 95 96  1  0  0  0  0
 96 97  2  0  0  0  0
 97 98  1  0  0  0  0
 98 99  1  0  0  0  0
 99100  1  0  0  0  0
100101  1  0  0  0  0
 99102  1  0  0  0  0
102103  1  0  0  0  0
 99104  1  0  0  0  0
104105  1  0  0  0  0
 97106  1  0  0  0  0
106107  2  0  0  0  0
107108  1  0  0  0  0
107109  1  0  0  0  0
109110  2  0  0  0  0
110111  1  0  0  0  0
111112  2  0  0  0  0
112113  1  0  0  0  0
113114  1  0  0  0  0
114115  1  0  0  0  0
115116  1  0  0  0  0
116117  1  0  0  0  0
115118  2  0  0  0  0
118119  1  0  0  0  0
118120  1  0  0  0  0
120121  1  0  0  0  0
112122  1  0  0  0  0
122123  2  0  0  0  0
123124  1  0  0  0  0
124125  1  0  0  0  0
125126  1  0  0  0  0
126127  1  0  0  0  0
127128  1  0  0  0  0
128129  1  0  0  0  0
127130  2  0  0  0  0
130131  1  0  0  0  0
131132  1  0  0  0  0
130133  1  0  0  0  0
124134  2  0  0  0  0
134135  1  0  0  0  0
123136  1  0  0  0  0
136137  2  0  0  0  0
137138  1  0  0  0  0
 13  1  2  0  0  0  0
 43 17  1  0  0  0  0
 59 47  2  0  0  0  0
 89 63  1  0  0  0  0
105 93  2  0  0  0  0
135109  1  0  0  0  0
 12  3  2  0  0  0  0
 42 19  1  0  0  0  0
 58 49  2  0  0  0  0
 88 65  1  0  0  0  0
104 95  2  0  0  0  0
134111  1  0  0  0  0
 16  4  1  0  0  0  0
 28 21  2  0  0  0  0
 46 30  1  0  0  0  0
 62 50  1  0  0  0  0
 74 67  2  0  0  0  0
 92 76  1  0  0  0  0
108 96  1  0  0  0  0
120113  2  0  0  0  0
138122  1  0  0  0  0
 39 33  2  0  0  0  0
 85 79  2  0  0  0  0
131125  2  0  0  0  0
  1139  1  0  0  0  0
  8140  1  0  0  0  0
  8141  1  0  0  0  0
  9142  1  0  0  0  0
  9143  1  0  0  0  0
  9144  1  0  0  0  0
 10145  1  0  0  0  0
 10146  1  0  0  0  0
 11147  1  0  0  0  0
 11148  1  0  0  0  0
 11149  1  0  0  0  0
 13150  1  0  0  0  0
 14151  1  0  0  0  0
 18152  1  0  0  0  0
 24153  1  0  0  0  0
 24154  1  0  0  0  0
 25155  1  0  0  0  0
 25156  1  0  0  0  0
 25157  1  0  0  0  0
 36158  1  0  0  0  0
 36159  1  0  0  0  0
 37160  1  0  0  0  0
 37161  1  0  0  0  0
 37162  1  0  0  0  0
 44163  1  0  0  0  0
 54164  1  0  0  0  0
 54165  1  0  0  0  0
 55166  1  0  0  0  0
 55167  1  0  0  0  0
 55168  1  0  0  0  0
 56169  1  0  0  0  0
 56170  1  0  0  0  0
 57171  1  0  0  0  0
 57172  1  0  0  0  0
 57173  1  0  0  0  0
 59174  1  0  0  0  0
 60175  1  0  0  0  0
 64176  1  0  0  0  0
 70177  1  0  0  0  0
 70178  1  0  0  0  0
 71179  1  0  0  0  0
 71180  1  0  0  0  0
 71181  1  0  0  0  0
 82182  1  0  0  0  0
 82183  1  0  0  0  0
 83184  1  0  0  0  0
 83185  1  0  0  0  0
 83186  1  0  0  0  0
 90187  1  0  0  0  0
100188  1  0  0  0  0
100189  1  0  0  0  0
101190  1  0  0  0  0
101191  1  0  0  0  0
101192  1  0  0  0  0
102193  1  0  0  0  0
102194  1  0  0  0  0
103195  1  0  0  0  0
103196  1  0  0  0  0
103197  1  0  0  0  0
105198  1  0  0  0  0
106199  1  0  0  0  0
110200  1  0  0  0  0
116201  1  0  0  0  0
116202  1  0  0  0  0
117203  1  0  0  0  0
117204  1  0  0  0  0
117205  1  0  0  0  0
128206  1  0  0  0  0
128207  1  0  0  0  0
129208  1  0  0  0  0
129209  1  0  0  0  0
129210  1  0  0  0  0
136211  1  0  0  0  0
137212  1  0  0  0  0
M  END
