110

C         11.76540       -0.58630       -1.11210
S         10.83950        0.34370       -2.21980
C          9.35860       -0.14700       -1.44910
C          9.60750       -0.98700       -0.38160
C         10.99710       -1.24680       -0.19870
O         11.58930       -2.02680        0.75070
C         10.86230       -3.15380        1.20510
C         10.01870       -2.85150        2.44590
C          9.16710       -1.60630        2.24200
S          8.30420       -1.61590        0.62720
C          8.11930        0.35200       -1.92850
S          6.58780        0.01410       -1.18950
C          5.74320        1.00740       -2.34850
C          6.62320        1.55020       -3.27130
C          7.96810        1.19650       -3.01750
O          9.08600        1.56190       -3.70390
C          9.09980        2.84630       -4.29850
C          8.63460        2.80660       -5.75560
C          7.34220        2.01430       -5.88690
S          6.09210        2.51750       -4.65260
C          4.33600        1.14570       -2.23020
S          3.49350        0.23390       -0.99630
C          1.98440        0.91510       -1.48720
C          0.69500        0.63870       -0.98450
C         -0.40440        1.10450       -1.69690
O         -0.29950        1.81580       -2.83820
C          0.92870        2.53980       -3.07340
C          0.78620        3.88830       -2.32530
C          1.98040        4.82440       -2.44140
C          0.99000        2.73180       -4.59470
C          1.11150        1.40620       -5.33670
C          2.12870        1.79290       -2.54850
C          3.45820        1.92620       -2.95610
C         -1.62210        0.70480       -1.13560
C         -1.45740       -0.04730        0.00930
S          0.22300       -0.27500        0.40660
C         -2.46160       -0.60500        0.83600
S         -4.16090       -0.46240        0.49350
C         -4.56620       -1.38770        1.91280
C         -3.43100       -1.77000        2.60790
C         -2.23680       -1.34090        1.98850
O         -0.95210       -1.53770        2.38500
C         -0.65740       -2.72150        3.10370
C         -0.77730       -2.53010        4.61700
C         -2.10220       -1.87820        4.98850
S         -3.52400       -2.65360        4.13230
C         -5.92530       -1.64300        2.21600
S         -6.45970       -2.53790        3.60390
C         -8.12640       -2.34070        3.14490
C         -8.25210       -1.59830        1.98890
C         -7.00130       -1.22380        1.44640
O         -6.74550       -0.52470        0.30980
C         -7.68020       -0.64220       -0.74800
C         -8.75100        0.44850       -0.68970
C         -9.33960        0.55670        0.70970
S         -9.82680       -1.07230        1.39220
C         -9.16390       -2.90160        3.94840
S         -8.98340       -3.05110        5.67290
C        -10.54790       -3.73250        5.81020
C        -11.16900       -3.87420        4.60530
C        -10.37130       -3.41600        3.51860
O        -10.62420       -3.48840        2.18810
C        -11.96250       -3.67270        1.75930
C        -12.94670       -2.74660        2.47820
C        -13.72820       -3.44940        3.58220
S        -12.73740       -4.68480        4.50480
H         12.83350       -0.60770       -1.17580
H         10.22210       -3.53830        0.40320
H         11.61430       -3.91200        1.44280
H         10.67050       -2.68870        3.30660
H          9.38460       -3.71620        2.64540
H          8.38290       -1.53630        2.99410
H          9.77370       -0.70200        2.27040
H          8.47310        3.53500       -3.72060
H         10.13760        3.18590       -4.24160
H          9.39700        2.33110       -6.37550
H          8.49060        3.83130       -6.10060
H          6.87600        2.17620       -6.85780
H          7.51400        0.94790       -5.74530
H         -0.11200        4.38100       -2.70430
H          0.61580        3.65380       -1.27050
H          2.13450        5.14180       -3.46910
H          2.88700        4.34070       -2.08670
H          1.80610        5.71080       -1.83580
H          0.07190        3.23640       -4.90030
H          1.83600        3.37190       -4.83990
H          0.28770        0.75090       -5.06530
H          1.08370        1.57480       -6.41040
H          2.04650        0.91000       -5.08740
H          3.77990        2.57220       -3.74980
H         -2.58520        0.95240       -1.54150
H          0.37260       -2.97320        2.83720
H         -1.31510       -3.53350        2.77440
H          0.03380       -1.89280        4.97420
H         -0.68980       -3.50800        5.09170
H         -2.11270       -0.82180        4.72310
H         -2.30830       -1.98210        6.05260
H         -8.14820       -1.63290       -0.72490
H         -7.09580       -0.55100       -1.66740
H         -9.53080        0.20390       -1.41210
H         -8.31320        1.41170       -0.95870
H         -8.62640        0.99770        1.40490
H        -10.24920        1.15540        0.70620
H        -10.93210       -4.02390        6.76650
H        -11.92240       -3.44620        0.69210
H        -12.25370       -4.72280        1.88760
H        -12.37510       -1.91370        2.89400
H        -13.65870       -2.33170        1.76340
H        -14.55310       -4.03160        3.17120
H        -14.12470       -2.73130        4.30040
