226

C         14.93280       -6.78220       -8.74470
C         15.31160       -6.13890       -7.62180
C         14.51960       -4.98500       -7.35290
C         14.59790       -4.10950       -6.25860
C         15.52440       -4.34650       -5.16250
S         16.64200       -3.12660       -4.63190
C         17.27960       -4.14340       -3.38490
C         18.32220       -3.64780       -2.44480
C         17.68660       -2.85830       -1.29780
C         16.64470       -5.34920       -3.38520
Cl        16.99560       -6.61700       -2.28280
C         15.65270       -5.47030       -4.39510
Cl        14.66990       -6.86780       -4.56340
C         13.72540       -3.03100       -6.24890
C         12.75710       -2.81120       -7.25830
C         12.66080       -3.70140       -8.34060
C         11.65350       -3.52610       -9.37440
S          9.96490       -3.41100       -8.97050
C          9.49520       -3.27040      -10.63010
C          8.06160       -3.17820      -11.02080
C          7.42550       -4.56790      -11.10190
C         10.59230       -3.31730      -11.43670
C         11.81700       -3.45830      -10.72950
Cl        13.33810       -3.45240      -11.51840
Cl        10.52700       -3.20540      -13.14760
C         13.55070       -4.76970       -8.36180
S         13.60830       -6.02890       -9.56190
C         11.97990       -1.65510       -7.00240
C         12.30760       -1.02190       -5.83890
S         13.62460       -1.82250       -4.99900
C         11.69040        0.11990       -5.26210
S         10.34520        0.90230       -6.05420
C         10.19280        2.01240       -4.73830
C          9.17940        2.97060       -4.51490
C          9.05150        3.50110       -3.23620
O          9.89520        3.23070       -2.22690
C         11.19240        2.69150       -2.53880
C         12.14040        3.85740       -2.91280
C         12.31980        4.90860       -1.82600
C         11.65870        1.89260       -1.30150
C         11.08380        2.37600        0.02600
C         11.13450        1.78560       -3.74840
C         11.98260        0.71940       -4.05650
C          7.89420        4.27560       -3.08180
C          7.15100        4.36470       -4.23840
S          7.89430        3.48740       -5.55180
C          5.88220        4.97630       -4.40580
S          4.93320        5.39790       -3.00130
C          3.61010        5.85640       -4.01290
C          2.28460        6.14270       -3.62050
C          1.29480        6.14300       -4.59790
O          1.54090        6.02090       -5.91240
C          2.89140        6.16150       -6.39430
C          3.16680        7.66230       -6.65890
C          2.23720        8.31350       -7.67380
C          3.01410        5.28100       -7.65820
C          1.71080        5.07000       -8.42190
C          3.90430        5.72400       -5.35940
C          5.19030        5.22140       -5.57380
C          0.00080        6.16360       -4.05930
C         -0.00270        6.17460       -2.67980
S          1.61450        6.21240       -2.03180
C         -1.10630        5.99370       -1.80020
C         -2.40620        5.71660       -2.12350
C         -3.19410        5.32350       -1.01530
C         -4.53170        4.88110       -1.00750
C         -5.36060        4.88500       -2.20000
S         -4.84380        4.16790       -3.69840
C         -6.33630        4.54340       -4.48890
C         -6.59710        4.13060       -5.89530
C         -7.28260        2.76280       -5.94400
C         -7.17860        5.18110       -3.62810
Cl        -8.75140        5.71690       -4.05480
C         -6.63100        5.37680       -2.33240
Cl        -7.46850        6.22570       -1.10210
C         -5.02110        4.38030        0.19430
C         -4.26260        4.38590        1.38880
C         -2.97050        4.94290        1.41200
C         -2.22280        4.99730        2.65410
S         -0.58970        4.41210        2.77070
C         -0.50670        4.74920        4.46680
C          0.73970        4.49330        5.23910
C          1.82080        5.51790        4.88920
C         -1.67770        5.29650        4.89930
C         -2.65410        5.43560        3.87760
Cl        -4.18470        6.16090        4.16440
Cl        -1.97800        5.76760        6.52260
C         -2.45100        5.35050        0.19330
S         -0.82080        5.89030       -0.07410
C         -4.89180        3.65670        2.42000
C         -6.08560        3.10440        2.05180
S         -6.51960        3.51490        0.40910
C         -6.82580        2.18380        2.85330
C         -6.56390        1.90850        4.16470
C         -7.26230        0.78610        4.66150
C         -7.14410        0.19610        5.93410
C         -6.24320        0.74340        6.93390
S         -4.59330        1.13610        6.53520
C         -4.24370        1.67920        8.13750
C         -2.91060        2.22710        8.51910
C         -1.87310        2.08250        7.41470
C         -5.34800        1.54900        8.92740
Cl        -5.37820        1.99290       10.58470
C         -6.48000        1.01810        8.25350
Cl        -8.00040        0.84310        9.02330
C         -7.87790       -0.96290        6.15150
C         -8.74390       -1.51940        5.17640
C         -8.91510       -0.88480        3.93190
C         -9.85210       -1.40490        2.95330
S         -9.39640       -1.66580        1.29560
C        -10.97090       -2.24220        0.87170
C        -11.27540       -2.72490       -0.50350
C        -11.00840       -4.22700       -0.62780
C        -11.79070       -2.22990        1.96100
C        -11.16310       -1.75210        3.14180
Cl       -12.01340       -1.55940        4.62060
Cl       -13.43140       -2.73090        1.92740
C         -8.13030        0.23450        3.68770
S         -8.04640        1.12090        2.18930
C         -9.27010       -2.76670        5.59120
C         -8.84290       -3.15500        6.82600
S         -7.77220       -1.97990        7.55880
C         -9.16110       -4.35980        7.51780
C         -8.70890       -4.76120        8.73890
C         -9.21570       -6.02100        9.14320
C         -8.92320       -6.73660       10.31590
C         -8.09110       -6.15850       11.35660
S         -6.71170       -7.00300       11.99410
C         -6.32770       -5.71430       13.08210
C         -5.12570       -5.77300       13.95870
C         -3.89880       -5.20090       13.24390
C         -7.22280       -4.69510       12.94570
Cl        -7.16690       -3.24490       13.86130
C         -8.22600       -4.94360       11.97140
Cl        -9.51290       -3.84740       11.67240
C         -9.46590       -8.01110       10.42690
C        -10.30810       -8.57950        9.44260
C        -10.63220       -7.84920        8.28820
C        -11.49190       -8.39600        7.25040
S        -11.13630       -9.92330        6.49710
C        -12.49480       -9.80530        5.43160
C        -12.76460      -10.84660        4.40230
C        -11.99830      -10.54900        3.11110
C        -13.17050       -8.64330        5.65530
C        -12.60780       -7.84310        6.68640
Cl       -13.32620       -6.37600        7.20450
Cl       -14.57670       -8.17470        4.79130
C        -10.07120       -6.58400        8.16420
S        -10.24240       -5.52980        6.79080
C        -10.75810       -9.87740        9.82410
C        -10.27890      -10.26550       11.02330
S         -9.25680       -9.09120       11.77660
H         15.35590       -7.67170       -9.16900
H         16.12850       -6.45490       -6.99980
H         18.86830       -4.50310       -2.04290
H         19.02150       -3.00610       -2.98340
H         17.13530       -2.00620       -1.68820
H         17.00000       -3.49080       -0.74080
H         18.45610       -2.49790       -0.62060
H          7.99550       -2.68810      -11.99390
H          7.52410       -2.57520      -10.28680
H          7.94380       -5.17690      -11.83810
H          7.48240       -5.06540      -10.13670
H          6.38130       -4.48430      -11.39110
H         11.19890       -1.30140       -7.65080
H         13.10660        3.43100       -3.18940
H         11.72250        4.33610       -3.80360
H         11.35100        5.24350       -1.46390
H         12.89500        4.51550       -0.99260
H         12.85220        5.76640       -2.23110
H         12.74860        1.92120       -1.26790
H         11.35420        0.85220       -1.43670
H         11.46540        1.74940        0.82910
H         11.35400        3.40580        0.23140
H         10.00030        2.30450        0.01550
H         12.78760        0.37730       -3.43130
H          7.60610        4.74040       -2.15710
H          3.06380        8.17960       -5.70040
H          4.20550        7.76360       -6.97950
H          2.38730        9.39090       -7.66800
H          2.43670        7.94930       -8.67760
H          1.20060        8.10800       -7.41920
H          3.38180        4.29920       -7.35100
H          3.76160        5.72870       -8.31440
H          1.29120        6.00710       -8.77050
H          0.97640        4.58350       -7.78670
H          1.90160        4.43290       -9.28270
H          5.62110        5.03090       -6.54020
H         -0.88750        6.13350       -4.66090
H         -2.77330        5.74270       -3.13180
H         -5.65330        4.08610       -6.44090
H         -7.24090        4.87610       -6.36640
H         -6.65230        2.00740       -5.48090
H         -7.47160        2.47700       -6.97520
H         -8.23000        2.79840       -5.41240
H          0.50650        4.54960        6.30350
H          1.10680        3.48980        5.01410
H          2.05450        5.47050        3.82830
H          2.72510        5.31560        5.45660
H          1.47910        6.52260        5.12480
H         -4.43540        3.47950        3.37480
H         -5.87940        2.48730        4.75350
H         -3.02990        3.28520        8.77370
H         -2.57180        1.71650        9.42530
H         -1.74050        1.03650        7.14870
H         -0.91800        2.48160        7.74520
H         -2.18430        2.62620        6.52570
H        -10.65720       -2.18310       -1.22080
H        -12.32610       -2.52350       -0.72170
H        -11.23750       -4.56450       -1.63500
H        -11.62840       -4.77850        0.07420
H         -9.96420       -4.44360       -0.41500
H         -9.91670       -3.37700        4.98730
H         -8.01810       -4.17700        9.31910
H         -4.93360       -6.80960       14.23960
H         -5.32260       -5.19410       14.86310
H         -3.68820       -5.77000       12.34160
H         -3.03150       -5.24680       13.89690
H         -4.07350       -4.16400       12.96840
H        -12.46500      -11.82300        4.78650
H        -13.83610      -10.86410        4.19450
H        -12.20930      -11.31260        2.36740
H        -10.92790      -10.53300        3.30240
H        -12.29460       -9.58210        2.71250
H        -11.41330      -10.47840        9.22120
H        -10.46170      -11.18880       11.53730
