120

C          0.51270        0.14190        0.63850
S         -0.62720        0.10150        1.89830
C         -1.54930        1.41600        1.23320
C         -0.95570        1.87250        0.04740
C          0.21890        1.11290       -0.29460
C          0.91770        1.41650       -1.49310
S          2.32950        0.47330       -1.99780
C          0.50310        2.46400       -2.26850
C         -0.63790        3.20850       -1.92070
C         -1.36990        2.91490       -0.80480
C         -2.72370        1.76180        1.94040
C         -3.49020        2.88220        1.85860
C         -4.66290        3.03940        2.63770
S         -5.18630        1.69930        3.60580
C         -6.44220        2.59350        4.38190
C         -6.48050        3.90050        3.87940
C         -5.50640        4.14380        2.85000
C         -5.52810        5.40930        2.21700
S         -4.50400        5.81540        0.81250
C         -6.37490        6.39100        2.65980
C         -7.27640        6.15630        3.71000
C         -7.35570        4.92470        4.29220
C         -7.20400        2.03960        5.45270
C         -7.29680        0.72800        5.76100
C         -6.73460       -0.29540        4.90190
S         -5.28360       -1.13890        5.32840
C         -5.09510       -1.79770        3.73110
C         -6.19790       -1.46600        2.93200
C         -7.12470       -0.60420        3.60460
C         -8.28960       -0.17350        2.91600
S         -9.46840        0.85150        3.74060
C         -8.49350       -0.58250        1.62500
C         -7.57180       -1.42050        0.97340
C         -6.44380       -1.86140        1.60420
C         -3.90020       -2.40730        3.29850
C         -2.79490       -2.62560        4.05590
C         -1.54240       -3.01050        3.52570
S         -1.28220       -3.15750        1.79990
C          0.41340       -3.37740        2.04900
C          1.43330       -3.44810        1.08060
C          2.74580       -3.62250        1.50120
O          3.11340       -3.79820        2.77910
C          2.16860       -3.61450        3.85660
C          2.21340       -4.91180        4.69520
C          3.60130       -5.25580        5.22120
C          2.64790       -2.38870        4.66040
C          2.50230       -1.09060        3.87420
C          0.74840       -3.40450        3.39250
C         -0.35800       -3.19150        4.21610
C          3.66180       -3.60090        0.44240
C          3.06760       -3.42650       -0.79080
S          1.33530       -3.23450       -0.63340
C          3.74940       -3.20650       -2.02040
S          5.24810       -2.33050       -1.92910
C          5.36470       -2.15810       -3.64350
C          4.31840       -2.83690       -4.27400
C          3.40510       -3.45150       -3.35300
C          2.38560       -4.28570       -3.88270
S          1.40350       -5.30290       -2.82290
C          2.23330       -4.38640       -5.24290
C          3.10490       -3.73650       -6.12990
C          4.15310       -2.99870       -5.66410
C          6.47740       -1.45870       -4.20340
C          6.47760       -0.60800       -5.25760
C          5.35550       -0.01440       -5.90080
S          3.82280        0.06600       -5.10730
C          3.12160        1.07420       -6.31900
C          4.05380        1.36250       -7.32010
C          5.32040        0.71960       -7.09610
C          6.33160        0.85950       -8.08100
S          7.85620       -0.03270       -7.95650
C          6.11550        1.66980       -9.16630
C          4.90910        2.37010       -9.32140
C          3.88910        2.21880       -8.42930
C          1.74550        1.43100       -6.12750
C          0.87570        1.89240       -7.02670
H          1.34600       -0.53140        0.66450
H          1.96100       -0.66640       -1.41550
H          1.04740        2.71230       -3.16700
H         -0.94370        4.01600       -2.56870
H         -2.25890        3.47890       -0.57890
H         -3.02160        1.01330        2.66800
H         -3.17500        3.71130        1.24860
H         -4.80670        4.72330        0.10790
H         -6.36210        7.35350        2.17150
H         -7.93000        6.95510        4.02520
H         -8.08180        4.72370        5.06400
H         -7.72150        2.75410        6.07760
H         -7.78800        0.42110        6.67390
H        -10.39130        0.75940        2.77880
H         -9.37880       -0.26550        1.09220
H         -7.77840       -1.71850       -0.04330
H         -5.75160       -2.51730        1.10060
H         -3.84840       -2.63890        2.24230
H         -2.82700       -2.43630        5.12120
H          1.51090       -4.81610        5.52390
H          1.86410       -5.72330        4.05140
H          3.59580       -6.25750        5.64440
H          3.91110       -4.56050        5.99680
H          4.32460       -5.22440        4.41100
H          2.07510       -2.32910        5.58630
H          3.69870       -2.53880        4.90790
H          2.87880       -0.25530        4.45930
H          3.07230       -1.14200        2.94890
H          1.45900       -0.89720        3.63180
H         -0.31270       -3.14100        5.28920
H          4.72090       -3.72760        0.57050
H          0.86140       -6.01220       -3.81430
H          1.45150       -5.01310       -5.64800
H          2.95440       -3.86500       -7.19090
H          4.87110       -2.55950       -6.33780
H          7.41880       -1.61420       -3.69140
H          7.44220       -0.25060       -5.58930
H          8.32950        0.36740       -9.13780
H          6.88400        1.78150       -9.91810
H          4.79830        3.02460      -10.17250
H          2.96990        2.76430       -8.55340
H          1.39370        1.24380       -5.11930
H          1.12220        2.04370       -8.06160
H         -0.13950        2.10990       -6.74240
