
  xtb     03022200003D
 energy: -388.109951234551 gnorm: 0.000200054763 xtb: 6.4.1 (unknown)
212235  0     0  0            999 V2000
    5.9087   -1.7609   11.6286 C   0  0  0  0  0  0  0  0  0  0  0  0
    7.1235   -1.6638   11.0508 C   0  0  0  0  0  0  0  0  0  0  0  0
    7.0502   -1.4662    9.6412 C   0  0  0  0  0  0  0  0  0  0  0  0
    8.1018   -1.3240    8.7228 C   0  0  0  0  0  0  0  0  0  0  0  0
    9.4951   -1.3600    9.1425 C   0  0  0  0  0  0  0  0  0  0  0  0
   10.1477   -2.7216   10.0046 S   0  0  0  0  0  0  0  0  0  0  0  0
   11.7311   -2.0248   10.0676 C   0  0  0  0  0  0  0  0  0  0  0  0
   12.8736   -2.7572   10.6798 C   0  0  0  0  0  0  0  0  0  0  0  0
   13.5003   -3.7300    9.6781 C   0  0  0  0  0  0  0  0  0  0  0  0
   11.7376   -0.8117    9.4474 C   0  0  0  0  0  0  0  0  0  0  0  0
   13.1277    0.1849    9.3092 Cl  0  0  0  0  0  0  0  0  0  0  0  0
   10.4724   -0.4302    8.9245 C   0  0  0  0  0  0  0  0  0  0  0  0
   10.2080    1.0861    8.1712 Cl  0  0  0  0  0  0  0  0  0  0  0  0
    7.7566   -1.1618    7.3881 C   0  0  0  0  0  0  0  0  0  0  0  0
    6.4146   -1.1244    6.9337 C   0  0  0  0  0  0  0  0  0  0  0  0
    5.3633   -1.2088    7.8602 C   0  0  0  0  0  0  0  0  0  0  0  0
    3.9702   -1.0774    7.4595 C   0  0  0  0  0  0  0  0  0  0  0  0
    3.2299   -2.1238    6.2846 S   0  0  0  0  0  0  0  0  0  0  0  0
    1.6976   -1.3318    6.4258 C   0  0  0  0  0  0  0  0  0  0  0  0
    0.5024   -1.7824    5.6592 C   0  0  0  0  0  0  0  0  0  0  0  0
   -0.4337   -2.6182    6.5354 C   0  0  0  0  0  0  0  0  0  0  0  0
    1.7715   -0.3199    7.3359 C   0  0  0  0  0  0  0  0  0  0  0  0
    3.0561   -0.1715    7.9221 C   0  0  0  0  0  0  0  0  0  0  0  0
    3.4208    1.0809    9.0339 Cl  0  0  0  0  0  0  0  0  0  0  0  0
    0.4502    0.6993    7.7360 Cl  0  0  0  0  0  0  0  0  0  0  0  0
    5.7102   -1.3932    9.1940 C   0  0  0  0  0  0  0  0  0  0  0  0
    4.5961   -1.6058   10.5143 S   0  0  0  0  0  0  0  0  0  0  0  0
    6.3372   -0.9640    5.5282 C   0  0  0  0  0  0  0  0  0  0  0  0
    7.5558   -0.8816    4.9203 C   0  0  0  0  0  0  0  0  0  0  0  0
    8.8769   -1.0083    6.0652 S   0  0  0  0  0  0  0  0  0  0  0  0
    7.8296   -0.6658    3.5404 C   0  0  0  0  0  0  0  0  0  0  0  0
    6.5736   -0.8636    2.3463 S   0  0  0  0  0  0  0  0  0  0  0  0
    7.6522   -0.3379    1.1052 C   0  0  0  0  0  0  0  0  0  0  0  0
    7.3837   -0.2016   -0.2769 C   0  0  0  0  0  0  0  0  0  0  0  0
    8.4077    0.1908   -1.1222 C   0  0  0  0  0  0  0  0  0  0  0  0
    9.6773    0.3744   -0.7185 O   0  0  0  0  0  0  0  0  0  0  0  0
    9.9486    0.5945    0.6870 C   0  0  0  0  0  0  0  0  0  0  0  0
    9.9485    2.1341    0.8632 C   0  0  0  0  0  0  0  0  0  0  0  0
   10.2361    2.6478    2.2664 C   0  0  0  0  0  0  0  0  0  0  0  0
   11.3370   -0.0154    0.9262 C   0  0  0  0  0  0  0  0  0  0  0  0
   11.3379   -1.5260    0.7235 C   0  0  0  0  0  0  0  0  0  0  0  0
    8.9073   -0.0211    1.5891 C   0  0  0  0  0  0  0  0  0  0  0  0
    9.0063   -0.2350    2.9696 C   0  0  0  0  0  0  0  0  0  0  0  0
    7.9852    0.3315   -2.4598 C   0  0  0  0  0  0  0  0  0  0  0  0
    6.6635    0.0184   -2.6277 C   0  0  0  0  0  0  0  0  0  0  0  0
    5.9064   -0.4548   -1.1301 S   0  0  0  0  0  0  0  0  0  0  0  0
    5.8139    0.1346   -3.7861 C   0  0  0  0  0  0  0  0  0  0  0  0
    5.5280    1.2637   -4.4868 C   0  0  0  0  0  0  0  0  0  0  0  0
    4.4327    1.1102   -5.3789 C   0  0  0  0  0  0  0  0  0  0  0  0
    3.7234    2.1107   -6.0668 C   0  0  0  0  0  0  0  0  0  0  0  0
    4.1526    3.4983   -6.0981 C   0  0  0  0  0  0  0  0  0  0  0  0
    4.5668    4.3866   -4.6617 S   0  0  0  0  0  0  0  0  0  0  0  0
    4.8718    5.8409   -5.5494 C   0  0  0  0  0  0  0  0  0  0  0  0
    5.3524    7.0745   -4.8688 C   0  0  0  0  0  0  0  0  0  0  0  0
    6.8662    7.0239   -4.6485 C   0  0  0  0  0  0  0  0  0  0  0  0
    4.6721    5.6314   -6.8810 C   0  0  0  0  0  0  0  0  0  0  0  0
    4.8911    6.8359   -8.0828 Cl  0  0  0  0  0  0  0  0  0  0  0  0
    4.2548    4.3103   -7.1948 C   0  0  0  0  0  0  0  0  0  0  0  0
    3.9914    3.7898   -8.8057 Cl  0  0  0  0  0  0  0  0  0  0  0  0
    2.5237    1.7306   -6.6589 C   0  0  0  0  0  0  0  0  0  0  0  0
    2.0852    0.3860   -6.7294 C   0  0  0  0  0  0  0  0  0  0  0  0
    2.8472   -0.6302   -6.1290 C   0  0  0  0  0  0  0  0  0  0  0  0
    2.4492   -2.0269   -6.1576 C   0  0  0  0  0  0  0  0  0  0  0  0
    0.8512   -2.5503   -5.7116 S   0  0  0  0  0  0  0  0  0  0  0  0
    1.2407   -4.2178   -5.9554 C   0  0  0  0  0  0  0  0  0  0  0  0
    0.2446   -5.2896   -5.6819 C   0  0  0  0  0  0  0  0  0  0  0  0
    0.2540   -5.6780   -4.2013 C   0  0  0  0  0  0  0  0  0  0  0  0
    2.5381   -4.3475   -6.3517 C   0  0  0  0  0  0  0  0  0  0  0  0
    3.2259   -3.1102   -6.4673 C   0  0  0  0  0  0  0  0  0  0  0  0
    4.8437   -3.0083   -7.0221 Cl  0  0  0  0  0  0  0  0  0  0  0  0
    3.2874   -5.8522   -6.6946 Cl  0  0  0  0  0  0  0  0  0  0  0  0
    3.9625   -0.2249   -5.4045 C   0  0  0  0  0  0  0  0  0  0  0  0
    4.8349   -1.2271   -4.2835 S   0  0  0  0  0  0  0  0  0  0  0  0
    0.7837    0.2831   -7.2778 C   0  0  0  0  0  0  0  0  0  0  0  0
    0.1933    1.4924   -7.4970 C   0  0  0  0  0  0  0  0  0  0  0  0
    1.2875    2.8276   -7.2137 S   0  0  0  0  0  0  0  0  0  0  0  0
   -1.2163    1.6981   -7.6229 C   0  0  0  0  0  0  0  0  0  0  0  0
   -1.9280    2.7037   -7.0413 C   0  0  0  0  0  0  0  0  0  0  0  0
   -3.3091    2.4118   -6.9104 C   0  0  0  0  0  0  0  0  0  0  0  0
   -4.2525    3.1182   -6.1397 C   0  0  0  0  0  0  0  0  0  0  0  0
   -3.9512    4.4430   -5.6370 C   0  0  0  0  0  0  0  0  0  0  0  0
   -4.2375    4.8982   -3.9833 S   0  0  0  0  0  0  0  0  0  0  0  0
   -3.6293    6.4976   -4.2361 C   0  0  0  0  0  0  0  0  0  0  0  0
   -3.6364    7.5045   -3.1397 C   0  0  0  0  0  0  0  0  0  0  0  0
   -5.0022    8.1880   -3.0390 C   0  0  0  0  0  0  0  0  0  0  0  0
   -3.2464    6.6615   -5.5344 C   0  0  0  0  0  0  0  0  0  0  0  0
   -2.6063    8.1231   -6.1664 Cl  0  0  0  0  0  0  0  0  0  0  0  0
   -3.4191    5.4987   -6.3301 C   0  0  0  0  0  0  0  0  0  0  0  0
   -3.0679    5.4749   -8.0098 Cl  0  0  0  0  0  0  0  0  0  0  0  0
   -5.4228    2.4384   -5.8249 C   0  0  0  0  0  0  0  0  0  0  0  0
   -5.7667    1.1923   -6.4021 C   0  0  0  0  0  0  0  0  0  0  0  0
   -4.8924    0.5690   -7.3139 C   0  0  0  0  0  0  0  0  0  0  0  0
   -5.2683   -0.6659   -7.9719 C   0  0  0  0  0  0  0  0  0  0  0  0
   -4.2046   -2.0398   -8.0522 S   0  0  0  0  0  0  0  0  0  0  0  0
   -5.3637   -2.9867   -8.9218 C   0  0  0  0  0  0  0  0  0  0  0  0
   -5.0397   -4.3638   -9.3852 C   0  0  0  0  0  0  0  0  0  0  0  0
   -4.2509   -4.3246  -10.6963 C   0  0  0  0  0  0  0  0  0  0  0  0
   -6.4977   -2.2634   -9.1424 C   0  0  0  0  0  0  0  0  0  0  0  0
   -6.4513   -0.9520   -8.6005 C   0  0  0  0  0  0  0  0  0  0  0  0
   -7.7330    0.1709   -8.8044 Cl  0  0  0  0  0  0  0  0  0  0  0  0
   -7.8667   -2.8624   -9.9869 Cl  0  0  0  0  0  0  0  0  0  0  0  0
   -3.6396    1.1528   -7.4643 C   0  0  0  0  0  0  0  0  0  0  0  0
   -2.2471    0.3995   -8.1923 S   0  0  0  0  0  0  0  0  0  0  0  0
   -6.9156    0.6256   -5.7948 C   0  0  0  0  0  0  0  0  0  0  0  0
   -7.4102    1.3744   -4.7690 C   0  0  0  0  0  0  0  0  0  0  0  0
   -6.5633    2.8987   -4.5935 S   0  0  0  0  0  0  0  0  0  0  0  0
   -8.3256    0.9370   -3.7600 C   0  0  0  0  0  0  0  0  0  0  0  0
   -7.9084    1.2498   -2.0925 S   0  0  0  0  0  0  0  0  0  0  0  0
   -9.1669    0.1960   -1.5658 C   0  0  0  0  0  0  0  0  0  0  0  0
   -9.3386   -0.3474   -0.2720 C   0  0  0  0  0  0  0  0  0  0  0  0
  -10.1495   -1.4665   -0.1337 C   0  0  0  0  0  0  0  0  0  0  0  0
  -10.9079   -1.9626   -1.1275 O   0  0  0  0  0  0  0  0  0  0  0  0
  -11.1249   -1.1539   -2.3085 C   0  0  0  0  0  0  0  0  0  0  0  0
  -12.3180   -0.2202   -2.0006 C   0  0  0  0  0  0  0  0  0  0  0  0
  -12.7515    0.6449   -3.1756 C   0  0  0  0  0  0  0  0  0  0  0  0
  -11.4045   -2.1557   -3.4387 C   0  0  0  0  0  0  0  0  0  0  0  0
  -12.5938   -3.0686   -3.1648 C   0  0  0  0  0  0  0  0  0  0  0  0
   -9.9128   -0.3078   -2.6186 C   0  0  0  0  0  0  0  0  0  0  0  0
   -9.4108    0.0996   -3.8624 C   0  0  0  0  0  0  0  0  0  0  0  0
  -10.0056   -2.0948    1.1118 C   0  0  0  0  0  0  0  0  0  0  0  0
   -9.0724   -1.4760    1.9180 C   0  0  0  0  0  0  0  0  0  0  0  0
   -8.4010   -0.0613    1.1528 S   0  0  0  0  0  0  0  0  0  0  0  0
   -8.5804   -1.9124    3.1784 C   0  0  0  0  0  0  0  0  0  0  0  0
   -7.1088   -1.2367    3.8331 S   0  0  0  0  0  0  0  0  0  0  0  0
   -7.1563   -2.3481    5.1527 C   0  0  0  0  0  0  0  0  0  0  0  0
   -6.2144   -2.5102    6.1977 C   0  0  0  0  0  0  0  0  0  0  0  0
   -6.4437   -3.4848    7.1509 C   0  0  0  0  0  0  0  0  0  0  0  0
   -7.5217   -4.2846    7.1867 O   0  0  0  0  0  0  0  0  0  0  0  0
   -8.5208   -4.2314    6.1452 C   0  0  0  0  0  0  0  0  0  0  0  0
   -9.8640   -3.9561    6.8532 C   0  0  0  0  0  0  0  0  0  0  0  0
   -9.9007   -2.5784    7.5036 C   0  0  0  0  0  0  0  0  0  0  0  0
   -8.5416   -5.6293    5.4902 C   0  0  0  0  0  0  0  0  0  0  0  0
   -7.2460   -5.9418    4.7510 C   0  0  0  0  0  0  0  0  0  0  0  0
   -8.2612   -3.1758    5.1006 C   0  0  0  0  0  0  0  0  0  0  0  0
   -9.0613   -2.9266    3.9797 C   0  0  0  0  0  0  0  0  0  0  0  0
   -5.4075   -3.5587    8.1102 C   0  0  0  0  0  0  0  0  0  0  0  0
   -4.4205   -2.6557    7.8672 C   0  0  0  0  0  0  0  0  0  0  0  0
   -4.7155   -1.6899    6.4751 S   0  0  0  0  0  0  0  0  0  0  0  0
    5.6835   -1.9118   12.6662 H   0  0  0  0  0  0  0  0  0  0  0  0
    8.0487   -1.7293   11.5931 H   0  0  0  0  0  0  0  0  0  0  0  0
   13.6222   -2.0308   11.0015 H   0  0  0  0  0  0  0  0  0  0  0  0
   12.5239   -3.3108   11.5530 H   0  0  0  0  0  0  0  0  0  0  0  0
   14.3313   -4.2567   10.1393 H   0  0  0  0  0  0  0  0  0  0  0  0
   12.7636   -4.4589    9.3488 H   0  0  0  0  0  0  0  0  0  0  0  0
   13.8681   -3.1906    8.8090 H   0  0  0  0  0  0  0  0  0  0  0  0
    0.8253   -2.3696    4.7987 H   0  0  0  0  0  0  0  0  0  0  0  0
   -0.0368   -0.9027    5.3000 H   0  0  0  0  0  0  0  0  0  0  0  0
   -1.3130   -2.9099    5.9673 H   0  0  0  0  0  0  0  0  0  0  0  0
    0.0726   -3.5145    6.8855 H   0  0  0  0  0  0  0  0  0  0  0  0
   -0.7533   -2.0394    7.3979 H   0  0  0  0  0  0  0  0  0  0  0  0
    5.4126   -0.8964    4.9839 H   0  0  0  0  0  0  0  0  0  0  0  0
   10.6866    2.5352    0.1653 H   0  0  0  0  0  0  0  0  0  0  0  0
    8.9647    2.4929    0.5460 H   0  0  0  0  0  0  0  0  0  0  0  0
    9.4891    2.2949    2.9727 H   0  0  0  0  0  0  0  0  0  0  0  0
   10.2109    3.7350    2.2624 H   0  0  0  0  0  0  0  0  0  0  0  0
   11.2187    2.3350    2.6085 H   0  0  0  0  0  0  0  0  0  0  0  0
   12.0291    0.4476    0.2213 H   0  0  0  0  0  0  0  0  0  0  0  0
   11.6623    0.2222    1.9379 H   0  0  0  0  0  0  0  0  0  0  0  0
   10.6758   -2.0114    1.4374 H   0  0  0  0  0  0  0  0  0  0  0  0
   11.0018   -1.7689   -0.2815 H   0  0  0  0  0  0  0  0  0  0  0  0
   12.3415   -1.9210    0.8585 H   0  0  0  0  0  0  0  0  0  0  0  0
    9.8933   -0.0720    3.5547 H   0  0  0  0  0  0  0  0  0  0  0  0
    8.6345    0.6349   -3.2595 H   0  0  0  0  0  0  0  0  0  0  0  0
    6.0316    2.1959   -4.3107 H   0  0  0  0  0  0  0  0  0  0  0  0
    5.1016    7.9356   -5.4907 H   0  0  0  0  0  0  0  0  0  0  0  0
    4.8490    7.1784   -3.9060 H   0  0  0  0  0  0  0  0  0  0  0  0
    7.3825    6.9334   -5.6008 H   0  0  0  0  0  0  0  0  0  0  0  0
    7.1287    6.1708   -4.0272 H   0  0  0  0  0  0  0  0  0  0  0  0
    7.2022    7.9319   -4.1551 H   0  0  0  0  0  0  0  0  0  0  0  0
    0.4927   -6.1615   -6.2901 H   0  0  0  0  0  0  0  0  0  0  0  0
   -0.7506   -4.9378   -5.9594 H   0  0  0  0  0  0  0  0  0  0  0  0
    1.2379   -6.0388   -3.9130 H   0  0  0  0  0  0  0  0  0  0  0  0
   -0.4736   -6.4636   -4.0166 H   0  0  0  0  0  0  0  0  0  0  0  0
    0.0046   -4.8179   -3.5845 H   0  0  0  0  0  0  0  0  0  0  0  0
    0.2579   -0.6442   -7.4110 H   0  0  0  0  0  0  0  0  0  0  0  0
   -1.4583    3.5694   -6.6107 H   0  0  0  0  0  0  0  0  0  0  0  0
   -3.4074    7.0111   -2.1937 H   0  0  0  0  0  0  0  0  0  0  0  0
   -2.8665    8.2510   -3.3428 H   0  0  0  0  0  0  0  0  0  0  0  0
   -5.7775    7.4515   -2.8419 H   0  0  0  0  0  0  0  0  0  0  0  0
   -4.9971    8.9155   -2.2319 H   0  0  0  0  0  0  0  0  0  0  0  0
   -5.2367    8.7000   -3.9688 H   0  0  0  0  0  0  0  0  0  0  0  0
   -4.4492   -4.8735   -8.6219 H   0  0  0  0  0  0  0  0  0  0  0  0
   -5.9713   -4.9127   -9.5335 H   0  0  0  0  0  0  0  0  0  0  0  0
   -3.3221   -3.7759  -10.5602 H   0  0  0  0  0  0  0  0  0  0  0  0
   -4.0171   -5.3345  -11.0221 H   0  0  0  0  0  0  0  0  0  0  0  0
   -4.8338   -3.8344  -11.4719 H   0  0  0  0  0  0  0  0  0  0  0  0
   -7.2884   -0.3547   -6.0282 H   0  0  0  0  0  0  0  0  0  0  0  0
  -12.0181    0.4242   -1.1693 H   0  0  0  0  0  0  0  0  0  0  0  0
  -13.1509   -0.8342   -1.6556 H   0  0  0  0  0  0  0  0  0  0  0  0
  -13.5241    1.3390   -2.8537 H   0  0  0  0  0  0  0  0  0  0  0  0
  -11.9128    1.2214   -3.5594 H   0  0  0  0  0  0  0  0  0  0  0  0
  -13.1555    0.0392   -3.9822 H   0  0  0  0  0  0  0  0  0  0  0  0
  -11.5671   -1.6062   -4.3649 H   0  0  0  0  0  0  0  0  0  0  0  0
  -10.5059   -2.7651   -3.5586 H   0  0  0  0  0  0  0  0  0  0  0  0
  -12.6461   -3.8408   -3.9287 H   0  0  0  0  0  0  0  0  0  0  0  0
  -13.5279   -2.5135   -3.1792 H   0  0  0  0  0  0  0  0  0  0  0  0
  -12.4834   -3.5453   -2.1951 H   0  0  0  0  0  0  0  0  0  0  0  0
   -9.8165   -0.1941   -4.8130 H   0  0  0  0  0  0  0  0  0  0  0  0
  -10.5305   -2.9913    1.3813 H   0  0  0  0  0  0  0  0  0  0  0  0
  -10.0016   -4.7236    7.6165 H   0  0  0  0  0  0  0  0  0  0  0  0
  -10.6707   -4.0449    6.1250 H   0  0  0  0  0  0  0  0  0  0  0  0
   -9.0896   -2.4776    8.2209 H   0  0  0  0  0  0  0  0  0  0  0  0
   -9.8005   -1.7956    6.7546 H   0  0  0  0  0  0  0  0  0  0  0  0
  -10.8426   -2.4366    8.0274 H   0  0  0  0  0  0  0  0  0  0  0  0
   -8.6967   -6.3648    6.2813 H   0  0  0  0  0  0  0  0  0  0  0  0
   -9.3842   -5.6827    4.8003 H   0  0  0  0  0  0  0  0  0  0  0  0
   -6.3980   -5.8802    5.4294 H   0  0  0  0  0  0  0  0  0  0  0  0
   -7.0884   -5.2399    3.9347 H   0  0  0  0  0  0  0  0  0  0  0  0
   -7.2835   -6.9471    4.3391 H   0  0  0  0  0  0  0  0  0  0  0  0
   -9.9633   -3.4637    3.7517 H   0  0  0  0  0  0  0  0  0  0  0  0
   -5.4112   -4.2531    8.9291 H   0  0  0  0  0  0  0  0  0  0  0  0
   -3.5228   -2.4969    8.4298 H   0  0  0  0  0  0  0  0  0  0  0  0
  1  2  2  0  0  0  0
  2  3  1  0  0  0  0
  3  4  2  0  0  0  0
  4  5  1  0  0  0  0
  5  6  1  0  0  0  0
  6  7  1  0  0  0  0
  7  8  1  0  0  0  0
  8  9  1  0  0  0  0
  7 10  2  0  0  0  0
 10 11  1  0  0  0  0
 10 12  1  0  0  0  0
 12 13  1  0  0  0  0
  4 14  1  0  0  0  0
 14 15  2  0  0  0  0
 15 16  1  0  0  0  0
 16 17  1  0  0  0  0
 17 18  1  0  0  0  0
 18 19  1  0  0  0  0
 19 20  1  0  0  0  0
 20 21  1  0  0  0  0
 19 22  2  0  0  0  0
 22 23  1  0  0  0  0
 23 24  1  0  0  0  0
 22 25  1  0  0  0  0
 16 26  2  0  0  0  0
 26 27  1  0  0  0  0
 15 28  1  0  0  0  0
 28 29  2  0  0  0  0
 29 30  1  0  0  0  0
 29 31  1  0  0  0  0
 31 32  1  0  0  0  0
 32 33  1  0  0  0  0
 33 34  1  0  0  0  0
 34 35  2  0  0  0  0
 35 36  1  0  0  0  0
 36 37  1  0  0  0  0
 37 38  1  0  0  0  0
 38 39  1  0  0  0  0
 37 40  1  0  0  0  0
 40 41  1  0  0  0  0
 37 42  1  0  0  0  0
 42 43  1  0  0  0  0
 35 44  1  0  0  0  0
 44 45  2  0  0  0  0
 45 46  1  0  0  0  0
 45 47  1  0  0  0  0
 47 48  2  0  0  0  0
 48 49  1  0  0  0  0
 49 50  2  0  0  0  0
 50 51  1  0  0  0  0
 51 52  1  0  0  0  0
 52 53  1  0  0  0  0
 53 54  1  0  0  0  0
 54 55  1  0  0  0  0
 53 56  2  0  0  0  0
 56 57  1  0  0  0  0
 56 58  1  0  0  0  0
 58 59  1  0  0  0  0
 50 60  1  0  0  0  0
 60 61  2  0  0  0  0
 61 62  1  0  0  0  0
 62 63  1  0  0  0  0
 63 64  1  0  0  0  0
 64 65  1  0  0  0  0
 65 66  1  0  0  0  0
 66 67  1  0  0  0  0
 65 68  2  0  0  0  0
 68 69  1  0  0  0  0
 69 70  1  0  0  0  0
 68 71  1  0  0  0  0
 62 72  2  0  0  0  0
 72 73  1  0  0  0  0
 61 74  1  0  0  0  0
 74 75  2  0  0  0  0
 75 76  1  0  0  0  0
 75 77  1  0  0  0  0
 77 78  2  0  0  0  0
 78 79  1  0  0  0  0
 79 80  2  0  0  0  0
 80 81  1  0  0  0  0
 81 82  1  0  0  0  0
 82 83  1  0  0  0  0
 83 84  1  0  0  0  0
 84 85  1  0  0  0  0
 83 86  2  0  0  0  0
 86 87  1  0  0  0  0
 86 88  1  0  0  0  0
 88 89  1  0  0  0  0
 80 90  1  0  0  0  0
 90 91  2  0  0  0  0
 91 92  1  0  0  0  0
 92 93  1  0  0  0  0
 93 94  1  0  0  0  0
 94 95  1  0  0  0  0
 95 96  1  0  0  0  0
 96 97  1  0  0  0  0
 95 98  2  0  0  0  0
 98 99  1  0  0  0  0
 99100  1  0  0  0  0
 98101  1  0  0  0  0
 92102  2  0  0  0  0
102103  1  0  0  0  0
 91104  1  0  0  0  0
104105  2  0  0  0  0
105106  1  0  0  0  0
105107  1  0  0  0  0
107108  1  0  0  0  0
108109  1  0  0  0  0
109110  1  0  0  0  0
110111  2  0  0  0  0
111112  1  0  0  0  0
112113  1  0  0  0  0
113114  1  0  0  0  0
114115  1  0  0  0  0
113116  1  0  0  0  0
116117  1  0  0  0  0
113118  1  0  0  0  0
118119  1  0  0  0  0
111120  1  0  0  0  0
120121  2  0  0  0  0
121122  1  0  0  0  0
121123  1  0  0  0  0
123124  1  0  0  0  0
124125  1  0  0  0  0
125126  1  0  0  0  0
126127  2  0  0  0  0
127128  1  0  0  0  0
128129  1  0  0  0  0
129130  1  0  0  0  0
130131  1  0  0  0  0
129132  1  0  0  0  0
132133  1  0  0  0  0
129134  1  0  0  0  0
134135  1  0  0  0  0
127136  1  0  0  0  0
136137  2  0  0  0  0
137138  1  0  0  0  0
 27  1  1  0  0  0  0
 43 31  2  0  0  0  0
 73 47  1  0  0  0  0
103 77  1  0  0  0  0
119107  2  0  0  0  0
135123  2  0  0  0  0
 26  3  1  0  0  0  0
 42 33  2  0  0  0  0
 72 49  1  0  0  0  0
102 79  1  0  0  0  0
118109  2  0  0  0  0
134125  2  0  0  0  0
 12  5  2  0  0  0  0
 30 14  1  0  0  0  0
 46 34  1  0  0  0  0
 58 51  2  0  0  0  0
 76 60  1  0  0  0  0
 88 81  2  0  0  0  0
106 90  1  0  0  0  0
122110  1  0  0  0  0
138126  1  0  0  0  0
 23 17  2  0  0  0  0
 69 63  2  0  0  0  0
 99 93  2  0  0  0  0
  1139  1  0  0  0  0
  2140  1  0  0  0  0
  8141  1  0  0  0  0
  8142  1  0  0  0  0
  9143  1  0  0  0  0
  9144  1  0  0  0  0
  9145  1  0  0  0  0
 20146  1  0  0  0  0
 20147  1  0  0  0  0
 21148  1  0  0  0  0
 21149  1  0  0  0  0
 21150  1  0  0  0  0
 28151  1  0  0  0  0
 38152  1  0  0  0  0
 38153  1  0  0  0  0
 39154  1  0  0  0  0
 39155  1  0  0  0  0
 39156  1  0  0  0  0
 40157  1  0  0  0  0
 40158  1  0  0  0  0
 41159  1  0  0  0  0
 41160  1  0  0  0  0
 41161  1  0  0  0  0
 43162  1  0  0  0  0
 44163  1  0  0  0  0
 48164  1  0  0  0  0
 54165  1  0  0  0  0
 54166  1  0  0  0  0
 55167  1  0  0  0  0
 55168  1  0  0  0  0
 55169  1  0  0  0  0
 66170  1  0  0  0  0
 66171  1  0  0  0  0
 67172  1  0  0  0  0
 67173  1  0  0  0  0
 67174  1  0  0  0  0
 74175  1  0  0  0  0
 78176  1  0  0  0  0
 84177  1  0  0  0  0
 84178  1  0  0  0  0
 85179  1  0  0  0  0
 85180  1  0  0  0  0
 85181  1  0  0  0  0
 96182  1  0  0  0  0
 96183  1  0  0  0  0
 97184  1  0  0  0  0
 97185  1  0  0  0  0
 97186  1  0  0  0  0
104187  1  0  0  0  0
114188  1  0  0  0  0
114189  1  0  0  0  0
115190  1  0  0  0  0
115191  1  0  0  0  0
115192  1  0  0  0  0
116193  1  0  0  0  0
116194  1  0  0  0  0
117195  1  0  0  0  0
117196  1  0  0  0  0
117197  1  0  0  0  0
119198  1  0  0  0  0
120199  1  0  0  0  0
130200  1  0  0  0  0
130201  1  0  0  0  0
131202  1  0  0  0  0
131203  1  0  0  0  0
131204  1  0  0  0  0
132205  1  0  0  0  0
132206  1  0  0  0  0
133207  1  0  0  0  0
133208  1  0  0  0  0
133209  1  0  0  0  0
135210  1  0  0  0  0
136211  1  0  0  0  0
137212  1  0  0  0  0
M  END
