
  xtb     02282221363D
 energy: -227.823257491949 gnorm: 0.000197416764 xtb: 6.4.1 (unknown)
138155  0     0  0            999 V2000
   -3.0385   14.7480   -6.7956 C   0  0  0  0  0  0  0  0  0  0  0  0
   -3.2902   14.4501   -5.1044 S   0  0  0  0  0  0  0  0  0  0  0  0
   -3.7974   12.8392   -5.4613 C   0  0  0  0  0  0  0  0  0  0  0  0
   -4.2380   11.6621   -4.8467 C   0  0  0  0  0  0  0  0  0  0  0  0
   -4.4581   10.7288   -5.8772 C   0  0  0  0  0  0  0  0  0  0  0  0
   -4.1840   11.3042   -7.0916 N   0  0  0  0  0  0  0  0  0  0  0  0
   -4.1709   10.6350   -8.3649 C   0  0  0  0  0  0  0  0  0  0  0  0
   -2.8235    9.9666   -8.6359 C   0  0  0  0  0  0  0  0  0  0  0  0
   -3.7613   12.5848   -6.8431 C   0  0  0  0  0  0  0  0  0  0  0  0
   -3.3229   13.6893   -7.6000 C   0  0  0  0  0  0  0  0  0  0  0  0
   -4.8928    9.4792   -5.4188 C   0  0  0  0  0  0  0  0  0  0  0  0
   -5.0013    9.4512   -4.0452 C   0  0  0  0  0  0  0  0  0  0  0  0
   -4.5750   10.9853   -3.2972 S   0  0  0  0  0  0  0  0  0  0  0  0
   -5.3637    8.3409   -3.2314 C   0  0  0  0  0  0  0  0  0  0  0  0
   -5.2448    8.4615   -1.4802 S   0  0  0  0  0  0  0  0  0  0  0  0
   -5.7210    6.8111   -1.3210 C   0  0  0  0  0  0  0  0  0  0  0  0
   -5.8967    5.8071   -0.3675 C   0  0  0  0  0  0  0  0  0  0  0  0
   -6.2529    4.6380   -1.0705 C   0  0  0  0  0  0  0  0  0  0  0  0
   -6.2942    4.9008   -2.4149 N   0  0  0  0  0  0  0  0  0  0  0  0
   -6.6973    3.9838   -3.4472 C   0  0  0  0  0  0  0  0  0  0  0  0
   -8.2092    4.0128   -3.6661 C   0  0  0  0  0  0  0  0  0  0  0  0
   -5.9755    6.2242   -2.5776 C   0  0  0  0  0  0  0  0  0  0  0  0
   -5.7741    7.0944   -3.6539 C   0  0  0  0  0  0  0  0  0  0  0  0
   -6.3821    3.5101   -0.2546 C   0  0  0  0  0  0  0  0  0  0  0  0
   -6.1221    3.8039    1.0659 C   0  0  0  0  0  0  0  0  0  0  0  0
   -5.7507    5.5077    1.3266 S   0  0  0  0  0  0  0  0  0  0  0  0
   -5.9923    2.8815    2.1357 C   0  0  0  0  0  0  0  0  0  0  0  0
   -6.1043    1.1633    1.8260 S   0  0  0  0  0  0  0  0  0  0  0  0
   -5.6111    0.8188    3.4479 C   0  0  0  0  0  0  0  0  0  0  0  0
   -5.1399   -0.4150    3.9514 C   0  0  0  0  0  0  0  0  0  0  0  0
   -4.2939   -0.3801    5.0542 C   0  0  0  0  0  0  0  0  0  0  0  0
   -4.0859    0.7256    5.7905 O   0  0  0  0  0  0  0  0  0  0  0  0
   -5.0134    1.8263    5.6398 C   0  0  0  0  0  0  0  0  0  0  0  0
   -4.2504    3.0658    6.1280 C   0  0  0  0  0  0  0  0  0  0  0  0
   -3.7724    2.9580    7.5713 C   0  0  0  0  0  0  0  0  0  0  0  0
   -6.2626    1.4971    6.4872 C   0  0  0  0  0  0  0  0  0  0  0  0
   -7.3099    2.6019    6.4930 C   0  0  0  0  0  0  0  0  0  0  0  0
   -5.4200    1.9706    4.1931 C   0  0  0  0  0  0  0  0  0  0  0  0
   -5.6373    3.1314    3.4438 C   0  0  0  0  0  0  0  0  0  0  0  0
   -3.5909   -1.5787    5.2403 C   0  0  0  0  0  0  0  0  0  0  0  0
   -3.9116   -2.5389    4.3072 C   0  0  0  0  0  0  0  0  0  0  0  0
   -5.1358   -1.9722    3.1954 S   0  0  0  0  0  0  0  0  0  0  0  0
   -3.2611   -3.7760    4.0594 C   0  0  0  0  0  0  0  0  0  0  0  0
   -1.6149   -4.0065    4.6028 S   0  0  0  0  0  0  0  0  0  0  0  0
   -1.4960   -5.4620    3.6767 C   0  0  0  0  0  0  0  0  0  0  0  0
   -0.3189   -6.1516    3.3108 C   0  0  0  0  0  0  0  0  0  0  0  0
   -0.3750   -6.9810    2.1964 C   0  0  0  0  0  0  0  0  0  0  0  0
   -1.5203   -7.3192    1.5795 O   0  0  0  0  0  0  0  0  0  0  0  0
   -2.7639   -7.0745    2.2622 C   0  0  0  0  0  0  0  0  0  0  0  0
   -3.8242   -6.9630    1.1540 C   0  0  0  0  0  0  0  0  0  0  0  0
   -3.9081   -8.1876    0.2518 C   0  0  0  0  0  0  0  0  0  0  0  0
   -3.0675   -8.2315    3.2605 C   0  0  0  0  0  0  0  0  0  0  0  0
   -2.2978   -9.5199    2.9861 C   0  0  0  0  0  0  0  0  0  0  0  0
   -2.6884   -5.7834    3.0458 C   0  0  0  0  0  0  0  0  0  0  0  0
   -3.6754   -4.8170    3.2563 C   0  0  0  0  0  0  0  0  0  0  0  0
    0.8917   -7.3283    1.7077 C   0  0  0  0  0  0  0  0  0  0  0  0
    1.9196   -6.7724    2.4372 C   0  0  0  0  0  0  0  0  0  0  0  0
    1.3168   -5.8435    3.7894 S   0  0  0  0  0  0  0  0  0  0  0  0
    3.3039   -6.7698    2.1301 C   0  0  0  0  0  0  0  0  0  0  0  0
    3.8443   -7.4140    0.5802 S   0  0  0  0  0  0  0  0  0  0  0  0
    5.4387   -6.8310    0.8868 C   0  0  0  0  0  0  0  0  0  0  0  0
    6.6893   -6.7011    0.2844 C   0  0  0  0  0  0  0  0  0  0  0  0
    7.5118   -6.0125    1.1997 C   0  0  0  0  0  0  0  0  0  0  0  0
    6.7972   -5.7154    2.3300 N   0  0  0  0  0  0  0  0  0  0  0  0
    7.3063   -5.0857    3.5196 C   0  0  0  0  0  0  0  0  0  0  0  0
    7.8747   -6.1120    4.4980 C   0  0  0  0  0  0  0  0  0  0  0  0
    5.5323   -6.2119    2.1519 C   0  0  0  0  0  0  0  0  0  0  0  0
    4.3211   -6.1798    2.8486 C   0  0  0  0  0  0  0  0  0  0  0  0
    8.7944   -5.7445    0.7083 C   0  0  0  0  0  0  0  0  0  0  0  0
    8.9546   -6.2094   -0.5769 C   0  0  0  0  0  0  0  0  0  0  0  0
    7.5179   -7.0225   -1.1952 S   0  0  0  0  0  0  0  0  0  0  0  0
   10.0881   -6.0517   -1.4185 C   0  0  0  0  0  0  0  0  0  0  0  0
   11.5340   -5.2600   -0.7934 S   0  0  0  0  0  0  0  0  0  0  0  0
   12.2926   -5.4086   -2.3356 C   0  0  0  0  0  0  0  0  0  0  0  0
   13.4772   -5.0997   -3.0110 C   0  0  0  0  0  0  0  0  0  0  0  0
   13.3182   -5.5547   -4.3320 C   0  0  0  0  0  0  0  0  0  0  0  0
   12.0765   -6.1138   -4.4849 N   0  0  0  0  0  0  0  0  0  0  0  0
   11.5672   -6.7586   -5.6660 C   0  0  0  0  0  0  0  0  0  0  0  0
   11.9111   -8.2469   -5.6884 C   0  0  0  0  0  0  0  0  0  0  0  0
   11.4506   -6.0443   -3.2678 C   0  0  0  0  0  0  0  0  0  0  0  0
   10.2052   -6.4099   -2.7412 C   0  0  0  0  0  0  0  0  0  0  0  0
   14.4429   -5.3054   -5.1434 C   0  0  0  0  0  0  0  0  0  0  0  0
   15.4214   -4.6766   -4.4394 C   0  0  0  0  0  0  0  0  0  0  0  0
   15.0216   -4.3638   -2.7796 S   0  0  0  0  0  0  0  0  0  0  0  0
   -2.6847   15.7153   -7.0921 H   0  0  0  0  0  0  0  0  0  0  0  0
   -4.9681    9.8863   -8.3667 H   0  0  0  0  0  0  0  0  0  0  0  0
   -4.3866   11.3731   -9.1423 H   0  0  0  0  0  0  0  0  0  0  0  0
   -2.6064    9.2326   -7.8633 H   0  0  0  0  0  0  0  0  0  0  0  0
   -2.8396    9.4671   -9.6008 H   0  0  0  0  0  0  0  0  0  0  0  0
   -2.0294   10.7095   -8.6382 H   0  0  0  0  0  0  0  0  0  0  0  0
   -3.2188   13.7078   -8.6698 H   0  0  0  0  0  0  0  0  0  0  0  0
   -5.1037    8.6321   -6.0448 H   0  0  0  0  0  0  0  0  0  0  0  0
   -6.3801    2.9788   -3.1553 H   0  0  0  0  0  0  0  0  0  0  0  0
   -6.1783    4.2577   -4.3698 H   0  0  0  0  0  0  0  0  0  0  0  0
   -8.4878    3.3132   -4.4495 H   0  0  0  0  0  0  0  0  0  0  0  0
   -8.7259    3.7374   -2.7498 H   0  0  0  0  0  0  0  0  0  0  0  0
   -8.5281    5.0112   -3.9562 H   0  0  0  0  0  0  0  0  0  0  0  0
   -5.9111    6.8381   -4.6880 H   0  0  0  0  0  0  0  0  0  0  0  0
   -6.6234    2.5169   -0.5885 H   0  0  0  0  0  0  0  0  0  0  0  0
   -3.3849    3.1892    5.4734 H   0  0  0  0  0  0  0  0  0  0  0  0
   -4.8888    3.9409    6.0141 H   0  0  0  0  0  0  0  0  0  0  0  0
   -3.1170    3.7943    7.8028 H   0  0  0  0  0  0  0  0  0  0  0  0
   -3.2202    2.0336    7.7138 H   0  0  0  0  0  0  0  0  0  0  0  0
   -4.6079    2.9796    8.2661 H   0  0  0  0  0  0  0  0  0  0  0  0
   -5.9391    1.2757    7.5051 H   0  0  0  0  0  0  0  0  0  0  0  0
   -6.7039    0.5845    6.0767 H   0  0  0  0  0  0  0  0  0  0  0  0
   -7.5945    2.8660    5.4769 H   0  0  0  0  0  0  0  0  0  0  0  0
   -8.1983    2.2632    7.0207 H   0  0  0  0  0  0  0  0  0  0  0  0
   -6.9384    3.4930    6.9916 H   0  0  0  0  0  0  0  0  0  0  0  0
   -5.5214    4.1338    3.8140 H   0  0  0  0  0  0  0  0  0  0  0  0
   -2.8534   -1.7243    6.0079 H   0  0  0  0  0  0  0  0  0  0  0  0
   -3.5725   -6.0901    0.5476 H   0  0  0  0  0  0  0  0  0  0  0  0
   -4.7936   -6.7857    1.6210 H   0  0  0  0  0  0  0  0  0  0  0  0
   -2.9283   -8.4206   -0.1547 H   0  0  0  0  0  0  0  0  0  0  0  0
   -4.2818   -9.0505    0.7963 H   0  0  0  0  0  0  0  0  0  0  0  0
   -4.5875   -7.9864   -0.5735 H   0  0  0  0  0  0  0  0  0  0  0  0
   -4.1397   -8.4296    3.2323 H   0  0  0  0  0  0  0  0  0  0  0  0
   -2.8247   -7.8945    4.2716 H   0  0  0  0  0  0  0  0  0  0  0  0
   -1.2332   -9.3789    3.1581 H   0  0  0  0  0  0  0  0  0  0  0  0
   -2.6498  -10.3001    3.6576 H   0  0  0  0  0  0  0  0  0  0  0  0
   -2.4349   -9.8522    1.9620 H   0  0  0  0  0  0  0  0  0  0  0  0
   -4.6634   -4.8430    2.8342 H   0  0  0  0  0  0  0  0  0  0  0  0
    1.0480   -7.9294    0.8311 H   0  0  0  0  0  0  0  0  0  0  0  0
    8.0847   -4.3770    3.2244 H   0  0  0  0  0  0  0  0  0  0  0  0
    6.4894   -4.5309    3.9891 H   0  0  0  0  0  0  0  0  0  0  0  0
    8.6877   -6.6646    4.0328 H   0  0  0  0  0  0  0  0  0  0  0  0
    8.2532   -5.6124    5.3854 H   0  0  0  0  0  0  0  0  0  0  0  0
    7.1017   -6.8170    4.7949 H   0  0  0  0  0  0  0  0  0  0  0  0
    4.1615   -5.7341    3.8139 H   0  0  0  0  0  0  0  0  0  0  0  0
    9.5739   -5.2250    1.2357 H   0  0  0  0  0  0  0  0  0  0  0  0
   11.9963   -6.2602   -6.5396 H   0  0  0  0  0  0  0  0  0  0  0  0
   10.4820   -6.6246   -5.6878 H   0  0  0  0  0  0  0  0  0  0  0  0
   11.4811   -8.7446   -4.8224 H   0  0  0  0  0  0  0  0  0  0  0  0
   12.9897   -8.3845   -5.6663 H   0  0  0  0  0  0  0  0  0  0  0  0
   11.5167   -8.7082   -6.5897 H   0  0  0  0  0  0  0  0  0  0  0  0
    9.4147   -6.9012   -3.2793 H   0  0  0  0  0  0  0  0  0  0  0  0
   14.5317   -5.5718   -6.1810 H   0  0  0  0  0  0  0  0  0  0  0  0
   16.3835   -4.3659   -4.7951 H   0  0  0  0  0  0  0  0  0  0  0  0
  1  2  1  0  0  0  0
  2  3  1  0  0  0  0
  3  4  1  0  0  0  0
  4  5  2  0  0  0  0
  5  6  1  0  0  0  0
  6  7  1  0  0  0  0
  7  8  1  0  0  0  0
  6  9  1  0  0  0  0
  9 10  1  0  0  0  0
  5 11  1  0  0  0  0
 11 12  2  0  0  0  0
 12 13  1  0  0  0  0
 12 14  1  0  0  0  0
 14 15  1  0  0  0  0
 15 16  1  0  0  0  0
 16 17  1  0  0  0  0
 17 18  2  0  0  0  0
 18 19  1  0  0  0  0
 19 20  1  0  0  0  0
 20 21  1  0  0  0  0
 19 22  1  0  0  0  0
 22 23  1  0  0  0  0
 18 24  1  0  0  0  0
 24 25  2  0  0  0  0
 25 26  1  0  0  0  0
 25 27  1  0  0  0  0
 27 28  1  0  0  0  0
 28 29  1  0  0  0  0
 29 30  1  0  0  0  0
 30 31  2  0  0  0  0
 31 32  1  0  0  0  0
 32 33  1  0  0  0  0
 33 34  1  0  0  0  0
 34 35  1  0  0  0  0
 33 36  1  0  0  0  0
 36 37  1  0  0  0  0
 33 38  1  0  0  0  0
 38 39  1  0  0  0  0
 31 40  1  0  0  0  0
 40 41  2  0  0  0  0
 41 42  1  0  0  0  0
 41 43  1  0  0  0  0
 43 44  1  0  0  0  0
 44 45  1  0  0  0  0
 45 46  1  0  0  0  0
 46 47  2  0  0  0  0
 47 48  1  0  0  0  0
 48 49  1  0  0  0  0
 49 50  1  0  0  0  0
 50 51  1  0  0  0  0
 49 52  1  0  0  0  0
 52 53  1  0  0  0  0
 49 54  1  0  0  0  0
 54 55  1  0  0  0  0
 47 56  1  0  0  0  0
 56 57  2  0  0  0  0
 57 58  1  0  0  0  0
 57 59  1  0  0  0  0
 59 60  1  0  0  0  0
 60 61  1  0  0  0  0
 61 62  1  0  0  0  0
 62 63  2  0  0  0  0
 63 64  1  0  0  0  0
 64 65  1  0  0  0  0
 65 66  1  0  0  0  0
 64 67  1  0  0  0  0
 67 68  1  0  0  0  0
 63 69  1  0  0  0  0
 69 70  2  0  0  0  0
 70 71  1  0  0  0  0
 70 72  1  0  0  0  0
 72 73  1  0  0  0  0
 73 74  1  0  0  0  0
 74 75  1  0  0  0  0
 75 76  2  0  0  0  0
 76 77  1  0  0  0  0
 77 78  1  0  0  0  0
 78 79  1  0  0  0  0
 77 80  1  0  0  0  0
 80 81  1  0  0  0  0
 76 82  1  0  0  0  0
 82 83  2  0  0  0  0
 83 84  1  0  0  0  0
 10  1  2  0  0  0  0
 23 14  2  0  0  0  0
 39 27  2  0  0  0  0
 55 43  2  0  0  0  0
 68 59  2  0  0  0  0
 81 72  2  0  0  0  0
  9  3  2  0  0  0  0
 22 16  2  0  0  0  0
 38 29  2  0  0  0  0
 54 45  2  0  0  0  0
 67 61  2  0  0  0  0
 80 74  2  0  0  0  0
 13  4  1  0  0  0  0
 26 17  1  0  0  0  0
 42 30  1  0  0  0  0
 58 46  1  0  0  0  0
 71 62  1  0  0  0  0
 84 75  1  0  0  0  0
  1 85  1  0  0  0  0
  7 86  1  0  0  0  0
  7 87  1  0  0  0  0
  8 88  1  0  0  0  0
  8 89  1  0  0  0  0
  8 90  1  0  0  0  0
 10 91  1  0  0  0  0
 11 92  1  0  0  0  0
 20 93  1  0  0  0  0
 20 94  1  0  0  0  0
 21 95  1  0  0  0  0
 21 96  1  0  0  0  0
 21 97  1  0  0  0  0
 23 98  1  0  0  0  0
 24 99  1  0  0  0  0
 34100  1  0  0  0  0
 34101  1  0  0  0  0
 35102  1  0  0  0  0
 35103  1  0  0  0  0
 35104  1  0  0  0  0
 36105  1  0  0  0  0
 36106  1  0  0  0  0
 37107  1  0  0  0  0
 37108  1  0  0  0  0
 37109  1  0  0  0  0
 39110  1  0  0  0  0
 40111  1  0  0  0  0
 50112  1  0  0  0  0
 50113  1  0  0  0  0
 51114  1  0  0  0  0
 51115  1  0  0  0  0
 51116  1  0  0  0  0
 52117  1  0  0  0  0
 52118  1  0  0  0  0
 53119  1  0  0  0  0
 53120  1  0  0  0  0
 53121  1  0  0  0  0
 55122  1  0  0  0  0
 56123  1  0  0  0  0
 65124  1  0  0  0  0
 65125  1  0  0  0  0
 66126  1  0  0  0  0
 66127  1  0  0  0  0
 66128  1  0  0  0  0
 68129  1  0  0  0  0
 69130  1  0  0  0  0
 78131  1  0  0  0  0
 78132  1  0  0  0  0
 79133  1  0  0  0  0
 79134  1  0  0  0  0
 79135  1  0  0  0  0
 81136  1  0  0  0  0
 82137  1  0  0  0  0
 83138  1  0  0  0  0
M  END
