
  xtb     03012202143D
 energy: -428.044286717286 gnorm: 0.000470051721 xtb: 6.4.1 (unknown)
226251  0     0  0            999 V2000
   -0.4873    5.6967    9.7285 C   0  0  0  0  0  0  0  0  0  0  0  0
   -1.4926    4.3991    9.2088 S   0  0  0  0  0  0  0  0  0  0  0  0
   -0.1469    3.6581    8.4162 C   0  0  0  0  0  0  0  0  0  0  0  0
   -0.1081    2.4439    7.6838 C   0  0  0  0  0  0  0  0  0  0  0  0
    1.1287    1.9363    7.3107 C   0  0  0  0  0  0  0  0  0  0  0  0
    2.2979    2.5210    7.6494 O   0  0  0  0  0  0  0  0  0  0  0  0
    2.2839    3.9448    7.8843 C   0  0  0  0  0  0  0  0  0  0  0  0
    3.5190    4.2252    8.7489 C   0  0  0  0  0  0  0  0  0  0  0  0
    3.3982    3.6160   10.1409 C   0  0  0  0  0  0  0  0  0  0  0  0
    2.3525    4.6682    6.5171 C   0  0  0  0  0  0  0  0  0  0  0  0
    3.5671    4.2831    5.6812 C   0  0  0  0  0  0  0  0  0  0  0  0
    1.0125    4.3871    8.5681 C   0  0  0  0  0  0  0  0  0  0  0  0
    0.8025    5.5622    9.3170 C   0  0  0  0  0  0  0  0  0  0  0  0
    1.0314    0.7398    6.5881 C   0  0  0  0  0  0  0  0  0  0  0  0
   -0.2754    0.3453    6.3877 C   0  0  0  0  0  0  0  0  0  0  0  0
   -1.4011    1.4528    7.1228 S   0  0  0  0  0  0  0  0  0  0  0  0
   -0.7477   -0.7392    5.5952 C   0  0  0  0  0  0  0  0  0  0  0  0
   -0.0053   -1.6827    4.9398 C   0  0  0  0  0  0  0  0  0  0  0  0
   -0.7701   -2.5288    4.1023 C   0  0  0  0  0  0  0  0  0  0  0  0
   -0.3161   -3.5458    3.2372 C   0  0  0  0  0  0  0  0  0  0  0  0
    1.0947   -3.8739    3.1323 C   0  0  0  0  0  0  0  0  0  0  0  0
    2.3092   -2.6434    2.9154 S   0  0  0  0  0  0  0  0  0  0  0  0
    3.5950   -3.7985    2.9054 C   0  0  0  0  0  0  0  0  0  0  0  0
    5.0178   -3.3651    2.8747 C   0  0  0  0  0  0  0  0  0  0  0  0
    5.5305   -3.1526    4.3017 C   0  0  0  0  0  0  0  0  0  0  0  0
    3.0995   -5.0592    3.0530 C   0  0  0  0  0  0  0  0  0  0  0  0
    4.0784   -6.4670    3.1016 Cl  0  0  0  0  0  0  0  0  0  0  0  0
    1.6847   -5.1079    3.1729 C   0  0  0  0  0  0  0  0  0  0  0  0
    0.8424   -6.5737    3.4480 Cl  0  0  0  0  0  0  0  0  0  0  0  0
   -1.2731   -4.1797    2.4519 C   0  0  0  0  0  0  0  0  0  0  0  0
   -2.6512   -3.8660    2.5324 C   0  0  0  0  0  0  0  0  0  0  0  0
   -3.1077   -2.8603    3.4010 C   0  0  0  0  0  0  0  0  0  0  0  0
   -4.5046   -2.4521    3.3619 C   0  0  0  0  0  0  0  0  0  0  0  0
   -5.7978   -3.5769    3.6495 S   0  0  0  0  0  0  0  0  0  0  0  0
   -7.0102   -2.4026    3.2665 C   0  0  0  0  0  0  0  0  0  0  0  0
   -8.4527   -2.7678    3.2290 C   0  0  0  0  0  0  0  0  0  0  0  0
   -8.8265   -3.3365    1.8571 C   0  0  0  0  0  0  0  0  0  0  0  0
   -6.4306   -1.2132    2.9405 C   0  0  0  0  0  0  0  0  0  0  0  0
   -5.0111   -1.2359    2.9979 C   0  0  0  0  0  0  0  0  0  0  0  0
   -4.0497    0.1112    2.5570 Cl  0  0  0  0  0  0  0  0  0  0  0  0
   -7.3117    0.1852    2.4819 Cl  0  0  0  0  0  0  0  0  0  0  0  0
   -2.1519   -2.2109    4.1635 C   0  0  0  0  0  0  0  0  0  0  0  0
   -2.4586   -0.8986    5.2605 S   0  0  0  0  0  0  0  0  0  0  0  0
   -3.4047   -4.5104    1.5274 C   0  0  0  0  0  0  0  0  0  0  0  0
   -2.6514   -5.2490    0.6623 C   0  0  0  0  0  0  0  0  0  0  0  0
   -0.9617   -5.2780    1.1294 S   0  0  0  0  0  0  0  0  0  0  0  0
   -3.1055   -5.6776   -0.6198 C   0  0  0  0  0  0  0  0  0  0  0  0
   -2.3705   -5.9825   -1.7288 C   0  0  0  0  0  0  0  0  0  0  0  0
   -3.1013   -5.8607   -2.9391 C   0  0  0  0  0  0  0  0  0  0  0  0
   -2.5927   -5.8582   -4.2531 C   0  0  0  0  0  0  0  0  0  0  0  0
   -1.2221   -6.2612   -4.5126 C   0  0  0  0  0  0  0  0  0  0  0  0
   -0.1195   -5.2427   -5.3930 S   0  0  0  0  0  0  0  0  0  0  0  0
    1.1898   -6.3604   -5.1996 C   0  0  0  0  0  0  0  0  0  0  0  0
    2.5308   -6.0718   -5.7801 C   0  0  0  0  0  0  0  0  0  0  0  0
    2.4537   -5.8560   -7.2914 C   0  0  0  0  0  0  0  0  0  0  0  0
    0.7793   -7.4549   -4.4990 C   0  0  0  0  0  0  0  0  0  0  0  0
    1.7893   -8.7886   -4.1150 Cl  0  0  0  0  0  0  0  0  0  0  0  0
   -0.5838   -7.3976   -4.0994 C   0  0  0  0  0  0  0  0  0  0  0  0
   -1.3506   -8.6700   -3.2415 Cl  0  0  0  0  0  0  0  0  0  0  0  0
   -3.4054   -5.3092   -5.2357 C   0  0  0  0  0  0  0  0  0  0  0  0
   -4.7075   -4.8142   -4.9784 C   0  0  0  0  0  0  0  0  0  0  0  0
   -5.2531   -4.9137   -3.6887 C   0  0  0  0  0  0  0  0  0  0  0  0
   -6.5192   -4.2678   -3.3618 C   0  0  0  0  0  0  0  0  0  0  0  0
   -8.0263   -4.7703   -4.0615 S   0  0  0  0  0  0  0  0  0  0  0  0
   -8.9099   -3.5259   -3.2441 C   0  0  0  0  0  0  0  0  0  0  0  0
  -10.3901   -3.4167   -3.3595 C   0  0  0  0  0  0  0  0  0  0  0  0
  -11.0807   -4.2028   -2.2422 C   0  0  0  0  0  0  0  0  0  0  0  0
   -8.0701   -2.7748   -2.4780 C   0  0  0  0  0  0  0  0  0  0  0  0
   -6.7125   -3.1867   -2.5466 C   0  0  0  0  0  0  0  0  0  0  0  0
   -5.4607   -2.3420   -1.7337 Cl  0  0  0  0  0  0  0  0  0  0  0  0
   -8.5761   -1.4376   -1.5303 Cl  0  0  0  0  0  0  0  0  0  0  0  0
   -4.4348   -5.4414   -2.7033 C   0  0  0  0  0  0  0  0  0  0  0  0
   -4.7985   -5.4104   -1.0044 S   0  0  0  0  0  0  0  0  0  0  0  0
   -5.1802   -3.9803   -6.0213 C   0  0  0  0  0  0  0  0  0  0  0  0
   -4.2659   -3.7902   -7.0183 C   0  0  0  0  0  0  0  0  0  0  0  0
   -2.8770   -4.8602   -6.8373 S   0  0  0  0  0  0  0  0  0  0  0  0
   -4.0934   -2.5760   -7.7488 C   0  0  0  0  0  0  0  0  0  0  0  0
   -2.8806   -2.1084   -8.1724 C   0  0  0  0  0  0  0  0  0  0  0  0
   -2.7561   -0.7019   -8.0763 C   0  0  0  0  0  0  0  0  0  0  0  0
   -1.5470    0.0178   -8.0603 C   0  0  0  0  0  0  0  0  0  0  0  0
   -0.3176   -0.6353   -8.4715 C   0  0  0  0  0  0  0  0  0  0  0  0
    1.0688   -0.7093   -7.4234 S   0  0  0  0  0  0  0  0  0  0  0  0
    1.9472   -1.7113   -8.5287 C   0  0  0  0  0  0  0  0  0  0  0  0
    3.3298   -2.1658   -8.2130 C   0  0  0  0  0  0  0  0  0  0  0  0
    4.2747   -0.9834   -8.0010 C   0  0  0  0  0  0  0  0  0  0  0  0
    1.2017   -1.9572   -9.6431 C   0  0  0  0  0  0  0  0  0  0  0  0
    1.7345   -2.9099  -10.9682 Cl  0  0  0  0  0  0  0  0  0  0  0  0
   -0.0863   -1.3583   -9.6095 C   0  0  0  0  0  0  0  0  0  0  0  0
   -1.2060   -1.4929  -10.9022 Cl  0  0  0  0  0  0  0  0  0  0  0  0
   -1.5742    1.2586   -7.4404 C   0  0  0  0  0  0  0  0  0  0  0  0
   -2.7524    1.8381   -6.9074 C   0  0  0  0  0  0  0  0  0  0  0  0
   -3.9816    1.1662   -7.0404 C   0  0  0  0  0  0  0  0  0  0  0  0
   -5.1950    1.6797   -6.4138 C   0  0  0  0  0  0  0  0  0  0  0  0
   -5.9702    3.1300   -6.9720 S   0  0  0  0  0  0  0  0  0  0  0  0
   -7.2267    3.0069   -5.7854 C   0  0  0  0  0  0  0  0  0  0  0  0
   -8.3491    3.9842   -5.7447 C   0  0  0  0  0  0  0  0  0  0  0  0
   -9.4582    3.5826   -6.7199 C   0  0  0  0  0  0  0  0  0  0  0  0
   -7.0397    1.9012   -5.0118 C   0  0  0  0  0  0  0  0  0  0  0  0
   -5.8824    1.1516   -5.3577 C   0  0  0  0  0  0  0  0  0  0  0  0
   -5.3847   -0.2267   -4.4644 Cl  0  0  0  0  0  0  0  0  0  0  0  0
   -8.0791    1.4350   -3.7291 Cl  0  0  0  0  0  0  0  0  0  0  0  0
   -3.9485   -0.0981   -7.6053 C   0  0  0  0  0  0  0  0  0  0  0  0
   -5.2452   -1.2653   -7.5120 S   0  0  0  0  0  0  0  0  0  0  0  0
   -2.4677    2.9205   -6.0350 C   0  0  0  0  0  0  0  0  0  0  0  0
   -1.1287    3.1399   -5.8682 C   0  0  0  0  0  0  0  0  0  0  0  0
   -0.1645    2.1571   -6.9598 S   0  0  0  0  0  0  0  0  0  0  0  0
   -0.4578    3.7594   -4.7711 C   0  0  0  0  0  0  0  0  0  0  0  0
    1.1117    3.1132   -4.3607 S   0  0  0  0  0  0  0  0  0  0  0  0
    1.0381    3.8731   -2.8203 C   0  0  0  0  0  0  0  0  0  0  0  0
    1.9256    3.6819   -1.7408 C   0  0  0  0  0  0  0  0  0  0  0  0
    1.7431    4.4151   -0.5781 C   0  0  0  0  0  0  0  0  0  0  0  0
    0.8317    5.4068   -0.5026 O   0  0  0  0  0  0  0  0  0  0  0  0
   -0.3699    5.2878   -1.3083 C   0  0  0  0  0  0  0  0  0  0  0  0
   -1.3329    4.3892   -0.4965 C   0  0  0  0  0  0  0  0  0  0  0  0
   -2.7272    4.2144   -1.0795 C   0  0  0  0  0  0  0  0  0  0  0  0
   -0.8682    6.7284   -1.5020 C   0  0  0  0  0  0  0  0  0  0  0  0
   -1.1733    7.4533   -0.1969 C   0  0  0  0  0  0  0  0  0  0  0  0
   -0.0977    4.6451   -2.6527 C   0  0  0  0  0  0  0  0  0  0  0  0
   -0.9411    4.5790   -3.7714 C   0  0  0  0  0  0  0  0  0  0  0  0
    2.6175    4.0226    0.4499 C   0  0  0  0  0  0  0  0  0  0  0  0
    3.4365    2.9792    0.0775 C   0  0  0  0  0  0  0  0  0  0  0  0
    3.1566    2.4931   -1.5764 S   0  0  0  0  0  0  0  0  0  0  0  0
    4.3846    2.2195    0.8192 C   0  0  0  0  0  0  0  0  0  0  0  0
    5.0579    1.1368    0.3298 C   0  0  0  0  0  0  0  0  0  0  0  0
    5.9221    0.5278    1.2644 C   0  0  0  0  0  0  0  0  0  0  0  0
    6.7247   -0.6076    1.0659 C   0  0  0  0  0  0  0  0  0  0  0  0
    6.6213   -1.3697   -0.1686 C   0  0  0  0  0  0  0  0  0  0  0  0
    5.0690   -1.9631   -0.6925 S   0  0  0  0  0  0  0  0  0  0  0  0
    5.7373   -2.6869   -2.1146 C   0  0  0  0  0  0  0  0  0  0  0  0
    4.8596   -3.3534   -3.1165 C   0  0  0  0  0  0  0  0  0  0  0  0
    4.2038   -2.3199   -4.0368 C   0  0  0  0  0  0  0  0  0  0  0  0
    7.0823   -2.4752   -2.1646 C   0  0  0  0  0  0  0  0  0  0  0  0
    8.0913   -3.0325   -3.4354 Cl  0  0  0  0  0  0  0  0  0  0  0  0
    7.5893   -1.7377   -1.0589 C   0  0  0  0  0  0  0  0  0  0  0  0
    9.2390   -1.2957   -0.9245 Cl  0  0  0  0  0  0  0  0  0  0  0  0
    7.5525   -0.9805    2.1166 C   0  0  0  0  0  0  0  0  0  0  0  0
    7.5531   -0.3041    3.3597 C   0  0  0  0  0  0  0  0  0  0  0  0
    6.6983    0.7900    3.5766 C   0  0  0  0  0  0  0  0  0  0  0  0
    6.6339    1.4181    4.8887 C   0  0  0  0  0  0  0  0  0  0  0  0
    6.2075    0.4774    6.2873 S   0  0  0  0  0  0  0  0  0  0  0  0
    6.4135    1.8246    7.3548 C   0  0  0  0  0  0  0  0  0  0  0  0
    6.2291    1.6667    8.8234 C   0  0  0  0  0  0  0  0  0  0  0  0
    7.2190    0.6585    9.4077 C   0  0  0  0  0  0  0  0  0  0  0  0
    6.7776    2.9313    6.6488 C   0  0  0  0  0  0  0  0  0  0  0  0
    6.8914    2.7088    5.2482 C   0  0  0  0  0  0  0  0  0  0  0  0
    7.3731    3.9329    4.1502 Cl  0  0  0  0  0  0  0  0  0  0  0  0
    7.0977    4.4643    7.3577 Cl  0  0  0  0  0  0  0  0  0  0  0  0
    5.9158    1.2050    2.5088 C   0  0  0  0  0  0  0  0  0  0  0  0
    4.7929    2.5417    2.4925 S   0  0  0  0  0  0  0  0  0  0  0  0
    8.4861   -0.8851    4.2683 C   0  0  0  0  0  0  0  0  0  0  0  0
    9.1290   -1.9514    3.7488 C   0  0  0  0  0  0  0  0  0  0  0  0
    8.6533   -2.3276    2.1287 S   0  0  0  0  0  0  0  0  0  0  0  0
   -0.9169    6.4879   10.3092 H   0  0  0  0  0  0  0  0  0  0  0  0
    3.6641    5.3033    8.8185 H   0  0  0  0  0  0  0  0  0  0  0  0
    4.3799    3.7940    8.2415 H   0  0  0  0  0  0  0  0  0  0  0  0
    4.3207    3.7645   10.6967 H   0  0  0  0  0  0  0  0  0  0  0  0
    2.5833    4.0718   10.6982 H   0  0  0  0  0  0  0  0  0  0  0  0
    3.2047    2.5489   10.0641 H   0  0  0  0  0  0  0  0  0  0  0  0
    1.4427    4.4094    5.9676 H   0  0  0  0  0  0  0  0  0  0  0  0
    2.3395    5.7446    6.6953 H   0  0  0  0  0  0  0  0  0  0  0  0
    4.4779    4.6971    6.1020 H   0  0  0  0  0  0  0  0  0  0  0  0
    3.6634    3.2010    5.6316 H   0  0  0  0  0  0  0  0  0  0  0  0
    3.4585    4.6626    4.6683 H   0  0  0  0  0  0  0  0  0  0  0  0
    1.5690    6.2815    9.5408 H   0  0  0  0  0  0  0  0  0  0  0  0
    1.8838    0.2055    6.2134 H   0  0  0  0  0  0  0  0  0  0  0  0
    1.0604   -1.7535    5.0433 H   0  0  0  0  0  0  0  0  0  0  0  0
    5.1026   -2.4357    2.3103 H   0  0  0  0  0  0  0  0  0  0  0  0
    5.6157   -4.1333    2.3810 H   0  0  0  0  0  0  0  0  0  0  0  0
    6.5864   -2.9026    4.2926 H   0  0  0  0  0  0  0  0  0  0  0  0
    4.9888   -2.3417    4.7833 H   0  0  0  0  0  0  0  0  0  0  0  0
    5.3957   -4.0589    4.8864 H   0  0  0  0  0  0  0  0  0  0  0  0
   -9.0481   -1.8749    3.4290 H   0  0  0  0  0  0  0  0  0  0  0  0
   -8.6614   -3.5100    4.0012 H   0  0  0  0  0  0  0  0  0  0  0  0
   -8.6326   -2.6018    1.0802 H   0  0  0  0  0  0  0  0  0  0  0  0
   -8.2415   -4.2284    1.6440 H   0  0  0  0  0  0  0  0  0  0  0  0
   -9.8815   -3.5969    1.8360 H   0  0  0  0  0  0  0  0  0  0  0  0
   -4.4609   -4.3652    1.3921 H   0  0  0  0  0  0  0  0  0  0  0  0
   -1.3133   -6.1735   -1.6867 H   0  0  0  0  0  0  0  0  0  0  0  0
    3.1910   -6.9105   -5.5540 H   0  0  0  0  0  0  0  0  0  0  0  0
    2.9434   -5.1764   -5.3068 H   0  0  0  0  0  0  0  0  0  0  0  0
    1.7939   -5.0227   -7.5226 H   0  0  0  0  0  0  0  0  0  0  0  0
    2.0674   -6.7466   -7.7800 H   0  0  0  0  0  0  0  0  0  0  0  0
    3.4417   -5.6430   -7.6908 H   0  0  0  0  0  0  0  0  0  0  0  0
  -10.6713   -2.3637   -3.2898 H   0  0  0  0  0  0  0  0  0  0  0  0
  -10.7084   -3.8013   -4.3295 H   0  0  0  0  0  0  0  0  0  0  0  0
  -10.8135   -5.2552   -2.3004 H   0  0  0  0  0  0  0  0  0  0  0  0
  -12.1596   -4.1106   -2.3327 H   0  0  0  0  0  0  0  0  0  0  0  0
  -10.7766   -3.8203   -1.2712 H   0  0  0  0  0  0  0  0  0  0  0  0
   -6.0949   -3.4184   -5.9544 H   0  0  0  0  0  0  0  0  0  0  0  0
   -2.0478   -2.7608   -8.3645 H   0  0  0  0  0  0  0  0  0  0  0  0
    3.3109   -2.7739   -7.3053 H   0  0  0  0  0  0  0  0  0  0  0  0
    3.6839   -2.7878   -9.0363 H   0  0  0  0  0  0  0  0  0  0  0  0
    5.2745   -1.3411   -7.7700 H   0  0  0  0  0  0  0  0  0  0  0  0
    4.3233   -0.3719   -8.8983 H   0  0  0  0  0  0  0  0  0  0  0  0
    3.9237   -0.3650   -7.1782 H   0  0  0  0  0  0  0  0  0  0  0  0
   -7.9771    4.9762   -6.0062 H   0  0  0  0  0  0  0  0  0  0  0  0
   -8.7489    4.0151   -4.7294 H   0  0  0  0  0  0  0  0  0  0  0  0
   -9.8457    2.5997   -6.4644 H   0  0  0  0  0  0  0  0  0  0  0  0
   -9.0734    3.5513   -7.7365 H   0  0  0  0  0  0  0  0  0  0  0  0
  -10.2722    4.3011   -6.6761 H   0  0  0  0  0  0  0  0  0  0  0  0
   -3.2256    3.4233   -5.4619 H   0  0  0  0  0  0  0  0  0  0  0  0
   -0.8575    3.4076   -0.4062 H   0  0  0  0  0  0  0  0  0  0  0  0
   -1.4007    4.8109    0.5075 H   0  0  0  0  0  0  0  0  0  0  0  0
   -3.2352    5.1694   -1.1823 H   0  0  0  0  0  0  0  0  0  0  0  0
   -3.3168    3.5861   -0.4160 H   0  0  0  0  0  0  0  0  0  0  0  0
   -2.6849    3.7296   -2.0517 H   0  0  0  0  0  0  0  0  0  0  0  0
   -1.7538    6.7122   -2.1365 H   0  0  0  0  0  0  0  0  0  0  0  0
   -0.0826    7.2683   -2.0356 H   0  0  0  0  0  0  0  0  0  0  0  0
   -0.3218    7.3863    0.4740 H   0  0  0  0  0  0  0  0  0  0  0  0
   -1.3747    8.5024   -0.3999 H   0  0  0  0  0  0  0  0  0  0  0  0
   -2.0439    7.0288    0.2957 H   0  0  0  0  0  0  0  0  0  0  0  0
   -1.8829    5.0891   -3.8559 H   0  0  0  0  0  0  0  0  0  0  0  0
    2.6358    4.4682    1.4274 H   0  0  0  0  0  0  0  0  0  0  0  0
    4.9417    0.7962   -0.6828 H   0  0  0  0  0  0  0  0  0  0  0  0
    4.0843   -3.9203   -2.5973 H   0  0  0  0  0  0  0  0  0  0  0  0
    5.4641   -4.0441   -3.7071 H   0  0  0  0  0  0  0  0  0  0  0  0
    3.6216   -1.6100   -3.4543 H   0  0  0  0  0  0  0  0  0  0  0  0
    4.9616   -1.7745   -4.5931 H   0  0  0  0  0  0  0  0  0  0  0  0
    3.5381   -2.8107   -4.7421 H   0  0  0  0  0  0  0  0  0  0  0  0
    6.3695    2.6394    9.2965 H   0  0  0  0  0  0  0  0  0  0  0  0
    5.2099    1.3281    9.0232 H   0  0  0  0  0  0  0  0  0  0  0  0
    7.0813   -0.3173    8.9476 H   0  0  0  0  0  0  0  0  0  0  0  0
    7.0645    0.5636   10.4791 H   0  0  0  0  0  0  0  0  0  0  0  0
    8.2414    0.9849    9.2323 H   0  0  0  0  0  0  0  0  0  0  0  0
    8.6644   -0.5074    5.2581 H   0  0  0  0  0  0  0  0  0  0  0  0
    9.8772   -2.5607    4.2169 H   0  0  0  0  0  0  0  0  0  0  0  0
  1  2  1  0  0  0  0
  2  3  1  0  0  0  0
  3  4  1  0  0  0  0
  4  5  2  0  0  0  0
  5  6  1  0  0  0  0
  6  7  1  0  0  0  0
  7  8  1  0  0  0  0
  8  9  1  0  0  0  0
  7 10  1  0  0  0  0
 10 11  1  0  0  0  0
  7 12  1  0  0  0  0
 12 13  1  0  0  0  0
  5 14  1  0  0  0  0
 14 15  2  0  0  0  0
 15 16  1  0  0  0  0
 15 17  1  0  0  0  0
 17 18  2  0  0  0  0
 18 19  1  0  0  0  0
 19 20  2  0  0  0  0
 20 21  1  0  0  0  0
 21 22  1  0  0  0  0
 22 23  1  0  0  0  0
 23 24  1  0  0  0  0
 24 25  1  0  0  0  0
 23 26  2  0  0  0  0
 26 27  1  0  0  0  0
 26 28  1  0  0  0  0
 28 29  1  0  0  0  0
 20 30  1  0  0  0  0
 30 31  2  0  0  0  0
 31 32  1  0  0  0  0
 32 33  1  0  0  0  0
 33 34  1  0  0  0  0
 34 35  1  0  0  0  0
 35 36  1  0  0  0  0
 36 37  1  0  0  0  0
 35 38  2  0  0  0  0
 38 39  1  0  0  0  0
 39 40  1  0  0  0  0
 38 41  1  0  0  0  0
 32 42  2  0  0  0  0
 42 43  1  0  0  0  0
 31 44  1  0  0  0  0
 44 45  2  0  0  0  0
 45 46  1  0  0  0  0
 45 47  1  0  0  0  0
 47 48  2  0  0  0  0
 48 49  1  0  0  0  0
 49 50  2  0  0  0  0
 50 51  1  0  0  0  0
 51 52  1  0  0  0  0
 52 53  1  0  0  0  0
 53 54  1  0  0  0  0
 54 55  1  0  0  0  0
 53 56  2  0  0  0  0
 56 57  1  0  0  0  0
 56 58  1  0  0  0  0
 58 59  1  0  0  0  0
 50 60  1  0  0  0  0
 60 61  2  0  0  0  0
 61 62  1  0  0  0  0
 62 63  1  0  0  0  0
 63 64  1  0  0  0  0
 64 65  1  0  0  0  0
 65 66  1  0  0  0  0
 66 67  1  0  0  0  0
 65 68  2  0  0  0  0
 68 69  1  0  0  0  0
 69 70  1  0  0  0  0
 68 71  1  0  0  0  0
 62 72  2  0  0  0  0
 72 73  1  0  0  0  0
 61 74  1  0  0  0  0
 74 75  2  0  0  0  0
 75 76  1  0  0  0  0
 75 77  1  0  0  0  0
 77 78  2  0  0  0  0
 78 79  1  0  0  0  0
 79 80  2  0  0  0  0
 80 81  1  0  0  0  0
 81 82  1  0  0  0  0
 82 83  1  0  0  0  0
 83 84  1  0  0  0  0
 84 85  1  0  0  0  0
 83 86  2  0  0  0  0
 86 87  1  0  0  0  0
 86 88  1  0  0  0  0
 88 89  1  0  0  0  0
 80 90  1  0  0  0  0
 90 91  2  0  0  0  0
 91 92  1  0  0  0  0
 92 93  1  0  0  0  0
 93 94  1  0  0  0  0
 94 95  1  0  0  0  0
 95 96  1  0  0  0  0
 96 97  1  0  0  0  0
 95 98  2  0  0  0  0
 98 99  1  0  0  0  0
 99100  1  0  0  0  0
 98101  1  0  0  0  0
 92102  2  0  0  0  0
102103  1  0  0  0  0
 91104  1  0  0  0  0
104105  2  0  0  0  0
105106  1  0  0  0  0
105107  1  0  0  0  0
107108  1  0  0  0  0
108109  1  0  0  0  0
109110  1  0  0  0  0
110111  2  0  0  0  0
111112  1  0  0  0  0
112113  1  0  0  0  0
113114  1  0  0  0  0
114115  1  0  0  0  0
113116  1  0  0  0  0
116117  1  0  0  0  0
113118  1  0  0  0  0
118119  1  0  0  0  0
111120  1  0  0  0  0
120121  2  0  0  0  0
121122  1  0  0  0  0
121123  1  0  0  0  0
123124  2  0  0  0  0
124125  1  0  0  0  0
125126  2  0  0  0  0
126127  1  0  0  0  0
127128  1  0  0  0  0
128129  1  0  0  0  0
129130  1  0  0  0  0
130131  1  0  0  0  0
129132  2  0  0  0  0
132133  1  0  0  0  0
132134  1  0  0  0  0
134135  1  0  0  0  0
126136  1  0  0  0  0
136137  2  0  0  0  0
137138  1  0  0  0  0
138139  1  0  0  0  0
139140  1  0  0  0  0
140141  1  0  0  0  0
141142  1  0  0  0  0
142143  1  0  0  0  0
141144  2  0  0  0  0
144145  1  0  0  0  0
145146  1  0  0  0  0
144147  1  0  0  0  0
138148  2  0  0  0  0
148149  1  0  0  0  0
137150  1  0  0  0  0
150151  2  0  0  0  0
151152  1  0  0  0  0
 13  1  2  0  0  0  0
 43 17  1  0  0  0  0
 73 47  1  0  0  0  0
103 77  1  0  0  0  0
119107  2  0  0  0  0
149123  1  0  0  0  0
 12  3  2  0  0  0  0
 42 19  1  0  0  0  0
 72 49  1  0  0  0  0
102 79  1  0  0  0  0
118109  2  0  0  0  0
148125  1  0  0  0  0
 16  4  1  0  0  0  0
 28 21  2  0  0  0  0
 46 30  1  0  0  0  0
 58 51  2  0  0  0  0
 76 60  1  0  0  0  0
 88 81  2  0  0  0  0
106 90  1  0  0  0  0
122110  1  0  0  0  0
134127  2  0  0  0  0
152136  1  0  0  0  0
 39 33  2  0  0  0  0
 69 63  2  0  0  0  0
 99 93  2  0  0  0  0
145139  2  0  0  0  0
  1153  1  0  0  0  0
  8154  1  0  0  0  0
  8155  1  0  0  0  0
  9156  1  0  0  0  0
  9157  1  0  0  0  0
  9158  1  0  0  0  0
 10159  1  0  0  0  0
 10160  1  0  0  0  0
 11161  1  0  0  0  0
 11162  1  0  0  0  0
 11163  1  0  0  0  0
 13164  1  0  0  0  0
 14165  1  0  0  0  0
 18166  1  0  0  0  0
 24167  1  0  0  0  0
 24168  1  0  0  0  0
 25169  1  0  0  0  0
 25170  1  0  0  0  0
 25171  1  0  0  0  0
 36172  1  0  0  0  0
 36173  1  0  0  0  0
 37174  1  0  0  0  0
 37175  1  0  0  0  0
 37176  1  0  0  0  0
 44177  1  0  0  0  0
 48178  1  0  0  0  0
 54179  1  0  0  0  0
 54180  1  0  0  0  0
 55181  1  0  0  0  0
 55182  1  0  0  0  0
 55183  1  0  0  0  0
 66184  1  0  0  0  0
 66185  1  0  0  0  0
 67186  1  0  0  0  0
 67187  1  0  0  0  0
 67188  1  0  0  0  0
 74189  1  0  0  0  0
 78190  1  0  0  0  0
 84191  1  0  0  0  0
 84192  1  0  0  0  0
 85193  1  0  0  0  0
 85194  1  0  0  0  0
 85195  1  0  0  0  0
 96196  1  0  0  0  0
 96197  1  0  0  0  0
 97198  1  0  0  0  0
 97199  1  0  0  0  0
 97200  1  0  0  0  0
104201  1  0  0  0  0
114202  1  0  0  0  0
114203  1  0  0  0  0
115204  1  0  0  0  0
115205  1  0  0  0  0
115206  1  0  0  0  0
116207  1  0  0  0  0
116208  1  0  0  0  0
117209  1  0  0  0  0
117210  1  0  0  0  0
117211  1  0  0  0  0
119212  1  0  0  0  0
120213  1  0  0  0  0
124214  1  0  0  0  0
130215  1  0  0  0  0
130216  1  0  0  0  0
131217  1  0  0  0  0
131218  1  0  0  0  0
131219  1  0  0  0  0
142220  1  0  0  0  0
142221  1  0  0  0  0
143222  1  0  0  0  0
143223  1  0  0  0  0
143224  1  0  0  0  0
150225  1  0  0  0  0
151226  1  0  0  0  0
M  END
