212

C          3.84820       -4.54410        8.30540
C          3.77650       -3.35560        7.67400
C          2.45130       -3.02300        7.27210
C          2.01430       -1.86500        6.61540
C          2.95540       -0.88050        6.10300
S          4.17110       -1.36370        4.95500
C          4.73520        0.26200        4.75040
C          5.85170        0.57730        3.81690
C          7.16870       -0.04360        4.28050
C          4.02600        1.10980        5.54690
Cl         4.29740        2.80210        5.63310
C          3.01080        0.46760        6.30810
Cl         2.01330        1.31280        7.41500
C          0.64800       -1.74060        6.40110
C         -0.27380       -2.76990        6.70820
C          0.17170       -3.94570        7.33110
C         -0.74050       -5.04600        7.59420
S         -1.65180       -5.75220        6.29440
C         -2.39280       -6.91770        7.33930
C         -3.40320       -7.87900        6.81850
C         -4.72380       -7.17190        6.50690
C         -1.95210       -6.75020        8.61740
C         -1.00930       -5.69530        8.76480
Cl        -0.35690       -5.24960       10.28570
Cl        -2.46660       -7.70870        9.94480
C          1.52400       -4.02440        7.64190
S          2.31990       -5.34250        8.45060
C         -1.59780       -2.42720        6.32330
C         -1.69870       -1.18560        5.77830
S         -0.14450       -0.37710        5.67410
C         -2.84400       -0.50780        5.24910
S         -3.99610       -1.34140        4.24050
C         -4.78910        0.15180        3.88710
C         -5.77940        0.39990        2.90650
C         -6.31020        1.67880        2.81490
O         -6.07430        2.61720        3.75650
C         -4.75210        2.62430        4.34640
C         -4.91660        3.34220        5.69520
C         -5.44420        4.76600        5.56920
C         -3.83660        3.36580        3.34380
C         -2.41340        3.62840        3.81340
C         -4.23460        1.22080        4.56670
C         -3.12140        0.83530        5.32590
C         -7.06610        1.87540        1.65020
C         -7.07910        0.76690        0.83230
S         -6.22580       -0.57710        1.55530
C         -7.38150        0.70870       -0.55680
C         -7.06870       -0.32100       -1.39940
C         -7.01450        0.05570       -2.75930
C         -6.52090       -0.69920       -3.83760
C         -6.11870       -2.08930       -3.70550
S         -5.02380       -2.62290       -2.46280
C         -4.99650       -4.24220       -3.06790
C         -4.13630       -5.28540       -2.44520
C         -2.77860       -5.35830       -3.14850
C         -5.78960       -4.34810       -4.17140
Cl        -6.02060       -5.80730       -5.04340
C         -6.42210       -3.13080       -4.53850
Cl        -7.50920       -3.01630       -5.85790
C         -6.28100       -0.01200       -5.01930
C         -6.58580        1.35810       -5.20010
C         -7.20160        2.07730       -4.15830
C         -7.54040        3.48200       -4.33650
S         -8.67360        3.96050       -5.56580
C         -8.53040        5.63640       -5.15600
C         -9.34540        6.67470       -5.84490
C        -10.71570        6.82320       -5.17960
C         -7.65350        5.79690       -4.12560
C         -7.08370        4.57930       -3.66360
Cl        -5.88030        4.53290       -2.44440
Cl        -7.24740        7.31880       -3.44450
C         -7.36100        1.41870       -2.94760
S         -7.82490        2.16050       -1.43830
C         -5.95500        1.89780       -6.35070
C         -5.14530        1.00110       -6.99090
S         -5.30480       -0.61600       -6.32510
C         -4.02310        1.26680       -7.83170
S         -2.67450        0.16590       -7.67330
C         -1.64050        1.29800       -8.45410
C         -0.23450        1.34310       -8.31780
C          0.39220        2.57470       -8.46410
O         -0.22660        3.64850       -8.98740
C         -1.50260        3.45290       -9.65360
C         -2.14760        4.84750       -9.63230
C         -3.27560        5.06410      -10.63490
C         -1.21710        2.92510      -11.07760
C         -0.25650        3.80660      -11.86730
C         -2.31920        2.41730       -8.91330
C         -3.66860        2.40020       -8.53290
C          1.66030        2.61730       -7.85820
C          1.98100        1.44060       -7.21610
S          0.75390        0.22260       -7.45050
C          3.01810        1.16810       -6.27690
S          2.66460       -0.00060       -5.02620
C          4.15010        0.36540       -4.23700
C          4.61330       -0.14300       -3.00500
C          5.86350        0.24190       -2.54530
O          6.69470        1.04470       -3.23010
C          6.24250        1.75570       -4.40750
C          7.32790        1.51390       -5.47580
C          7.39730        0.05340       -5.90550
C          6.18640        3.25330       -4.03540
C          5.12570        3.55530       -2.98360
C          4.89820        1.30350       -4.92200
C          4.24250        1.76670       -6.07200
C          6.17420       -0.32120       -1.29550
C          5.15370       -1.09880       -0.79590
S          3.79220       -1.16260       -1.88410
C          5.08570       -1.85230        0.41010
C          3.96720       -2.42700        0.93970
C          4.21980       -3.22870        2.07760
C          3.30070       -3.98040        2.82860
C          1.89630       -4.04600        2.46440
S          0.64420       -3.73770        3.63290
C         -0.61250       -3.99730        2.47290
C         -2.05030       -3.89650        2.84540
C         -2.73550       -5.26380        2.83350
C         -0.07710       -4.31160        1.25910
Cl        -1.01050       -4.61620       -0.14460
C          1.34210       -4.34670        1.24990
Cl         2.23750       -4.81820       -0.13770
C          3.80690       -4.69110        3.90950
C          5.17720       -4.69760        4.25710
C          6.09050       -3.91910        3.52570
C          7.49650       -3.86100        3.88840
S          8.74950       -4.12260        2.71220
C         10.00530       -3.86820        3.87510
C         11.43920       -3.89820        3.47710
C         11.85390       -2.56760        2.84460
C          9.47030       -3.58720        5.09670
C          8.05030       -3.59000        5.10970
Cl         7.14870       -3.19690        6.51450
Cl        10.40140       -3.25710        6.50090
C          5.58980       -3.21900        2.43580
S          6.52060       -2.22140        1.34900
C          5.44260       -5.61530        5.31460
C          4.33360       -6.24710        5.75000
S          2.89240       -5.77170        4.92050
H          4.71690       -5.01840        8.71830
H          4.62050       -2.71390        7.50360
H          5.60800        0.19540        2.82210
H          5.95180        1.66210        3.75410
H          7.44870        0.34270        5.25730
H          7.96040        0.18530        3.57240
H          7.06740       -1.12310        4.34920
H         -3.56550       -8.65340        7.56970
H         -3.02340       -8.34940        5.90900
H         -5.45060       -7.88640        6.13030
H         -5.12450       -6.70860        7.40510
H         -4.56910       -6.40070        5.75590
H         -2.44960       -3.06370        6.48200
H         -3.95930        3.34220        6.21510
H         -5.62020        2.75170        6.28650
H         -5.67320        5.15980        6.55650
H         -6.35140        4.77510        4.97200
H         -4.71010        5.41880        5.10450
H         -3.80760        2.76550        2.42900
H         -4.32630        4.30930        3.09710
H         -1.87760        4.17890        3.04340
H         -1.88150        2.69760        3.99240
H         -2.40090        4.22190        4.72340
H         -2.52350        1.50050        5.92160
H         -7.52660        2.80960        1.38610
H         -6.78940       -1.29320       -1.03670
H         -3.98740       -5.05000       -1.39030
H         -4.63880       -6.25180       -2.52370
H         -2.15860       -6.11940       -2.68280
H         -2.26580       -4.40200       -3.07930
H         -2.90970       -5.60740       -4.19820
H         -9.47790        6.39640       -6.89180
H         -8.81210        7.62620       -5.79870
H        -11.29700        7.58740       -5.68830
H        -11.25970        5.88270       -5.22280
H        -10.59870        7.10960       -4.13750
H         -5.99520        2.94100       -6.60660
H         -2.51510        5.02340       -8.61900
H         -1.35220        5.57080       -9.81790
H         -3.76510        6.01240      -10.42450
H         -2.89940        5.10050      -11.65310
H         -4.01980        4.27500      -10.57800
H         -2.16440        2.81620      -11.60570
H         -0.77860        1.92870      -10.97740
H          0.66130        3.95820      -11.30460
H         -0.00820        3.32680      -12.81110
H         -0.69120        4.77890      -12.08090
H         -4.36960        3.19120       -8.72350
H          2.26950        3.50090       -7.82410
H          7.12120        2.14720       -6.33870
H          8.28600        1.81380       -5.04860
H          8.20510       -0.08870       -6.61870
H          6.46510       -0.25670       -6.37300
H          7.58190       -0.58380       -5.04390
H          7.16850        3.54010       -3.65570
H          5.98450        3.82930       -4.93920
H          4.13410        3.29520       -3.34850
H          5.31860        2.99190       -2.07350
H          5.13530        4.61430       -2.73840
H          4.64060        2.50890       -6.73950
H          7.10240       -0.15950       -0.77900
H          2.99020       -2.27420        0.52020
H         -2.55820       -3.23590        2.13810
H         -2.12520       -3.46170        3.84220
H         -2.68670       -5.70570        1.84260
H         -2.25270       -5.93310        3.54060
H         -3.77910       -5.14970        3.11310
H         12.04590       -4.08910        4.36390
H         11.60100       -4.70570        2.76100
H         11.71370       -1.75440        3.55230
H         11.25210       -2.36770        1.96120
H         12.90070       -2.60170        2.55540
H          6.42530       -5.80500        5.70450
H          4.25730       -6.98940        6.52020
