226

C          4.29970        4.53900        8.01120
S          2.80720        4.00020        7.34730
C          3.33700        2.35920        7.45680
C          2.66580        1.18930        7.01840
C          3.36130       -0.00990        7.02860
O          4.65460       -0.11560        7.39590
C          5.19660        0.89260        8.27800
C          4.82470        0.46750        9.71810
C          5.40710        1.34530       10.81640
C          6.70890        0.88730        8.00590
C          7.36780       -0.46560        8.24680
C          4.60360        2.25300        7.99440
C          5.14850        3.51590        8.30230
C          2.60050       -1.08350        6.54830
C          1.33450       -0.70990        6.15730
S          1.06540        0.99540        6.39990
C          0.34230       -1.52630        5.55050
C         -0.90770       -1.17200        5.12850
C         -1.56770       -2.18850        4.39770
C         -2.79720       -2.12490        3.71660
C         -3.66570       -0.96190        3.79120
S         -3.07310        0.65380        3.51670
C         -4.64590        1.35030        3.70400
C         -4.84730        2.82310        3.63840
C         -4.62380        3.46990        5.00730
C         -5.56360        0.37960        3.97280
Cl        -7.23220        0.68820        4.22570
C         -5.01510       -0.93010        4.01670
Cl        -5.96070       -2.30510        4.40420
C         -3.10900       -3.19570        2.88700
C         -2.29090       -4.34420        2.74520
C         -1.12490       -4.46020        3.52280
C         -0.24600       -5.61630        3.46200
S          0.39030       -6.22200        1.96300
C          1.34270       -7.42730        2.75420
C          2.16920       -8.38760        1.97260
C          1.30620       -9.50970        1.39140
C          1.15720       -7.36370        4.10220
C          0.26520       -6.33580        4.50760
Cl        -0.17620       -6.10150        6.14670
Cl         1.92490       -8.40900        5.22600
C         -0.78530       -3.36620        4.30890
S          0.72040       -3.18970        5.15690
C         -2.73570       -5.19030        1.70030
C         -3.80830       -4.69170        1.01550
S         -4.42000       -3.21840        1.74340
C         -4.31140       -5.09870       -0.25360
S         -5.29030       -3.97670       -1.16330
C         -5.17890       -4.98140       -2.56010
C         -5.44330       -4.59640       -3.89470
C         -4.77220       -5.27510       -4.90670
O         -4.10310       -6.42100       -4.70120
C         -4.31520       -7.12850       -3.46060
C         -3.05330       -7.98360       -3.25950
C         -2.76550       -8.94620       -4.40460
C         -5.61100       -7.98700       -3.54540
C         -6.08920       -8.27110       -4.96620
C         -4.46750       -6.14640       -2.31900
C         -3.97760       -6.20430       -1.00980
C         -4.73520       -4.55550       -6.11290
C         -5.37870       -3.34010       -6.02650
S         -6.11100       -3.10900       -4.45670
C         -5.24990       -2.18140       -6.84940
C         -4.18120       -1.85400       -7.63940
C         -4.04100       -0.45860       -7.84620
C         -2.89710        0.22140       -8.32080
C         -1.90200       -0.47840       -9.10220
S         -0.19170       -0.24690       -8.88080
C          0.20420       -1.35790      -10.14590
C          1.61890       -1.68640      -10.47260
C          2.10630       -2.88520       -9.65510
C         -0.93090       -1.87330      -10.69890
Cl        -0.93530       -3.00310      -11.99090
C         -2.12480       -1.37690      -10.11570
Cl        -3.67590       -1.80780      -10.70910
C         -2.74870        1.54040       -7.89740
C         -3.77770        2.24550       -7.22800
C         -5.00730        1.62410       -6.96330
C         -6.06230        2.31750       -6.22680
S         -7.19170        3.37910       -7.00300
C         -8.01200        3.71090       -5.51420
C         -9.22100        4.57950       -5.47670
C        -10.48250        3.77210       -5.79240
C         -7.43020        3.02780       -4.48890
C         -6.31690        2.24040       -4.88900
Cl        -5.36970        1.31620       -3.79960
Cl        -7.97760        3.09630       -2.86590
C         -5.07970        0.26680       -7.21240
S         -6.27590       -0.79490       -6.52350
C         -3.31540        3.43850       -6.62380
C         -1.96670        3.61410       -6.74400
S         -1.25600        2.44320       -7.84930
C         -1.13320        4.27870       -5.78720
C         -1.53430        4.50410       -4.49980
C         -0.46220        4.62380       -3.58800
C         -0.53370        4.53190       -2.18980
C         -1.78700        4.50960       -1.45250
S         -3.07440        3.39600       -1.81710
C         -4.03040        3.93420       -0.47590
C         -5.35910        3.33270       -0.17910
C         -5.26630        1.82410        0.04770
C         -3.37860        4.92380        0.19710
Cl        -4.01050        5.73730        1.57090
C         -2.10640        5.24670       -0.34650
Cl        -1.11510        6.48670        0.29940
C          0.66490        4.30740       -1.52540
C          1.93130        4.30050       -2.15900
C          2.00570        4.52110       -3.54850
C          3.26160        4.55230       -4.27710
S          4.48640        3.33050       -4.09860
C          5.51080        4.06560       -5.28260
C          6.80670        3.44790       -5.67630
C          6.61090        2.45320       -6.82310
C          4.92270        5.18810       -5.78400
C          3.65000        5.46650       -5.21920
Cl         2.74830        6.86240       -5.63600
Cl         5.64050        6.18960       -6.97740
C          0.79710        4.60190       -4.23600
S          0.60250        4.42080       -5.96220
C          2.95590        3.85600       -1.27430
C          2.48040        3.44460       -0.06960
S          0.76550        3.75280        0.11590
C          3.05210        2.56000        0.91760
C          2.43320        1.38740        1.21390
C          3.12410        0.58260        2.15200
C          2.81090       -0.73400        2.54270
C          1.58730       -1.33380        2.03050
S          0.10300       -0.41510        2.06680
C         -0.71860       -1.53190        1.03550
C         -2.02900       -1.18240        0.42410
C         -1.85330       -0.03180       -0.57040
C          0.08930       -2.59500        0.76300
Cl        -0.38270       -3.90820       -0.23570
C          1.39050       -2.49260        1.32890
Cl         2.60440       -3.65400        1.00530
C          3.74470       -1.37330        3.35010
C          4.89390       -0.71450        3.86010
C          5.17300        0.61640        3.50510
C          6.31890        1.32860        4.04260
S          7.91880        0.64550        4.04400
C          8.60470        2.03600        4.81300
C         10.06420        2.12230        5.09260
C         10.82830        2.61300        3.86070
C          7.64010        2.97160        5.03960
C          6.34740        2.57860        4.60010
Cl         4.97240        3.56850        4.83590
Cl         7.92340        4.47550        5.81470
C          4.30110        1.22120        2.60390
S          4.53240        2.76480        1.81450
C          5.64760       -1.56830        4.71690
C          5.12620       -2.80740        4.81280
S          3.68270       -3.02480        3.88930
H          4.46170        5.58970        8.14620
H          5.14650       -0.56620        9.85390
H          3.73270        0.48210        9.78620
H          5.09510        2.37930       10.69050
H          6.49330        1.30490       10.81850
H          5.05320        0.99870       11.78490
H          7.18640        1.64740        8.62210
H          6.84370        1.17120        6.96090
H          8.38170       -0.45560        7.85210
H          7.41880       -0.69500        9.30800
H          6.80520       -1.24880        7.74660
H          6.12800        3.67160        8.71550
H          2.96140       -2.09360        6.49580
H         -1.31260       -0.19180        5.30110
H         -4.14840        3.25370        2.92060
H         -5.86690        3.02260        3.30380
H         -3.61070        3.28010        5.35370
H         -5.32360        3.06820        5.73570
H         -4.77150        4.54400        4.93630
H          2.92850       -8.81130        2.63210
H          2.66830       -7.85660        1.15960
H          1.92480      -10.20570        0.83130
H          0.55260       -9.09720        0.72440
H          0.80580      -10.05250        2.18950
H         -2.22980       -6.09390        1.41650
H         -3.16360       -8.54400       -2.33040
H         -2.20930       -7.29910       -3.14810
H         -2.73440       -8.40800       -5.34750
H         -1.80090       -9.42300       -4.24570
H         -3.52250       -9.72340       -4.46310
H         -5.42690       -8.92730       -3.02430
H         -6.41100       -7.46900       -3.01040
H         -5.29940       -8.70600       -5.57040
H         -6.42590       -7.35800       -5.45170
H         -6.92600       -8.96510       -4.93210
H         -3.38270       -7.00740       -0.61710
H         -4.22120       -4.90020       -6.99020
H         -3.43270       -2.56950       -7.92630
H          1.68910       -1.91970      -11.53690
H          2.24750       -0.82030      -10.26020
H          1.49710       -3.75960       -9.86910
H          3.13950       -3.11120       -9.90460
H          2.04260       -2.66770       -8.59170
H         -9.30750        5.01910       -4.48110
H         -9.11250        5.38370       -6.20640
H        -10.41000        3.33150       -6.78390
H        -11.35620        4.41710       -5.75950
H        -10.61090        2.97340       -5.06630
H         -3.94720        4.06380       -6.02010
H         -2.56080        4.45280       -4.19070
H         -6.03740        3.52340       -1.01420
H         -5.76410        3.82290        0.70740
H         -4.54460        1.59520        0.82770
H         -6.23500        1.43220        0.34470
H         -4.95990        1.32600       -0.86840
H          7.23840        2.93270       -4.81680
H          7.49040        4.23820       -5.99220
H          5.93360        1.65800       -6.52130
H          7.56470        2.01390       -7.10260
H          6.19120        2.95700       -7.68980
H          3.98770        3.75430       -1.55590
H          1.53030        1.09290        0.71500
H         -2.42010       -2.06000       -0.09180
H         -2.74200       -0.87860        1.19030
H         -1.52380        0.86680       -0.05340
H         -1.11540       -0.29090       -1.32600
H         -2.79610        0.17750       -1.06670
H         10.22090        2.81550        5.92110
H         10.43710        1.13830        5.38220
H         10.47490        3.59790        3.56620
H         10.68180        1.92790        3.02890
H         11.89070        2.67470        4.08000
H          6.53630       -1.25950        5.23280
H          5.50250       -3.63850        5.37670
