100

C          2.90820       -4.07670        1.15290
S          2.64380       -2.56330        0.36050
C          3.18410       -3.16690       -1.19750
C          3.51530       -4.50040       -1.04050
C          3.37060       -5.00320        0.27440
C          3.84730       -6.40060        0.26090
O          3.99640       -7.17790        1.14680
O          4.18780       -6.67530       -1.05120
C          4.00120       -5.59080       -1.87980
O          4.20900       -5.62590       -3.05900
C          3.40540       -2.45690       -2.40760
C          3.07020       -1.22080       -2.86230
C          2.24220       -0.18450       -2.36630
S          1.29570       -0.22810       -0.90370
C          0.64730        1.33200       -1.24020
C         -0.24040        2.08270       -0.45200
C         -0.52680        3.40030       -0.83070
O          0.00600        3.99030       -1.89850
C          0.63050        3.19700       -2.93490
C         -0.43880        2.89210       -4.00950
C         -1.09610        4.14030       -4.58460
C          1.77140        4.07140       -3.47610
C          2.88950        4.26220       -2.45740
C          1.14170        1.87400       -2.42160
C          2.03300        1.01330       -3.04740
C         -1.37510        4.04920        0.07360
C         -1.73480        3.23800        1.13520
S         -1.02220        1.64560        1.01530
C         -2.59400        3.52980        2.21520
S         -2.78870        2.36330        3.50440
C         -4.03210        3.29020        4.32330
C         -4.20370        4.47000        3.62740
C         -3.42340        4.60940        2.46050
C         -3.76480        5.89450        1.85330
O         -3.35350        6.43100        0.86820
O         -4.72400        6.47080        2.66660
C         -5.03690        5.67270        3.74720
O         -5.84090        5.98140        4.57260
C         -4.67570        2.94820        5.54730
C         -4.68030        1.78510        6.24030
C         -4.16350        0.50800        5.86100
S         -4.17460       -0.13180        4.23640
C         -3.29120       -1.58070        4.67510
C         -3.11090       -1.59160        6.04400
C         -3.61520       -0.44600        6.69450
C         -3.30680       -0.57370        8.12360
O         -3.54370        0.15230        9.03890
O         -2.64060       -1.77580        8.26930
C         -2.47570       -2.43120        7.06610
O         -1.90510       -3.47430        6.97020
C         -2.78920       -2.38400        3.62500
C         -2.04260       -3.51000        3.74420
C         -1.42440       -4.09640        2.61160
S         -1.37120       -3.25460        1.06490
C         -0.43810       -4.51610        0.29370
C         -0.20010       -5.51700        1.21190
C         -0.73840       -5.28910        2.49130
C         -0.40460       -6.46180        3.31610
O         -0.66610       -6.72220        4.44630
O          0.32430       -7.31540        2.49850
C          0.49150       -6.80980        1.23300
O          1.09740       -7.36320        0.36530
C          0.01280       -4.45610       -1.04460
C         -0.18080       -3.39300       -1.86000
C          0.35810       -3.28120       -3.16180
S          1.31110       -4.52390       -3.94270
C          1.65550       -3.53220       -5.33440
C          1.03260       -2.30650       -5.19260
C          0.30660       -2.17650       -3.98620
C         -0.26590       -0.83910       -3.94070
O         -0.94060       -0.29590       -3.11210
O          0.12420       -0.21050       -5.10640
C          0.91810       -1.02930       -5.89540
O          1.38520       -0.63770       -6.92310
C          2.49530       -4.06830       -6.36500
C          2.81390       -3.42180       -7.48760
H          2.71630       -4.16720        2.20320
H          3.98820       -3.05910       -3.09700
H          3.48570       -0.97190       -3.83360
H         -1.20000        2.26180       -3.54310
H          0.02670        2.30970       -4.80490
H         -1.94660        3.85220       -5.19670
H         -1.44840        4.78730       -3.78510
H         -0.40310        4.69860       -5.20790
H          2.16060        3.61950       -4.38830
H          1.34950        5.04450       -3.72400
H          3.36540        3.31510       -2.21140
H          3.64550        4.93240       -2.85790
H          2.49310        4.69900       -1.54380
H          2.52180        1.22750       -3.98140
H         -1.71740        5.06230       -0.03630
H         -5.19610        3.79070        5.98750
H         -5.09500        1.80370        7.24080
H         -2.98360       -1.99650        2.63100
H         -1.86800       -3.98050        4.70320
H          0.56690       -5.32130       -1.38750
H         -0.73930       -2.53270       -1.51160
H          2.87860       -5.06020       -6.16540
H          3.45640       -3.87740       -8.22050
H          2.44700       -2.43230       -7.70170
