184

C         15.17170       -8.75870        7.04050
S         13.76270       -8.88720        6.06010
C         12.87250       -7.93310        7.19320
C         11.49300       -7.60340        7.17270
C         10.92720       -7.08360        8.32750
O         11.63030       -6.85850        9.45560
C         13.05210       -6.63640        9.32230
C         13.63880       -6.94460       10.70790
C         13.05970       -6.07950       11.82110
C         13.23900       -5.16560        8.88210
C         14.68840       -4.70950        8.79650
C         13.64330       -7.54620        8.27000
C         14.96360       -8.02910        8.17010
C          9.54560       -6.87550        8.21130
C          9.05980       -7.21370        6.96870
S         10.32100       -7.81060        5.92220
C          7.73010       -7.07550        6.48620
C          7.26490       -7.32990        5.22830
C          5.89650       -7.01530        5.05430
C          5.11440       -7.14150        3.89100
C          5.66920       -7.64820        2.64760
S          7.11910       -6.97620        1.95930
C          7.04760       -8.02210        0.58170
C          8.05930       -7.92950       -0.50630
C          7.80950       -6.70400       -1.38770
C          5.95650       -8.83380        0.66260
Cl         5.54760      -10.01120       -0.51670
C          5.17470       -8.62760        1.83130
Cl         3.80400       -9.58840        2.19670
C          3.79490       -6.71600        3.96950
C          3.21390       -6.21350        5.16040
C          3.97710       -6.15500        6.34180
C          3.38520       -5.70630        7.58890
S          4.12790       -4.47340        8.56450
C          2.86920       -4.54280        9.75100
C          2.86960       -3.63030       10.92740
C          2.31820       -2.25240       10.55360
C          1.93440       -5.46850        9.39590
C          2.22470       -6.13310        8.17460
Cl         1.24270       -7.40050        7.55960
Cl         0.53610       -5.82410       10.32610
C          5.31140       -6.52480        6.24750
S          6.47170       -6.46590        7.54480
C          1.90300       -5.72930        4.94820
C          1.47780       -5.84820        3.65370
S          2.68580       -6.60260        2.63440
C          0.25740       -5.37670        3.09750
S          0.00990       -5.35830        1.37100
C         -1.51270       -4.57270        1.57690
C         -2.33000       -3.99090        0.58320
C         -3.27040       -3.04650        0.98060
O         -3.53050       -2.76150        2.26870
C         -3.15050       -3.73730        3.26530
C         -4.23980       -4.83390        3.27020
C         -4.04380       -5.90270        4.33600
C         -3.06160       -2.95420        4.58330
C         -4.35960       -2.25080        4.96220
C         -1.82120       -4.36240        2.91340
C         -0.81430       -4.81860        3.76570
C         -3.84880       -2.36520       -0.09780
C         -3.38040       -2.80090       -1.31830
S         -2.20670       -4.08120       -1.14000
C         -3.69560       -2.29660       -2.60480
S         -4.50800       -0.75930       -2.77800
C         -4.38130       -0.86650       -4.49870
C         -4.73060        0.10540       -5.45910
C         -4.35930       -0.10170       -6.78210
O         -3.72550       -1.20300       -7.22160
C         -3.64900       -2.36960       -6.37630
C         -4.83720       -3.29760       -6.72970
C         -4.87480       -3.71500       -8.19460
C         -2.29320       -3.01540       -6.70160
C         -1.12120       -2.16280       -6.22900
C         -3.76690       -2.03740       -4.90920
C         -3.37910       -2.83840       -3.83290
C         -4.63880        0.99620       -7.60570
C         -5.21510        2.04730       -6.92040
S         -5.44200        1.66480       -5.23430
C         -5.56710        3.32680       -7.42190
S         -6.08540        4.59620       -6.34070
C         -6.18160        5.70880       -7.65750
C         -6.58400        7.06090       -7.63130
C         -6.79540        7.71690       -8.83740
O         -6.64500        7.12130      -10.03610
C         -5.78630        5.96220      -10.11940
C         -4.34790        6.50580      -10.30850
C         -3.25940        5.44870      -10.42450
C         -6.27820        5.19690      -11.35510
C         -7.70250        4.68260      -11.18220
C         -5.84700        5.12250       -8.86780
C         -5.50250        3.77630       -8.72690
C         -7.23500        9.03680       -8.67160
C         -7.34520        9.40050       -7.34680
S         -6.91040        8.08850       -6.27980
C         -7.72190       10.65690       -6.80900
S         -8.12140       12.00050       -7.85120
C         -8.38420       13.01320       -6.47610
C         -8.83430       14.35630       -6.44790
C         -9.20980       14.89950       -5.23180
O         -9.15850       14.22930       -4.06480
C         -8.28240       13.08340       -3.97170
C         -8.88830       12.21080       -2.86410
C        -10.27390       11.69410       -3.23310
C         -6.89020       13.63620       -3.57800
C         -5.80060       12.58890       -3.39800
C         -8.17950       12.34480       -5.28270
C         -7.80680       11.01160       -5.47940
C         -9.71080       16.21430       -5.35610
C         -9.69570       16.64670       -6.64550
S         -9.07940       15.47540       -7.74420
H         16.07690       -9.23210        6.71730
H         13.42280       -7.99380       10.92150
H         14.72060       -6.82310       10.67040
H         11.97470       -6.12440       11.80200
H         13.40670       -6.44330       12.78540
H         13.37090       -5.04340       11.71720
H         12.77000       -5.06030        7.89940
H         12.68540       -4.53310        9.57750
H         15.16370       -4.72310        9.77360
H         15.25470       -5.34890        8.12330
H         14.72840       -3.69220        8.41440
H         15.73380       -7.84930        8.89740
H          8.92900       -6.48850        9.00140
H          7.89600       -7.72020        4.45080
H          8.00290       -8.83650       -1.11050
H          9.05770       -7.86220       -0.06880
H          6.82220       -6.75900       -1.83940
H          8.55280       -6.65510       -2.17890
H          7.86990       -5.79490       -0.79400
H          2.25310       -4.07130       11.71260
H          3.88950       -3.52300       11.30060
H          2.33440       -1.59600       11.41940
H          1.29350       -2.33920       10.20110
H          2.92110       -1.80750        9.76550
H          1.31500       -5.26380        5.71640
H         -4.23170       -5.30450        2.28280
H         -5.20950       -4.34980        3.39410
H         -3.05950       -6.35730        4.24960
H         -4.14890       -5.48710        5.33450
H         -4.79180       -6.68250        4.21360
H         -2.27270       -2.20850        4.46230
H         -2.76510       -3.63540        5.37960
H         -5.13170       -2.96690        5.23080
H         -4.18750       -1.60070        5.81680
H         -4.71350       -1.64710        4.13160
H         -0.84930       -4.75210        4.83690
H         -4.57340       -1.57940        0.01030
H         -5.75500       -2.75410       -6.48780
H         -4.79040       -4.17680       -6.08510
H         -5.82270       -4.19960       -8.41610
H         -4.07360       -4.41180       -8.42460
H         -4.77400       -2.84120       -8.83350
H         -2.23280       -3.13090       -7.78350
H         -2.25180       -4.00360       -6.24350
H         -1.18050       -1.17100       -6.67100
H         -1.12340       -2.06000       -5.14630
H         -0.18210       -2.62030       -6.52990
H         -2.88040       -3.78680       -3.92250
H         -4.40170        1.01990       -8.65220
H         -4.13130        7.14870       -9.45030
H         -4.35120        7.13550      -11.20090
H         -3.40550        4.82690      -11.30380
H         -3.24140        4.81180       -9.54350
H         -2.29100        5.93530      -10.51260
H         -6.24060        5.88220      -12.20330
H         -5.60360        4.36530      -11.55330
H         -8.37410        5.51080      -10.97160
H         -8.03470        4.18840      -12.09190
H         -7.76010        3.97240      -10.36030
H         -5.21290        3.13790       -9.54040
H         -7.46020        9.69920       -9.48690
H         -8.22160       11.37360       -2.66340
H         -8.95700       12.82220       -1.96300
H        -10.68890       11.11800       -2.40990
H        -10.93900       12.52750       -3.44440
H        -10.22690       11.05640       -4.11300
H         -6.58770       14.33690       -4.36190
H         -7.01380       14.20620       -2.65450
H         -6.03220       11.91580       -2.57710
H         -5.67130       12.00310       -4.30470
H         -4.85800       13.08260       -3.17410
H         -7.59950       10.30900       -4.69250
H        -10.06010       16.79400       -4.52250
H        -10.00580       17.60010       -7.02300
