161

C         -0.99500        8.06400        7.74300
S         -2.52990        7.33430        7.87810
C         -2.11370        6.02840        6.80150
C         -0.78510        6.18350        6.36930
C         -0.15850        7.35420        6.90950
C          1.17200        7.67850        6.56380
C          1.89210        6.88020        5.71720
C          3.31620        7.26610        5.34360
C          3.96330        6.28450        4.36270
C          3.30040        8.65300        4.68490
C          4.17300        7.30540        6.61690
C          1.27680        5.70260        5.22520
C         -0.00820        5.35840        5.53480
C         -3.07460        5.06650        6.41170
S         -2.81820        4.10420        4.98720
C         -4.37690        3.35330        5.07610
C         -5.06890        3.80420        6.20460
C         -4.33640        4.76980        6.96220
C         -4.89230        5.27390        8.15420
C         -6.12630        4.87020        8.59140
C         -6.75570        5.39550        9.87070
C         -8.09480        6.06400        9.52850
C         -6.98840        4.22310       10.83450
C         -5.87600        6.42890       10.57960
C         -6.83290        3.90850        7.82920
C         -6.32480        3.37990        6.68030
C         -4.74840        2.43910        4.05970
S         -3.49000        1.61920        3.15790
C         -4.67160        0.83740        2.17090
C         -4.45160       -0.04140        1.09330
C         -5.53570       -0.44490        0.32590
O         -6.80550       -0.07240        0.56430
C         -7.15560        0.64440        1.76900
C         -7.92440       -0.33260        2.68430
C         -7.03410       -1.43320        3.25010
C         -8.05000        1.81720        1.30880
C         -9.26590        1.38150        0.49980
C         -5.96280        1.20230        2.50860
C         -5.99930        2.09670        3.58260
C         -5.16890       -1.26060       -0.75370
C         -3.81070       -1.50150       -0.80830
S         -2.97170       -0.70960        0.50920
C         -3.04470       -2.25040       -1.73740
S         -1.55240       -2.95900       -1.20900
C         -1.16500       -3.56030       -2.79100
C         -2.17390       -3.22100       -3.70010
C         -3.24180       -2.48160       -3.10420
C         -4.30220       -2.01270       -3.90640
C         -4.34790       -2.29580       -5.24520
C         -5.46030       -1.80250       -6.15570
C         -4.84900       -0.92210       -7.25510
C         -6.50910       -0.97360       -5.40910
C         -6.16730       -3.01030       -6.78700
C         -3.30820       -3.07880       -5.80810
C         -2.24970       -3.52320       -5.07380
C          0.06540       -4.23540       -2.96800
S          0.84180       -4.43300       -4.52170
C          2.21510       -5.16910       -3.77070
C          3.46540       -5.47040       -4.35110
C          4.54330       -5.69310       -3.49990
O          4.42830       -5.72910       -2.15680
C          3.12390       -6.02290       -1.61010
C          3.21990       -5.54500       -0.15060
C          2.24050       -6.17550        0.83310
C          2.87160       -7.54200       -1.75400
C          3.99900       -8.39810       -1.18860
C          2.05700       -5.29650       -2.39670
C          0.85580       -4.74850       -1.95420
C          5.76480       -5.78600       -4.17390
C          5.63590       -5.64270       -5.54130
S          3.97070       -5.40610       -6.00400
C          6.67470       -5.64400       -6.50820
S          6.33250       -5.45760       -8.20970
C          8.01960       -5.48970       -8.57770
C          8.65330       -5.41290       -9.84260
C         10.01450       -5.64990       -9.91170
O         10.77980       -5.96590       -8.84860
C         10.30860       -5.61890       -7.53530
C         10.72650       -4.15820       -7.23240
C         12.22660       -3.90250       -7.28380
C         10.91250       -6.64350       -6.54720
C         12.22030       -7.27900       -7.00690
C          8.79800       -5.65220       -7.44700
C          8.03350       -5.73650       -6.28040
C         10.50970       -5.58930      -11.23310
C          9.53140       -5.29850      -12.13210
S          7.98540       -5.09330      -11.40570
H         -0.78830        8.96840        8.27900
H          1.59200        8.57640        6.99120
H          4.96770        6.62670        4.12070
H          4.04520        5.29040        4.79610
H          3.39710        6.22580        3.43590
H          2.67520        8.63880        3.79440
H          4.30850        8.94150        4.39430
H          2.91230        9.40930        5.36130
H          4.17250        6.33080        7.10080
H          5.19960        7.56810        6.37030
H          3.79440        8.03720        7.32520
H          1.83350        5.04060        4.58350
H         -0.41670        4.44110        5.14280
H         -4.31210        5.97040        8.73110
H         -8.78690        5.36150        9.07250
H         -8.55690        6.45850       10.43100
H         -7.93600        6.88640        8.83400
H         -7.41380        4.58560       11.76790
H         -7.67010        3.48940       10.41340
H         -6.04590        3.72590       11.05460
H         -6.38380        6.78250       11.47460
H         -4.92660        5.99380       10.88280
H         -5.68530        7.28670        9.93910
H         -7.79580        3.56420        8.17420
H         -6.86610        2.61590        6.14520
H         -8.72230       -0.78730        2.09700
H         -8.37150        0.23740        3.50020
H         -6.57460       -2.00380        2.44590
H         -7.62550       -2.11430        3.85740
H         -6.24500       -1.01560        3.87190
H         -8.37110        2.38060        2.18500
H         -7.42960        2.47460        0.69470
H         -9.98810        0.86260        1.12420
H         -8.96000        0.72140       -0.30670
H         -9.75220        2.25430        0.07060
H         -6.90270        2.52190        3.97770
H         -5.88300       -1.68650       -1.43230
H         -5.05770       -1.41040       -3.43440
H         -5.63170       -0.54350       -7.90900
H         -4.32950       -0.07510       -6.81170
H         -4.13870       -1.47730       -7.86110
H         -7.27540       -0.64500       -6.10830
H         -6.06320       -0.08920       -4.96010
H         -6.99370       -1.56220       -4.63340
H         -6.98150       -2.67390       -7.42540
H         -5.48500       -3.60140       -7.39130
H         -6.57950       -3.65240       -6.01120
H         -3.34350       -3.32450       -6.85800
H         -1.46880       -4.10500       -5.53790
H          3.08970       -4.46070       -0.15100
H          4.24030       -5.74900        0.17860
H          2.46470       -7.22470        1.00180
H          2.31450       -5.65880        1.78740
H          1.21400       -6.10070        0.48700
H          1.92300       -7.78530       -1.27590
H          2.76890       -7.75880       -2.82110
H          4.09080       -8.27680       -0.11320
H          4.94560       -8.12020       -1.64530
H          3.80720       -9.44720       -1.40200
H          0.53870       -4.70440       -0.92900
H          6.70140       -5.93700       -3.67210
H         10.23230       -3.52480       -7.97520
H         10.33030       -3.88780       -6.25180
H         12.63860       -4.27780       -8.21720
H         12.41870       -2.83330       -7.22640
H         12.73440       -4.38380       -6.45260
H         10.18280       -7.44380       -6.40190
H         11.05910       -6.14670       -5.58710
H         12.07050       -7.81640       -7.93860
H         12.56200       -7.98270       -6.25080
H         12.99370       -6.53530       -7.16450
H          8.45030       -5.84680       -5.29690
H         11.54010       -5.75580      -11.48600
H          9.62650       -5.18230      -13.19280
