
  xtb     03012216133D
 energy: -388.119437242952 gnorm: 0.000290640340 xtb: 6.4.1 (unknown)
212235  0     0  0            999 V2000
    4.8763   -4.6416    8.5906 C   0  0  0  0  0  0  0  0  0  0  0  0
    3.6852   -5.5946    7.7900 S   0  0  0  0  0  0  0  0  0  0  0  0
    2.8241   -4.1650    7.3404 C   0  0  0  0  0  0  0  0  0  0  0  0
    1.6215   -4.0540    6.5989 C   0  0  0  0  0  0  0  0  0  0  0  0
    1.1828   -2.7883    6.2423 C   0  0  0  0  0  0  0  0  0  0  0  0
    1.8542   -1.6563    6.5271 O   0  0  0  0  0  0  0  0  0  0  0  0
    2.7912   -1.6710    7.6209 C   0  0  0  0  0  0  0  0  0  0  0  0
    3.8044   -0.5651    7.2925 C   0  0  0  0  0  0  0  0  0  0  0  0
    4.6820   -0.9263    6.1013 C   0  0  0  0  0  0  0  0  0  0  0  0
    2.0178   -1.3762    8.9310 C   0  0  0  0  0  0  0  0  0  0  0  0
    1.2693   -0.0492    8.9157 C   0  0  0  0  0  0  0  0  0  0  0  0
    3.4465   -3.0204    7.7914 C   0  0  0  0  0  0  0  0  0  0  0  0
    4.6235   -3.3073    8.5105 C   0  0  0  0  0  0  0  0  0  0  0  0
   -0.0075   -2.8100    5.5043 C   0  0  0  0  0  0  0  0  0  0  0  0
   -0.4898   -4.0843    5.3035 C   0  0  0  0  0  0  0  0  0  0  0  0
    0.5503   -5.2839    6.0284 S   0  0  0  0  0  0  0  0  0  0  0  0
   -1.6555   -4.4519    4.5844 C   0  0  0  0  0  0  0  0  0  0  0  0
   -2.6797   -3.2109    3.9062 S   0  0  0  0  0  0  0  0  0  0  0  0
   -3.6754   -4.4130    3.1662 C   0  0  0  0  0  0  0  0  0  0  0  0
   -4.7002   -4.2041    2.2175 C   0  0  0  0  0  0  0  0  0  0  0  0
   -5.1286   -5.2880    1.4631 C   0  0  0  0  0  0  0  0  0  0  0  0
   -4.7344   -6.5526    1.6813 O   0  0  0  0  0  0  0  0  0  0  0  0
   -3.9798   -6.8897    2.8688 C   0  0  0  0  0  0  0  0  0  0  0  0
   -4.9503   -7.4702    3.9198 C   0  0  0  0  0  0  0  0  0  0  0  0
   -5.9241   -6.4452    4.4897 C   0  0  0  0  0  0  0  0  0  0  0  0
   -2.9566   -7.9500    2.4088 C   0  0  0  0  0  0  0  0  0  0  0  0
   -3.5870   -9.1603    1.7298 C   0  0  0  0  0  0  0  0  0  0  0  0
   -3.2460   -5.6996    3.4405 C   0  0  0  0  0  0  0  0  0  0  0  0
   -2.1114   -5.7124    4.2593 C   0  0  0  0  0  0  0  0  0  0  0  0
   -5.9430   -4.9071    0.3837 C   0  0  0  0  0  0  0  0  0  0  0  0
   -6.1650   -3.5504    0.3376 C   0  0  0  0  0  0  0  0  0  0  0  0
   -5.3766   -2.7186    1.6553 S   0  0  0  0  0  0  0  0  0  0  0  0
   -6.7361   -2.7642   -0.7048 C   0  0  0  0  0  0  0  0  0  0  0  0
   -7.1188   -1.4559   -0.6403 C   0  0  0  0  0  0  0  0  0  0  0  0
   -7.2900   -0.8502   -1.9078 C   0  0  0  0  0  0  0  0  0  0  0  0
   -7.5657    0.5008   -2.1986 C   0  0  0  0  0  0  0  0  0  0  0  0
   -7.9563    1.4651   -1.1865 C   0  0  0  0  0  0  0  0  0  0  0  0
   -7.0983    1.6643    0.3134 S   0  0  0  0  0  0  0  0  0  0  0  0
   -8.1203    2.9642    0.8219 C   0  0  0  0  0  0  0  0  0  0  0  0
   -7.8815    3.6796    2.1054 C   0  0  0  0  0  0  0  0  0  0  0  0
   -6.8874    4.8274    1.9127 C   0  0  0  0  0  0  0  0  0  0  0  0
   -9.0626    3.2230   -0.1277 C   0  0  0  0  0  0  0  0  0  0  0  0
  -10.2601    4.4426    0.0225 Cl  0  0  0  0  0  0  0  0  0  0  0  0
   -8.9732    2.3785   -1.2656 C   0  0  0  0  0  0  0  0  0  0  0  0
  -10.0934    2.4622   -2.5598 Cl  0  0  0  0  0  0  0  0  0  0  0  0
   -7.3469    0.9087   -3.5091 C   0  0  0  0  0  0  0  0  0  0  0  0
   -6.9719    0.0168   -4.5406 C   0  0  0  0  0  0  0  0  0  0  0  0
   -6.9336   -1.3704   -4.2936 C   0  0  0  0  0  0  0  0  0  0  0  0
   -6.7074   -2.2986   -5.3812 C   0  0  0  0  0  0  0  0  0  0  0  0
   -5.5811   -3.6189   -5.2707 S   0  0  0  0  0  0  0  0  0  0  0  0
   -5.9140   -4.1420   -6.8862 C   0  0  0  0  0  0  0  0  0  0  0  0
   -5.2613   -5.3547   -7.4512 C   0  0  0  0  0  0  0  0  0  0  0  0
   -5.9880   -6.6243   -7.0007 C   0  0  0  0  0  0  0  0  0  0  0  0
   -6.8558   -3.3409   -7.4607 C   0  0  0  0  0  0  0  0  0  0  0  0
   -7.3011   -2.2904   -6.6165 C   0  0  0  0  0  0  0  0  0  0  0  0
   -8.5231   -1.1848   -7.0932 Cl  0  0  0  0  0  0  0  0  0  0  0  0
   -7.4572   -3.5599   -9.0532 Cl  0  0  0  0  0  0  0  0  0  0  0  0
   -7.0311   -1.7601   -2.9639 C   0  0  0  0  0  0  0  0  0  0  0  0
   -6.7072   -3.3610   -2.3556 S   0  0  0  0  0  0  0  0  0  0  0  0
   -6.4450    0.6981   -5.6636 C   0  0  0  0  0  0  0  0  0  0  0  0
   -6.4050    2.0541   -5.5121 C   0  0  0  0  0  0  0  0  0  0  0  0
   -7.1920    2.5681   -4.0260 S   0  0  0  0  0  0  0  0  0  0  0  0
   -5.5432    2.9644   -6.1918 C   0  0  0  0  0  0  0  0  0  0  0  0
   -4.0888    2.2955   -6.9004 S   0  0  0  0  0  0  0  0  0  0  0  0
   -3.3776    3.8672   -6.9566 C   0  0  0  0  0  0  0  0  0  0  0  0
   -1.9912    4.1433   -6.9986 C   0  0  0  0  0  0  0  0  0  0  0  0
   -1.5623    5.3575   -6.4707 C   0  0  0  0  0  0  0  0  0  0  0  0
   -2.3823    6.3868   -6.2142 O   0  0  0  0  0  0  0  0  0  0  0  0
   -3.7755    6.2955   -6.5904 C   0  0  0  0  0  0  0  0  0  0  0  0
   -4.5637    7.1553   -5.5791 C   0  0  0  0  0  0  0  0  0  0  0  0
   -3.7963    8.3413   -5.0028 C   0  0  0  0  0  0  0  0  0  0  0  0
   -3.9268    6.7644   -8.0576 C   0  0  0  0  0  0  0  0  0  0  0  0
   -3.4712    8.1913   -8.3311 C   0  0  0  0  0  0  0  0  0  0  0  0
   -4.2533    4.8609   -6.5510 C   0  0  0  0  0  0  0  0  0  0  0  0
   -5.4759    4.3375   -6.1102 C   0  0  0  0  0  0  0  0  0  0  0  0
   -0.2165    5.3314   -6.0719 C   0  0  0  0  0  0  0  0  0  0  0  0
    0.3761    4.1016   -6.2700 C   0  0  0  0  0  0  0  0  0  0  0  0
   -0.7070    2.9885   -7.0642 S   0  0  0  0  0  0  0  0  0  0  0  0
    1.5636    3.5861   -5.6750 C   0  0  0  0  0  0  0  0  0  0  0  0
    2.3698    4.1845   -4.7447 C   0  0  0  0  0  0  0  0  0  0  0  0
    3.1969    3.2729   -4.0433 C   0  0  0  0  0  0  0  0  0  0  0  0
    3.9965    3.5122   -2.9082 C   0  0  0  0  0  0  0  0  0  0  0  0
    4.2326    4.8488   -2.3895 C   0  0  0  0  0  0  0  0  0  0  0  0
    2.9352    5.9610   -2.0607 S   0  0  0  0  0  0  0  0  0  0  0  0
    4.0141    7.1717   -1.4555 C   0  0  0  0  0  0  0  0  0  0  0  0
    3.5118    8.5021   -1.0147 C   0  0  0  0  0  0  0  0  0  0  0  0
    3.2846    9.4277   -2.2123 C   0  0  0  0  0  0  0  0  0  0  0  0
    5.3011    6.7302   -1.5213 C   0  0  0  0  0  0  0  0  0  0  0  0
    6.6570    7.6561   -1.0237 Cl  0  0  0  0  0  0  0  0  0  0  0  0
    5.4287    5.4134   -2.0399 C   0  0  0  0  0  0  0  0  0  0  0  0
    6.9528    4.6650   -2.2717 Cl  0  0  0  0  0  0  0  0  0  0  0  0
    4.4942    2.3956   -2.2430 C   0  0  0  0  0  0  0  0  0  0  0  0
    4.2880    1.0722   -2.7014 C   0  0  0  0  0  0  0  0  0  0  0  0
    3.5998    0.8382   -3.9042 C   0  0  0  0  0  0  0  0  0  0  0  0
    3.3818   -0.5024   -4.4203 C   0  0  0  0  0  0  0  0  0  0  0  0
    2.7477   -1.7822   -3.4251 S   0  0  0  0  0  0  0  0  0  0  0  0
    2.7520   -2.9162   -4.7324 C   0  0  0  0  0  0  0  0  0  0  0  0
    2.2689   -4.3099   -4.5361 C   0  0  0  0  0  0  0  0  0  0  0  0
    0.7565   -4.3489   -4.3120 C   0  0  0  0  0  0  0  0  0  0  0  0
    3.2155   -2.3225   -5.8675 C   0  0  0  0  0  0  0  0  0  0  0  0
    3.5720   -0.9574   -5.6961 C   0  0  0  0  0  0  0  0  0  0  0  0
    4.2523   -0.0238   -6.9611 Cl  0  0  0  0  0  0  0  0  0  0  0  0
    3.3735   -3.1253   -7.3760 Cl  0  0  0  0  0  0  0  0  0  0  0  0
    3.0446    1.9477   -4.5263 C   0  0  0  0  0  0  0  0  0  0  0  0
    1.9133    1.8776   -5.8424 S   0  0  0  0  0  0  0  0  0  0  0  0
    4.7509    0.1138   -1.7707 C   0  0  0  0  0  0  0  0  0  0  0  0
    5.2468    0.6590   -0.6246 C   0  0  0  0  0  0  0  0  0  0  0  0
    5.2716    2.4059   -0.6810 S   0  0  0  0  0  0  0  0  0  0  0  0
    5.5781   -0.1152    0.5358 C   0  0  0  0  0  0  0  0  0  0  0  0
    4.9192   -1.2591    0.8731 C   0  0  0  0  0  0  0  0  0  0  0  0
    5.4376   -1.8940    2.0269 C   0  0  0  0  0  0  0  0  0  0  0  0
    5.0024   -3.0895    2.6197 C   0  0  0  0  0  0  0  0  0  0  0  0
    3.9011   -3.8414    2.0392 C   0  0  0  0  0  0  0  0  0  0  0  0
    2.4821   -4.2446    2.9606 S   0  0  0  0  0  0  0  0  0  0  0  0
    1.7287   -5.0105    1.6053 C   0  0  0  0  0  0  0  0  0  0  0  0
    0.3507   -5.5696    1.6763 C   0  0  0  0  0  0  0  0  0  0  0  0
   -0.6621   -4.5852    1.0861 C   0  0  0  0  0  0  0  0  0  0  0  0
    2.5415   -4.9491    0.5126 C   0  0  0  0  0  0  0  0  0  0  0  0
    2.1313   -5.6126   -1.0125 Cl  0  0  0  0  0  0  0  0  0  0  0  0
    3.7731   -4.2879    0.7528 C   0  0  0  0  0  0  0  0  0  0  0  0
    4.9885   -4.1398   -0.4511 Cl  0  0  0  0  0  0  0  0  0  0  0  0
    5.6738   -3.5052    3.7608 C   0  0  0  0  0  0  0  0  0  0  0  0
    6.7670   -2.7934    4.3096 C   0  0  0  0  0  0  0  0  0  0  0  0
    7.1975   -1.5967    3.7166 C   0  0  0  0  0  0  0  0  0  0  0  0
    8.3114   -0.8390    4.2655 C   0  0  0  0  0  0  0  0  0  0  0  0
    8.1198    0.8224    4.7369 S   0  0  0  0  0  0  0  0  0  0  0  0
    9.7710    0.9500    5.2402 C   0  0  0  0  0  0  0  0  0  0  0  0
   10.3194    2.2368    5.7494 C   0  0  0  0  0  0  0  0  0  0  0  0
   10.6030    3.2038    4.5978 C   0  0  0  0  0  0  0  0  0  0  0  0
   10.4207   -0.2308    5.0382 C   0  0  0  0  0  0  0  0  0  0  0  0
    9.5937   -1.2502    4.4927 C   0  0  0  0  0  0  0  0  0  0  0  0
   10.1826   -2.8141    4.0999 Cl  0  0  0  0  0  0  0  0  0  0  0  0
   12.0771   -0.4908    5.4052 Cl  0  0  0  0  0  0  0  0  0  0  0  0
    6.5120   -1.1653    2.5889 C   0  0  0  0  0  0  0  0  0  0  0  0
    6.8580    0.2715    1.6622 S   0  0  0  0  0  0  0  0  0  0  0  0
    7.2776   -3.4401    5.4739 C   0  0  0  0  0  0  0  0  0  0  0  0
    6.6227   -4.5816    5.7673 C   0  0  0  0  0  0  0  0  0  0  0  0
    5.3317   -4.9447    4.6752 S   0  0  0  0  0  0  0  0  0  0  0  0
    5.6908   -5.1307    9.0862 H   0  0  0  0  0  0  0  0  0  0  0  0
    4.4201   -0.3724    8.1713 H   0  0  0  0  0  0  0  0  0  0  0  0
    3.2407    0.3372    7.0577 H   0  0  0  0  0  0  0  0  0  0  0  0
    4.0632   -1.1713    5.2410 H   0  0  0  0  0  0  0  0  0  0  0  0
    5.3257   -0.0903    5.8371 H   0  0  0  0  0  0  0  0  0  0  0  0
    5.3078   -1.7843    6.3326 H   0  0  0  0  0  0  0  0  0  0  0  0
    1.3009   -2.1901    9.0734 H   0  0  0  0  0  0  0  0  0  0  0  0
    2.7235   -1.4052    9.7628 H   0  0  0  0  0  0  0  0  0  0  0  0
    0.6747    0.0324    8.0092 H   0  0  0  0  0  0  0  0  0  0  0  0
    0.6040    0.0096    9.7738 H   0  0  0  0  0  0  0  0  0  0  0  0
    1.9579    0.7901    8.9595 H   0  0  0  0  0  0  0  0  0  0  0  0
    5.2559   -2.5605    8.9552 H   0  0  0  0  0  0  0  0  0  0  0  0
   -0.4936   -1.9278    5.1306 H   0  0  0  0  0  0  0  0  0  0  0  0
   -5.5188   -8.2698    3.4445 H   0  0  0  0  0  0  0  0  0  0  0  0
   -4.3549   -7.8977    4.7286 H   0  0  0  0  0  0  0  0  0  0  0  0
   -6.5832   -6.9262    5.2084 H   0  0  0  0  0  0  0  0  0  0  0  0
   -6.5374   -6.0147    3.7014 H   0  0  0  0  0  0  0  0  0  0  0  0
   -5.3954   -5.6408    4.9964 H   0  0  0  0  0  0  0  0  0  0  0  0
   -2.2765   -7.4634    1.7061 H   0  0  0  0  0  0  0  0  0  0  0  0
   -2.3760   -8.2753    3.2717 H   0  0  0  0  0  0  0  0  0  0  0  0
   -4.2642   -8.8386    0.9441 H   0  0  0  0  0  0  0  0  0  0  0  0
   -2.8078   -9.7764    1.2875 H   0  0  0  0  0  0  0  0  0  0  0  0
   -4.1369   -9.7696    2.4416 H   0  0  0  0  0  0  0  0  0  0  0  0
   -1.6145   -6.5991    4.6097 H   0  0  0  0  0  0  0  0  0  0  0  0
   -6.3322   -5.5952   -0.3436 H   0  0  0  0  0  0  0  0  0  0  0  0
   -7.2081   -0.9308    0.2930 H   0  0  0  0  0  0  0  0  0  0  0  0
   -8.8317    4.0770    2.4673 H   0  0  0  0  0  0  0  0  0  0  0  0
   -7.4893    2.9783    2.8438 H   0  0  0  0  0  0  0  0  0  0  0  0
   -5.9342    4.4448    1.5556 H   0  0  0  0  0  0  0  0  0  0  0  0
   -7.2710    5.5389    1.1858 H   0  0  0  0  0  0  0  0  0  0  0  0
   -6.7262    5.3439    2.8550 H   0  0  0  0  0  0  0  0  0  0  0  0
   -5.2798   -5.2879   -8.5403 H   0  0  0  0  0  0  0  0  0  0  0  0
   -4.2225   -5.3946   -7.1191 H   0  0  0  0  0  0  0  0  0  0  0  0
   -5.4995   -7.5015   -7.4163 H   0  0  0  0  0  0  0  0  0  0  0  0
   -7.0208   -6.6073   -7.3390 H   0  0  0  0  0  0  0  0  0  0  0  0
   -5.9781   -6.6981   -5.9159 H   0  0  0  0  0  0  0  0  0  0  0  0
   -6.0044    0.1978   -6.5074 H   0  0  0  0  0  0  0  0  0  0  0  0
   -5.4764    7.5015   -6.0661 H   0  0  0  0  0  0  0  0  0  0  0  0
   -4.8489    6.5136   -4.7427 H   0  0  0  0  0  0  0  0  0  0  0  0
   -4.4337    8.8658   -4.2943 H   0  0  0  0  0  0  0  0  0  0  0  0
   -3.4885    9.0393   -5.7730 H   0  0  0  0  0  0  0  0  0  0  0  0
   -2.9089    7.9964   -4.4805 H   0  0  0  0  0  0  0  0  0  0  0  0
   -4.9741    6.6431   -8.3419 H   0  0  0  0  0  0  0  0  0  0  0  0
   -3.3357    6.0809   -8.6739 H   0  0  0  0  0  0  0  0  0  0  0  0
   -2.4744    8.3514   -7.9280 H   0  0  0  0  0  0  0  0  0  0  0  0
   -3.4411    8.3645   -9.4046 H   0  0  0  0  0  0  0  0  0  0  0  0
   -4.1546    8.9124   -7.8918 H   0  0  0  0  0  0  0  0  0  0  0  0
   -6.2845    4.9219   -5.7097 H   0  0  0  0  0  0  0  0  0  0  0  0
    0.2687    6.1602   -5.5923 H   0  0  0  0  0  0  0  0  0  0  0  0
    2.3139    5.2316   -4.5155 H   0  0  0  0  0  0  0  0  0  0  0  0
    4.2482    8.9465   -0.3430 H   0  0  0  0  0  0  0  0  0  0  0  0
    2.5734    8.3748   -0.4720 H   0  0  0  0  0  0  0  0  0  0  0  0
    2.5425    9.0011   -2.8830 H   0  0  0  0  0  0  0  0  0  0  0  0
    2.9316   10.3977   -1.8729 H   0  0  0  0  0  0  0  0  0  0  0  0
    4.2119    9.5671   -2.7622 H   0  0  0  0  0  0  0  0  0  0  0  0
    2.5301   -4.8950   -5.4193 H   0  0  0  0  0  0  0  0  0  0  0  0
    2.7700   -4.7466   -3.6696 H   0  0  0  0  0  0  0  0  0  0  0  0
    0.2343   -3.9393   -5.1731 H   0  0  0  0  0  0  0  0  0  0  0  0
    0.4915   -3.7641   -3.4341 H   0  0  0  0  0  0  0  0  0  0  0  0
    0.4292   -5.3737   -4.1589 H   0  0  0  0  0  0  0  0  0  0  0  0
    4.7055   -0.9465   -1.9320 H   0  0  0  0  0  0  0  0  0  0  0  0
    4.0677   -1.6183    0.3265 H   0  0  0  0  0  0  0  0  0  0  0  0
    0.0979   -5.7816    2.7154 H   0  0  0  0  0  0  0  0  0  0  0  0
    0.3191   -6.5038    1.1103 H   0  0  0  0  0  0  0  0  0  0  0  0
   -0.6513   -3.6520    1.6440 H   0  0  0  0  0  0  0  0  0  0  0  0
   -0.4215   -4.3717    0.0480 H   0  0  0  0  0  0  0  0  0  0  0  0
   -1.6638   -5.0048    1.1295 H   0  0  0  0  0  0  0  0  0  0  0  0
    9.6012    2.6918    6.4344 H   0  0  0  0  0  0  0  0  0  0  0  0
   11.2420    2.0317    6.2949 H   0  0  0  0  0  0  0  0  0  0  0  0
   10.9973    4.1395    4.9847 H   0  0  0  0  0  0  0  0  0  0  0  0
   11.3317    2.7741    3.9152 H   0  0  0  0  0  0  0  0  0  0  0  0
    9.6893    3.4099    4.0454 H   0  0  0  0  0  0  0  0  0  0  0  0
    8.0942   -3.0548    6.0557 H   0  0  0  0  0  0  0  0  0  0  0  0
    6.8115   -5.2584    6.5769 H   0  0  0  0  0  0  0  0  0  0  0  0
  1  2  1  0  0  0  0
  2  3  1  0  0  0  0
  3  4  1  0  0  0  0
  4  5  2  0  0  0  0
  5  6  1  0  0  0  0
  6  7  1  0  0  0  0
  7  8  1  0  0  0  0
  8  9  1  0  0  0  0
  7 10  1  0  0  0  0
 10 11  1  0  0  0  0
  7 12  1  0  0  0  0
 12 13  1  0  0  0  0
  5 14  1  0  0  0  0
 14 15  2  0  0  0  0
 15 16  1  0  0  0  0
 15 17  1  0  0  0  0
 17 18  1  0  0  0  0
 18 19  1  0  0  0  0
 19 20  1  0  0  0  0
 20 21  2  0  0  0  0
 21 22  1  0  0  0  0
 22 23  1  0  0  0  0
 23 24  1  0  0  0  0
 24 25  1  0  0  0  0
 23 26  1  0  0  0  0
 26 27  1  0  0  0  0
 23 28  1  0  0  0  0
 28 29  1  0  0  0  0
 21 30  1  0  0  0  0
 30 31  2  0  0  0  0
 31 32  1  0  0  0  0
 31 33  1  0  0  0  0
 33 34  2  0  0  0  0
 34 35  1  0  0  0  0
 35 36  2  0  0  0  0
 36 37  1  0  0  0  0
 37 38  1  0  0  0  0
 38 39  1  0  0  0  0
 39 40  1  0  0  0  0
 40 41  1  0  0  0  0
 39 42  2  0  0  0  0
 42 43  1  0  0  0  0
 42 44  1  0  0  0  0
 44 45  1  0  0  0  0
 36 46  1  0  0  0  0
 46 47  2  0  0  0  0
 47 48  1  0  0  0  0
 48 49  1  0  0  0  0
 49 50  1  0  0  0  0
 50 51  1  0  0  0  0
 51 52  1  0  0  0  0
 52 53  1  0  0  0  0
 51 54  2  0  0  0  0
 54 55  1  0  0  0  0
 55 56  1  0  0  0  0
 54 57  1  0  0  0  0
 48 58  2  0  0  0  0
 58 59  1  0  0  0  0
 47 60  1  0  0  0  0
 60 61  2  0  0  0  0
 61 62  1  0  0  0  0
 61 63  1  0  0  0  0
 63 64  1  0  0  0  0
 64 65  1  0  0  0  0
 65 66  1  0  0  0  0
 66 67  2  0  0  0  0
 67 68  1  0  0  0  0
 68 69  1  0  0  0  0
 69 70  1  0  0  0  0
 70 71  1  0  0  0  0
 69 72  1  0  0  0  0
 72 73  1  0  0  0  0
 69 74  1  0  0  0  0
 74 75  1  0  0  0  0
 67 76  1  0  0  0  0
 76 77  2  0  0  0  0
 77 78  1  0  0  0  0
 77 79  1  0  0  0  0
 79 80  2  0  0  0  0
 80 81  1  0  0  0  0
 81 82  2  0  0  0  0
 82 83  1  0  0  0  0
 83 84  1  0  0  0  0
 84 85  1  0  0  0  0
 85 86  1  0  0  0  0
 86 87  1  0  0  0  0
 85 88  2  0  0  0  0
 88 89  1  0  0  0  0
 88 90  1  0  0  0  0
 90 91  1  0  0  0  0
 82 92  1  0  0  0  0
 92 93  2  0  0  0  0
 93 94  1  0  0  0  0
 94 95  1  0  0  0  0
 95 96  1  0  0  0  0
 96 97  1  0  0  0  0
 97 98  1  0  0  0  0
 98 99  1  0  0  0  0
 97100  2  0  0  0  0
100101  1  0  0  0  0
101102  1  0  0  0  0
100103  1  0  0  0  0
 94104  2  0  0  0  0
104105  1  0  0  0  0
 93106  1  0  0  0  0
106107  2  0  0  0  0
107108  1  0  0  0  0
107109  1  0  0  0  0
109110  2  0  0  0  0
110111  1  0  0  0  0
111112  2  0  0  0  0
112113  1  0  0  0  0
113114  1  0  0  0  0
114115  1  0  0  0  0
115116  1  0  0  0  0
116117  1  0  0  0  0
115118  2  0  0  0  0
118119  1  0  0  0  0
118120  1  0  0  0  0
120121  1  0  0  0  0
112122  1  0  0  0  0
122123  2  0  0  0  0
123124  1  0  0  0  0
124125  1  0  0  0  0
125126  1  0  0  0  0
126127  1  0  0  0  0
127128  1  0  0  0  0
128129  1  0  0  0  0
127130  2  0  0  0  0
130131  1  0  0  0  0
131132  1  0  0  0  0
130133  1  0  0  0  0
124134  2  0  0  0  0
134135  1  0  0  0  0
123136  1  0  0  0  0
136137  2  0  0  0  0
137138  1  0  0  0  0
 13  1  2  0  0  0  0
 29 17  2  0  0  0  0
 59 33  1  0  0  0  0
 75 63  2  0  0  0  0
105 79  1  0  0  0  0
135109  1  0  0  0  0
 12  3  2  0  0  0  0
 28 19  2  0  0  0  0
 58 35  1  0  0  0  0
 74 65  2  0  0  0  0
104 81  1  0  0  0  0
134111  1  0  0  0  0
 16  4  1  0  0  0  0
 32 20  1  0  0  0  0
 44 37  2  0  0  0  0
 62 46  1  0  0  0  0
 78 66  1  0  0  0  0
 90 83  2  0  0  0  0
108 92  1  0  0  0  0
120113  2  0  0  0  0
138122  1  0  0  0  0
 55 49  2  0  0  0  0
101 95  2  0  0  0  0
131125  2  0  0  0  0
  1139  1  0  0  0  0
  8140  1  0  0  0  0
  8141  1  0  0  0  0
  9142  1  0  0  0  0
  9143  1  0  0  0  0
  9144  1  0  0  0  0
 10145  1  0  0  0  0
 10146  1  0  0  0  0
 11147  1  0  0  0  0
 11148  1  0  0  0  0
 11149  1  0  0  0  0
 13150  1  0  0  0  0
 14151  1  0  0  0  0
 24152  1  0  0  0  0
 24153  1  0  0  0  0
 25154  1  0  0  0  0
 25155  1  0  0  0  0
 25156  1  0  0  0  0
 26157  1  0  0  0  0
 26158  1  0  0  0  0
 27159  1  0  0  0  0
 27160  1  0  0  0  0
 27161  1  0  0  0  0
 29162  1  0  0  0  0
 30163  1  0  0  0  0
 34164  1  0  0  0  0
 40165  1  0  0  0  0
 40166  1  0  0  0  0
 41167  1  0  0  0  0
 41168  1  0  0  0  0
 41169  1  0  0  0  0
 52170  1  0  0  0  0
 52171  1  0  0  0  0
 53172  1  0  0  0  0
 53173  1  0  0  0  0
 53174  1  0  0  0  0
 60175  1  0  0  0  0
 70176  1  0  0  0  0
 70177  1  0  0  0  0
 71178  1  0  0  0  0
 71179  1  0  0  0  0
 71180  1  0  0  0  0
 72181  1  0  0  0  0
 72182  1  0  0  0  0
 73183  1  0  0  0  0
 73184  1  0  0  0  0
 73185  1  0  0  0  0
 75186  1  0  0  0  0
 76187  1  0  0  0  0
 80188  1  0  0  0  0
 86189  1  0  0  0  0
 86190  1  0  0  0  0
 87191  1  0  0  0  0
 87192  1  0  0  0  0
 87193  1  0  0  0  0
 98194  1  0  0  0  0
 98195  1  0  0  0  0
 99196  1  0  0  0  0
 99197  1  0  0  0  0
 99198  1  0  0  0  0
106199  1  0  0  0  0
110200  1  0  0  0  0
116201  1  0  0  0  0
116202  1  0  0  0  0
117203  1  0  0  0  0
117204  1  0  0  0  0
117205  1  0  0  0  0
128206  1  0  0  0  0
128207  1  0  0  0  0
129208  1  0  0  0  0
129209  1  0  0  0  0
129210  1  0  0  0  0
136211  1  0  0  0  0
137212  1  0  0  0  0
M  END
