
  xtb     03012205123D
 energy: -248.115479638895 gnorm: 0.000921640859 xtb: 6.4.1 (unknown)
150167  0     0  0            999 V2000
   10.5033   -2.4406    6.7654 C   0  0  0  0  0  0  0  0  0  0  0  0
    9.6192   -1.5545    6.2949 C   0  0  0  0  0  0  0  0  0  0  0  0
    9.8443   -0.1967    6.6809 C   0  0  0  0  0  0  0  0  0  0  0  0
   11.2732   -0.0783    7.6994 S   0  0  0  0  0  3  0  0  0  0  0  0
   11.5839   -1.8768    7.6171 C   0  0  0  0  0  0  0  0  0  0  0  0
    9.0925    0.8941    6.3429 C   0  0  0  0  0  0  0  0  0  0  0  0
    9.2978    2.2435    6.7195 C   0  0  0  0  0  0  0  0  0  0  0  0
    8.3690    3.1068    6.2285 C   0  0  0  0  0  0  0  0  0  0  0  0
    7.3719    2.4983    5.4352 C   0  0  0  0  0  0  0  0  0  0  0  0
    7.6594    0.7657    5.3260 S   0  0  0  0  0  0  0  0  0  0  0  0
    6.3005    3.0965    4.8157 C   0  0  0  0  0  0  0  0  0  0  0  0
    6.0003    4.8294    4.9329 S   0  0  0  0  0  3  0  0  0  0  0  0
    4.4871    4.7132    3.9240 C   0  0  0  0  0  0  0  0  0  0  0  0
    4.3281    3.2718    3.5471 C   0  0  0  0  0  0  0  0  0  0  0  0
    5.3128    2.4631    4.0404 C   0  0  0  0  0  0  0  0  0  0  0  0
    3.2248    2.8626    2.7693 C   0  0  0  0  0  0  0  0  0  0  0  0
    2.0074    4.0160    2.2652 S   0  0  0  0  0  0  0  0  0  0  0  0
    1.1127    2.7644    1.4722 C   0  0  0  0  0  0  0  0  0  0  0  0
   -0.1549    2.8502    0.8789 C   0  0  0  0  0  0  0  0  0  0  0  0
   -0.8192    1.6626    0.5568 C   0  0  0  0  0  0  0  0  0  0  0  0
   -0.2732    0.4428    0.7199 O   0  0  0  0  0  0  0  0  0  0  0  0
    1.1614    0.3333    0.8555 C   0  0  0  0  0  0  0  0  0  0  0  0
    1.7464    0.2917   -0.5750 C   0  0  0  0  0  0  0  0  0  0  0  0
    3.2454    0.0437   -0.6456 C   0  0  0  0  0  0  0  0  0  0  0  0
    1.3930   -0.9656    1.6435 C   0  0  0  0  0  0  0  0  0  0  0  0
    0.8032   -2.2005    0.9716 C   0  0  0  0  0  0  0  0  0  0  0  0
    1.7396    1.5241    1.5808 C   0  0  0  0  0  0  0  0  0  0  0  0
    2.9174    1.5876    2.3138 C   0  0  0  0  0  0  0  0  0  0  0  0
   -2.1279    1.8654    0.1323 C   0  0  0  0  0  0  0  0  0  0  0  0
   -2.4942    3.2070    0.1047 C   0  0  0  0  0  0  0  0  0  0  0  0
   -1.1619    4.2312    0.5999 S   0  0  0  0  0  0  0  0  0  0  0  0
   -3.7539    3.7503   -0.2049 C   0  0  0  0  0  0  0  0  0  0  0  0
   -4.9020    3.0205   -0.3877 C   0  0  0  0  0  0  0  0  0  0  0  0
   -6.0833    3.7509   -0.5462 C   0  0  0  0  0  0  0  0  0  0  0  0
   -5.7673    5.4789   -0.5564 S   0  0  0  0  0  3  0  0  0  0  0  0
   -3.9783    5.2298   -0.2785 C   0  0  0  0  0  0  0  0  0  0  0  0
   -7.3551    3.1968   -0.5919 C   0  0  0  0  0  0  0  0  0  0  0  0
   -8.6192    3.7978   -0.6223 C   0  0  0  0  0  0  0  0  0  0  0  0
   -9.6668    2.9082   -0.5375 C   0  0  0  0  0  0  0  0  0  0  0  0
   -9.2730    1.5711   -0.4424 C   0  0  0  0  0  0  0  0  0  0  0  0
   -7.5223    1.4561   -0.5012 S   0  0  0  0  0  0  0  0  0  0  0  0
   -9.9973    0.3962   -0.2583 C   0  0  0  0  0  0  0  0  0  0  0  0
  -11.7427    0.2773   -0.0872 S   0  0  0  0  0  3  0  0  0  0  0  0
  -11.6646   -1.5315    0.2219 C   0  0  0  0  0  0  0  0  0  0  0  0
  -10.2198   -1.9241    0.1495 C   0  0  0  0  0  0  0  0  0  0  0  0
   -9.3981   -0.8472   -0.1237 C   0  0  0  0  0  0  0  0  0  0  0  0
   -9.7364   -3.2180    0.3657 C   0  0  0  0  0  0  0  0  0  0  0  0
   -8.3952   -3.5432    0.2739 C   0  0  0  0  0  0  0  0  0  0  0  0
   -8.0358   -4.8507    0.5679 C   0  0  0  0  0  0  0  0  0  0  0  0
   -9.4444   -5.8103    0.9908 S   0  0  0  0  0  3  0  0  0  0  0  0
  -10.5840   -4.3922    0.7496 C   0  0  0  0  0  0  0  0  0  0  0  0
   -6.7167   -5.3085    0.5334 C   0  0  0  0  0  0  0  0  0  0  0  0
   -5.6169   -4.5328    0.1413 C   0  0  0  0  0  0  0  0  0  0  0  0
   -4.4190   -5.1931    0.1972 C   0  0  0  0  0  0  0  0  0  0  0  0
   -4.5213   -6.5177    0.6397 C   0  0  0  0  0  0  0  0  0  0  0  0
   -6.1904   -6.9138    0.9834 S   0  0  0  0  0  0  0  0  0  0  0  0
   -3.4490   -7.3993    0.7780 C   0  0  0  0  0  0  0  0  0  0  0  0
   -3.5885   -9.0334    1.4044 S   0  0  0  0  0  3  0  0  0  0  0  0
   -1.7956   -9.3438    1.2082 C   0  0  0  0  0  0  0  0  0  0  0  0
   -1.2019   -8.1011    0.6162 C   0  0  0  0  0  0  0  0  0  0  0  0
   -2.1371   -7.1010    0.4285 C   0  0  0  0  0  0  0  0  0  0  0  0
    0.1496   -7.9991    0.2726 C   0  0  0  0  0  0  0  0  0  0  0  0
    0.7385   -6.9050   -0.3338 C   0  0  0  0  0  0  0  0  0  0  0  0
    2.0846   -7.0245   -0.6574 C   0  0  0  0  0  0  0  0  0  0  0  0
    2.7320   -8.5829   -0.1496 S   0  0  0  0  0  3  0  0  0  0  0  0
    1.1139   -9.1243    0.5039 C   0  0  0  0  0  0  0  0  0  0  0  0
    2.8535   -6.0903   -1.3377 C   0  0  0  0  0  0  0  0  0  0  0  0
    4.1865   -6.1935   -1.7551 C   0  0  0  0  0  0  0  0  0  0  0  0
    4.6323   -5.1159   -2.4746 C   0  0  0  0  0  0  0  0  0  0  0  0
    3.6709   -4.1084   -2.6534 C   0  0  0  0  0  0  0  0  0  0  0  0
    2.1719   -4.5577   -1.8577 S   0  0  0  0  0  0  0  0  0  0  0  0
    3.8003   -2.9275   -3.3612 C   0  0  0  0  0  0  0  0  0  0  0  0
    5.2988   -2.5263   -4.1918 S   0  0  0  0  0  3  0  0  0  0  0  0
    4.6090   -0.9729   -4.8427 C   0  0  0  0  0  0  0  0  0  0  0  0
    3.2140   -0.8571   -4.3070 C   0  0  0  0  0  0  0  0  0  0  0  0
    2.8333   -1.9260   -3.5410 C   0  0  0  0  0  0  0  0  0  0  0  0
    2.4527    0.2955   -4.6039 C   0  0  0  0  0  0  0  0  0  0  0  0
    3.0938    1.5084   -5.6948 S   0  0  0  0  0  0  0  0  0  0  0  0
    1.6952    2.4926   -5.4670 C   0  0  0  0  0  0  0  0  0  0  0  0
    1.4028    3.7406   -6.0598 C   0  0  0  0  0  0  0  0  0  0  0  0
    0.1742    4.3246   -5.8013 C   0  0  0  0  0  0  0  0  0  0  0  0
   -0.7724    3.7870   -5.0164 O   0  0  0  0  0  0  0  0  0  0  0  0
   -0.4693    2.6518   -4.1777 C   0  0  0  0  0  0  0  0  0  0  0  0
   -1.6892    1.7141   -4.2914 C   0  0  0  0  0  0  0  0  0  0  0  0
   -3.0040    2.3681   -3.8823 C   0  0  0  0  0  0  0  0  0  0  0  0
   -0.2990    3.1720   -2.7338 C   0  0  0  0  0  0  0  0  0  0  0  0
    0.9937    3.9492   -2.5127 C   0  0  0  0  0  0  0  0  0  0  0  0
    0.7824    1.9163   -4.5970 C   0  0  0  0  0  0  0  0  0  0  0  0
    1.2106    0.6776   -4.1217 C   0  0  0  0  0  0  0  0  0  0  0  0
    0.0011    5.5471   -6.4878 C   0  0  0  0  0  0  0  0  0  0  0  0
    1.0881    5.8701   -7.2389 C   0  0  0  0  0  0  0  0  0  0  0  0
    2.3504    4.7064   -7.1398 S   0  0  0  0  0  0  0  0  0  0  0  0
   10.4828   -3.4989    6.5732 H   0  0  0  0  0  0  0  0  0  0  0  0
    8.7795   -1.7970    5.6657 H   0  0  0  0  0  0  0  0  0  0  0  0
   11.5701   -2.2795    8.6326 H   0  0  0  0  0  0  0  0  0  0  0  0
   12.5783   -2.0398    7.1952 H   0  0  0  0  0  0  0  0  0  0  0  0
   10.1304    2.5166    7.3439 H   0  0  0  0  0  0  0  0  0  0  0  0
    8.3550    4.1682    6.4056 H   0  0  0  0  0  0  0  0  0  0  0  0
    4.5977    5.3560    3.0480 H   0  0  0  0  0  0  0  0  0  0  0  0
    3.6434    5.0779    4.5141 H   0  0  0  0  0  0  0  0  0  0  0  0
    5.3601    1.4004    3.8755 H   0  0  0  0  0  0  0  0  0  0  0  0
    1.5211    1.2515   -1.0477 H   0  0  0  0  0  0  0  0  0  0  0  0
    1.2152   -0.4845   -1.1267 H   0  0  0  0  0  0  0  0  0  0  0  0
    3.7862    0.7679   -0.0409 H   0  0  0  0  0  0  0  0  0  0  0  0
    3.4962   -0.9572   -0.3045 H   0  0  0  0  0  0  0  0  0  0  0  0
    3.5790    0.1421   -1.6757 H   0  0  0  0  0  0  0  0  0  0  0  0
    2.4628   -1.1041    1.7917 H   0  0  0  0  0  0  0  0  0  0  0  0
    0.9287   -0.8351    2.6236 H   0  0  0  0  0  0  0  0  0  0  0  0
    1.3410   -2.4517    0.0611 H   0  0  0  0  0  0  0  0  0  0  0  0
    0.8695   -3.0508    1.6463 H   0  0  0  0  0  0  0  0  0  0  0  0
   -0.2420   -2.0307    0.7291 H   0  0  0  0  0  0  0  0  0  0  0  0
    3.5474    0.7440    2.5248 H   0  0  0  0  0  0  0  0  0  0  0  0
   -2.7892    1.0640   -0.1366 H   0  0  0  0  0  0  0  0  0  0  0  0
   -4.9307    1.9451   -0.3588 H   0  0  0  0  0  0  0  0  0  0  0  0
   -3.6934    5.7381    0.6454 H   0  0  0  0  0  0  0  0  0  0  0  0
   -3.4321    5.6884   -1.1055 H   0  0  0  0  0  0  0  0  0  0  0  0
   -8.7277    4.8665   -0.6847 H   0  0  0  0  0  0  0  0  0  0  0  0
  -10.7059    3.1874   -0.5259 H   0  0  0  0  0  0  0  0  0  0  0  0
  -12.2721   -2.0322   -0.5347 H   0  0  0  0  0  0  0  0  0  0  0  0
  -12.1026   -1.7258    1.2033 H   0  0  0  0  0  0  0  0  0  0  0  0
   -8.3290   -0.9246   -0.2060 H   0  0  0  0  0  0  0  0  0  0  0  0
   -7.6508   -2.8212    0.0004 H   0  0  0  0  0  0  0  0  0  0  0  0
  -11.3028   -4.6625   -0.0271 H   0  0  0  0  0  0  0  0  0  0  0  0
  -11.1274   -4.2284    1.6826 H   0  0  0  0  0  0  0  0  0  0  0  0
   -5.7057   -3.5122   -0.1808 H   0  0  0  0  0  0  0  0  0  0  0  0
   -3.4828   -4.7373   -0.0660 H   0  0  0  0  0  0  0  0  0  0  0  0
   -1.6677  -10.2159    0.5633 H   0  0  0  0  0  0  0  0  0  0  0  0
   -1.3801   -9.5773    2.1912 H   0  0  0  0  0  0  0  0  0  0  0  0
   -1.8751   -6.1432    0.0199 H   0  0  0  0  0  0  0  0  0  0  0  0
    0.2086   -6.0019   -0.5822 H   0  0  0  0  0  0  0  0  0  0  0  0
    0.8219  -10.0371   -0.0204 H   0  0  0  0  0  0  0  0  0  0  0  0
    1.2322   -9.3579    1.5645 H   0  0  0  0  0  0  0  0  0  0  0  0
    4.7737   -7.0651   -1.5241 H   0  0  0  0  0  0  0  0  0  0  0  0
    5.6205   -5.0182   -2.8888 H   0  0  0  0  0  0  0  0  0  0  0  0
    5.2434   -0.1442   -4.5209 H   0  0  0  0  0  0  0  0  0  0  0  0
    4.6265   -1.0132   -5.9343 H   0  0  0  0  0  0  0  0  0  0  0  0
    1.8599   -2.0279   -3.0932 H   0  0  0  0  0  0  0  0  0  0  0  0
   -1.5118    0.8314   -3.6770 H   0  0  0  0  0  0  0  0  0  0  0  0
   -1.7566    1.3932   -5.3338 H   0  0  0  0  0  0  0  0  0  0  0  0
   -3.8345    1.7167   -4.1438 H   0  0  0  0  0  0  0  0  0  0  0  0
   -3.0382    2.5467   -2.8108 H   0  0  0  0  0  0  0  0  0  0  0  0
   -3.1291    3.3138   -4.4020 H   0  0  0  0  0  0  0  0  0  0  0  0
   -0.3404    2.3170   -2.0572 H   0  0  0  0  0  0  0  0  0  0  0  0
   -1.1447    3.8247   -2.5160 H   0  0  0  0  0  0  0  0  0  0  0  0
    1.8663    3.3179   -2.6703 H   0  0  0  0  0  0  0  0  0  0  0  0
    1.0538    4.7965   -3.1924 H   0  0  0  0  0  0  0  0  0  0  0  0
    1.0263    4.3296   -1.4943 H   0  0  0  0  0  0  0  0  0  0  0  0
    0.6530    0.0706   -3.4339 H   0  0  0  0  0  0  0  0  0  0  0  0
   -0.8896    6.1426   -6.4170 H   0  0  0  0  0  0  0  0  0  0  0  0
    1.2286    6.7375   -7.8518 H   0  0  0  0  0  0  0  0  0  0  0  0
  1  2  2  0  0  0  0
  2  3  1  0  0  0  0
  3  4  2  0  0  0  0
  4  5  1  0  0  0  0
  3  6  1  0  0  0  0
  6  7  2  0  0  0  0
  7  8  1  0  0  0  0
  8  9  2  0  0  0  0
  9 10  1  0  0  0  0
  9 11  1  0  0  0  0
 11 12  2  0  0  0  0
 12 13  1  0  0  0  0
 13 14  1  0  0  0  0
 14 15  2  0  0  0  0
 14 16  1  0  0  0  0
 16 17  1  0  0  0  0
 17 18  1  0  0  0  0
 18 19  1  0  0  0  0
 19 20  2  0  0  0  0
 20 21  1  0  0  0  0
 21 22  1  0  0  0  0
 22 23  1  0  0  0  0
 23 24  1  0  0  0  0
 22 25  1  0  0  0  0
 25 26  1  0  0  0  0
 22 27  1  0  0  0  0
 27 28  1  0  0  0  0
 20 29  1  0  0  0  0
 29 30  2  0  0  0  0
 30 31  1  0  0  0  0
 30 32  1  0  0  0  0
 32 33  2  0  0  0  0
 33 34  1  0  0  0  0
 34 35  2  0  0  0  0
 35 36  1  0  0  0  0
 34 37  1  0  0  0  0
 37 38  2  0  0  0  0
 38 39  1  0  0  0  0
 39 40  2  0  0  0  0
 40 41  1  0  0  0  0
 40 42  1  0  0  0  0
 42 43  2  0  0  0  0
 43 44  1  0  0  0  0
 44 45  1  0  0  0  0
 45 46  2  0  0  0  0
 45 47  1  0  0  0  0
 47 48  2  0  0  0  0
 48 49  1  0  0  0  0
 49 50  2  0  0  0  0
 50 51  1  0  0  0  0
 49 52  1  0  0  0  0
 52 53  2  0  0  0  0
 53 54  1  0  0  0  0
 54 55  2  0  0  0  0
 55 56  1  0  0  0  0
 55 57  1  0  0  0  0
 57 58  2  0  0  0  0
 58 59  1  0  0  0  0
 59 60  1  0  0  0  0
 60 61  2  0  0  0  0
 60 62  1  0  0  0  0
 62 63  2  0  0  0  0
 63 64  1  0  0  0  0
 64 65  2  0  0  0  0
 65 66  1  0  0  0  0
 64 67  1  0  0  0  0
 67 68  2  0  0  0  0
 68 69  1  0  0  0  0
 69 70  2  0  0  0  0
 70 71  1  0  0  0  0
 70 72  1  0  0  0  0
 72 73  2  0  0  0  0
 73 74  1  0  0  0  0
 74 75  1  0  0  0  0
 75 76  2  0  0  0  0
 75 77  1  0  0  0  0
 77 78  1  0  0  0  0
 78 79  1  0  0  0  0
 79 80  1  0  0  0  0
 80 81  2  0  0  0  0
 81 82  1  0  0  0  0
 82 83  1  0  0  0  0
 83 84  1  0  0  0  0
 84 85  1  0  0  0  0
 83 86  1  0  0  0  0
 86 87  1  0  0  0  0
 83 88  1  0  0  0  0
 88 89  1  0  0  0  0
 81 90  1  0  0  0  0
 90 91  2  0  0  0  0
 91 92  1  0  0  0  0
  5  1  1  0  0  0  0
 10  6  1  0  0  0  0
 15 11  1  0  0  0  0
 28 16  2  0  0  0  0
 36 32  1  0  0  0  0
 41 37  1  0  0  0  0
 46 42  1  0  0  0  0
 51 47  1  0  0  0  0
 56 52  1  0  0  0  0
 61 57  1  0  0  0  0
 66 62  1  0  0  0  0
 71 67  1  0  0  0  0
 76 72  1  0  0  0  0
 89 77  2  0  0  0  0
 27 18  2  0  0  0  0
 88 79  2  0  0  0  0
 31 19  1  0  0  0  0
 92 80  1  0  0  0  0
  1 93  1  0  0  0  0
  2 94  1  0  0  0  0
  5 95  1  0  0  0  0
  5 96  1  0  0  0  0
  7 97  1  0  0  0  0
  8 98  1  0  0  0  0
 13 99  1  0  0  0  0
 13100  1  0  0  0  0
 15101  1  0  0  0  0
 23102  1  0  0  0  0
 23103  1  0  0  0  0
 24104  1  0  0  0  0
 24105  1  0  0  0  0
 24106  1  0  0  0  0
 25107  1  0  0  0  0
 25108  1  0  0  0  0
 26109  1  0  0  0  0
 26110  1  0  0  0  0
 26111  1  0  0  0  0
 28112  1  0  0  0  0
 29113  1  0  0  0  0
 33114  1  0  0  0  0
 36115  1  0  0  0  0
 36116  1  0  0  0  0
 38117  1  0  0  0  0
 39118  1  0  0  0  0
 44119  1  0  0  0  0
 44120  1  0  0  0  0
 46121  1  0  0  0  0
 48122  1  0  0  0  0
 51123  1  0  0  0  0
 51124  1  0  0  0  0
 53125  1  0  0  0  0
 54126  1  0  0  0  0
 59127  1  0  0  0  0
 59128  1  0  0  0  0
 61129  1  0  0  0  0
 63130  1  0  0  0  0
 66131  1  0  0  0  0
 66132  1  0  0  0  0
 68133  1  0  0  0  0
 69134  1  0  0  0  0
 74135  1  0  0  0  0
 74136  1  0  0  0  0
 76137  1  0  0  0  0
 84138  1  0  0  0  0
 84139  1  0  0  0  0
 85140  1  0  0  0  0
 85141  1  0  0  0  0
 85142  1  0  0  0  0
 86143  1  0  0  0  0
 86144  1  0  0  0  0
 87145  1  0  0  0  0
 87146  1  0  0  0  0
 87147  1  0  0  0  0
 89148  1  0  0  0  0
 90149  1  0  0  0  0
 91150  1  0  0  0  0
M  END
