146

C         -0.20910       -0.07900       14.47170
C         -0.63400        1.21740       14.19870
C         -1.03400        1.58460       12.92630
C         -1.03920        0.67150       11.86580
C         -0.65370       -0.63030       12.15430
C         -0.59040       -1.84330       11.29930
O         -0.95810       -2.01510       10.16170
N         -0.05140       -2.83220       12.10200
C          0.30370       -4.14360       11.60510
C          1.76890       -4.17710       11.18340
C          0.18840       -2.41180       13.40060
O          0.63420       -3.10150       14.28170
C         -0.22800       -0.98770       13.43450
C         -1.40910        1.07590       10.50680
C         -2.56450        1.82570       10.24720
C         -2.93320        2.15720        8.96520
C         -2.19430        1.75170        7.83370
C         -1.03300        1.01880        8.09840
C         -0.00010        0.46340        7.19600
O          0.07780        0.47610        5.99080
N          0.96170       -0.10010        8.01840
C          2.11160       -0.81970        7.51660
C          1.72270       -2.23700        7.11090
C          0.66880        0.02910        9.35850
O          1.40240       -0.31480       10.25540
C         -0.64570        0.71760        9.40830
C         -2.66420        2.10740        6.51880
S         -2.33230        1.14200        5.11230
C         -3.25860        2.20850        4.13490
C         -3.51950        2.11070        2.74870
C         -4.36700        3.03370        2.15500
O         -5.01720        3.98710        2.84710
C         -4.48500        4.40220        4.12660
C         -3.48700        5.54400        3.81100
C         -2.79230        6.16590        5.01370
C         -5.70330        4.90200        4.91580
C         -6.69710        3.78200        5.20120
C         -3.77040        3.28340        4.84410
C         -3.44910        3.20120        6.20000
C         -4.51370        2.82930        0.77070
C         -3.79690        1.75220        0.31850
S         -2.93050        0.95970        1.61180
C         -3.61360        1.21500       -1.01120
C         -3.52420       -0.18240       -1.17540
C         -3.20880       -0.76130       -2.37670
C         -2.90610        0.01230       -3.51550
C         -3.05630        1.38850       -3.37440
C         -2.88590        2.46320       -4.37530
O         -2.61340        2.39490       -5.54940
N         -3.12080        3.64540       -3.69350
C         -3.08030        4.94790       -4.32130
C         -4.44260        5.33160       -4.88830
C         -3.44580        3.44920       -2.36170
O         -3.68270        4.34270       -1.58550
C         -3.42050        1.98070       -2.15710
C         -2.36120       -0.64150       -4.68010
S         -0.98770        0.02840       -5.51130
C         -0.82270       -1.41310       -6.44040
C          0.24740       -1.79240       -7.28310
C          0.33680       -3.12270       -7.67380
O         -0.59580       -4.05160       -7.39680
C         -1.89910       -3.61730       -6.96660
C         -2.48860       -4.75270       -6.10090
C         -1.99220       -6.15190       -6.45050
C         -2.75180       -3.28740       -8.21670
C         -2.94360       -4.44400       -9.18830
C         -1.81660       -2.33840       -6.16360
C         -2.67220       -1.89870       -5.15010
C          1.54890       -3.42610       -8.30790
C          2.38830       -2.33550       -8.40670
S          1.65910       -0.90240       -7.73350
C          3.71530       -2.30660       -8.91360
S          4.60380       -0.81010       -9.03170
C          6.00790       -1.65890       -9.56800
C          7.27380       -1.13040       -9.92150
C          8.20670       -1.98120      -10.48530
O          7.98050       -3.28550      -10.73280
C          6.93070       -3.95790      -10.01580
C          7.48380       -4.54100       -8.68030
C          9.00230       -4.67640       -8.63290
C          6.42450       -5.05350      -10.97270
C          7.50510       -6.02660      -11.42610
C          5.79300       -3.02180       -9.66680
C          4.49420       -3.38070       -9.29390
C          9.40630       -1.32010      -10.83080
C          9.36800        0.00260      -10.51600
S          7.88140        0.48410       -9.79670
H          0.12810       -0.36960       15.45410
H         -0.63700        1.95450       14.98780
H         -1.32490        2.60700       12.73290
H          0.11790       -4.86750       12.40230
H         -0.34850       -4.35250       10.75350
H          2.00830       -5.14060       10.74220
H          1.96450       -3.39330       10.45490
H          2.40930       -4.01530       12.04700
H         -3.19180        2.12260       11.07510
H         -3.84370        2.71570        8.81250
H          2.85310       -0.83330        8.31910
H          2.50530       -0.27200        6.65650
H          1.25200       -2.74920        7.94720
H          1.02020       -2.20620        6.28170
H          2.60530       -2.79190        6.80500
H         -2.73210        5.13280        3.13510
H         -4.03670        6.31130        3.26190
H         -2.10470        6.93630        4.67310
H         -3.50800        6.62780        5.68870
H         -2.22180        5.42020        5.56180
H         -6.18940        5.67530        4.31930
H         -5.36640        5.34780        5.85070
H         -7.56770        4.17580        5.71990
H         -7.02400        3.32920        4.26880
H         -6.24310        3.01030        5.81920
H         -3.74460        3.93490        6.92770
H         -5.11660        3.45610        0.14290
H         -3.69530       -0.80920       -0.31270
H         -3.12930       -1.83540       -2.44560
H         -2.76800        5.66710       -3.56030
H         -2.33570        4.90120       -5.11960
H         -4.38430        6.30990       -5.35710
H         -5.18370        5.36750       -4.09300
H         -4.75650        4.60400       -5.63320
H         -2.21920       -4.55650       -5.06040
H         -3.57590       -4.71290       -6.18070
H         -2.23840       -6.42430       -7.47060
H         -2.45200       -6.87290       -5.77780
H         -0.91400       -6.20730       -6.33420
H         -3.72020       -2.91570       -7.87630
H         -2.24800       -2.46780       -8.73730
H         -1.98390       -4.89390       -9.42980
H         -3.39430       -4.07770      -10.10810
H         -3.59820       -5.20350       -8.76990
H         -3.51300       -2.46040       -4.78470
H          1.79580       -4.40880       -8.66140
H          7.17140       -3.88780       -7.86110
H          7.02070       -5.51470       -8.51580
H          9.47730       -3.69850       -8.65550
H          9.37410       -5.25460       -9.47270
H          9.29120       -5.17370       -7.70950
H          6.00580       -4.55140      -11.84800
H          5.62070       -5.60200      -10.48130
H          7.85760       -6.63360      -10.59660
H          8.34420       -5.48240      -11.84960
H          7.10240       -6.69130      -12.18710
H          4.12870       -4.39000       -9.27200
H         10.24300       -1.81430      -11.28790
H         10.13760        0.73430      -10.65790
