
  xtb     02282223473D
 energy: -388.105808887172 gnorm: 0.000836590296 xtb: 6.4.1 (unknown)
212235  0     0  0            999 V2000
    3.7889   -1.6423   10.3126 C   0  0  0  0  0  0  0  0  0  0  0  0
    2.4903   -2.3960    9.4733 S   0  0  0  0  0  0  0  0  0  0  0  0
    1.8411   -0.8481    9.0644 C   0  0  0  0  0  0  0  0  0  0  0  0
    0.6578   -0.5557    8.3397 C   0  0  0  0  0  0  0  0  0  0  0  0
    0.2220    0.7592    8.2863 C   0  0  0  0  0  0  0  0  0  0  0  0
    0.8431    1.7658    8.9330 O   0  0  0  0  0  0  0  0  0  0  0  0
    2.2530    1.6199    9.2250 C   0  0  0  0  0  0  0  0  0  0  0  0
    3.0125    2.0507    7.9485 C   0  0  0  0  0  0  0  0  0  0  0  0
    4.5301    1.9905    8.0468 C   0  0  0  0  0  0  0  0  0  0  0  0
    2.5116    2.5311   10.4354 C   0  0  0  0  0  0  0  0  0  0  0  0
    2.1404    3.9898   10.1960 C   0  0  0  0  0  0  0  0  0  0  0  0
    2.6057    0.1880    9.5568 C   0  0  0  0  0  0  0  0  0  0  0  0
    3.7220   -0.2838   10.2771 C   0  0  0  0  0  0  0  0  0  0  0  0
   -0.9478    0.9140    7.5262 C   0  0  0  0  0  0  0  0  0  0  0  0
   -1.3939   -0.2724    6.9892 C   0  0  0  0  0  0  0  0  0  0  0  0
   -0.3772   -1.6116    7.4517 S   0  0  0  0  0  0  0  0  0  0  0  0
   -2.4514   -0.4901    6.0644 C   0  0  0  0  0  0  0  0  0  0  0  0
   -2.7798   -1.6723    5.4640 C   0  0  0  0  0  0  0  0  0  0  0  0
   -3.7692   -1.5472    4.4620 C   0  0  0  0  0  0  0  0  0  0  0  0
   -4.2640   -2.5457    3.6013 C   0  0  0  0  0  0  0  0  0  0  0  0
   -3.8003   -3.9196    3.6769 C   0  0  0  0  0  0  0  0  0  0  0  0
   -2.1045   -4.3089    3.7159 S   0  0  0  0  0  0  0  0  0  0  0  0
   -2.4113   -6.0123    3.7353 C   0  0  0  0  0  0  0  0  0  0  0  0
   -1.2926   -6.9942    3.7421 C   0  0  0  0  0  0  0  0  0  0  0  0
   -0.6009   -7.0540    2.3787 C   0  0  0  0  0  0  0  0  0  0  0  0
   -3.7525   -6.2492    3.7044 C   0  0  0  0  0  0  0  0  0  0  0  0
   -4.4510   -7.8168    3.7138 Cl  0  0  0  0  0  0  0  0  0  0  0  0
   -4.5428   -5.0683    3.6719 C   0  0  0  0  0  0  0  0  0  0  0  0
   -6.2550   -5.1106    3.7113 Cl  0  0  0  0  0  0  0  0  0  0  0  0
   -5.1493   -2.1384    2.6102 C   0  0  0  0  0  0  0  0  0  0  0  0
   -5.5979   -0.8014    2.4849 C   0  0  0  0  0  0  0  0  0  0  0  0
   -5.1609    0.1817    3.3931 C   0  0  0  0  0  0  0  0  0  0  0  0
   -5.6149    1.5533    3.2495 C   0  0  0  0  0  0  0  0  0  0  0  0
   -4.4964    2.8773    3.1157 S   0  0  0  0  0  0  0  0  0  0  0  0
   -5.7671    4.0261    2.8708 C   0  0  0  0  0  0  0  0  0  0  0  0
   -5.4693    5.4571    2.5872 C   0  0  0  0  0  0  0  0  0  0  0  0
   -5.2119    5.6711    1.0930 C   0  0  0  0  0  0  0  0  0  0  0  0
   -6.9812    3.4066    2.9022 C   0  0  0  0  0  0  0  0  0  0  0  0
   -6.8995    2.0051    3.1173 C   0  0  0  0  0  0  0  0  0  0  0  0
   -8.2877    1.0058    3.2550 Cl  0  0  0  0  0  0  0  0  0  0  0  0
   -8.4771    4.2220    2.6984 Cl  0  0  0  0  0  0  0  0  0  0  0  0
   -4.2245   -0.2104    4.3378 C   0  0  0  0  0  0  0  0  0  0  0  0
   -3.4186    0.8441    5.4674 S   0  0  0  0  0  0  0  0  0  0  0  0
   -6.3105   -0.5938    1.2804 C   0  0  0  0  0  0  0  0  0  0  0  0
   -6.3828   -1.7031    0.4887 C   0  0  0  0  0  0  0  0  0  0  0  0
   -5.6683   -3.1070    1.2571 S   0  0  0  0  0  0  0  0  0  0  0  0
   -6.6942   -1.7129   -0.9028 C   0  0  0  0  0  0  0  0  0  0  0  0
   -6.3507   -2.6671   -1.8169 C   0  0  0  0  0  0  0  0  0  0  0  0
   -6.3326   -2.1896   -3.1512 C   0  0  0  0  0  0  0  0  0  0  0  0
   -5.7584   -2.7966   -4.2860 C   0  0  0  0  0  0  0  0  0  0  0  0
   -5.3431   -4.1868   -4.3176 C   0  0  0  0  0  0  0  0  0  0  0  0
   -4.4217   -4.9319   -3.0438 S   0  0  0  0  0  0  0  0  0  0  0  0
   -4.3276   -6.4436   -3.8794 C   0  0  0  0  0  0  0  0  0  0  0  0
   -3.5785   -7.5945   -3.3054 C   0  0  0  0  0  0  0  0  0  0  0  0
   -2.0799   -7.4704   -3.5909 C   0  0  0  0  0  0  0  0  0  0  0  0
   -4.9706   -6.3603   -5.0779 C   0  0  0  0  0  0  0  0  0  0  0  0
   -5.0963   -7.6615   -6.1891 Cl  0  0  0  0  0  0  0  0  0  0  0  0
   -5.5450   -5.0863   -5.3307 C   0  0  0  0  0  0  0  0  0  0  0  0
   -6.4677   -4.7635   -6.7376 Cl  0  0  0  0  0  0  0  0  0  0  0  0
   -5.4748   -1.9563   -5.3588 C   0  0  0  0  0  0  0  0  0  0  0  0
   -5.8694   -0.5965   -5.4109 C   0  0  0  0  0  0  0  0  0  0  0  0
   -6.6257   -0.0505   -4.3591 C   0  0  0  0  0  0  0  0  0  0  0  0
   -7.1036    1.3218   -4.3414 C   0  0  0  0  0  0  0  0  0  0  0  0
   -6.0668    2.6924   -4.6111 S   0  0  0  0  0  0  0  0  0  0  0  0
   -7.3444    3.8197   -4.3057 C   0  0  0  0  0  0  0  0  0  0  0  0
   -7.1020    5.2886   -4.3112 C   0  0  0  0  0  0  0  0  0  0  0  0
   -6.7462    5.7810   -2.9059 C   0  0  0  0  0  0  0  0  0  0  0  0
   -8.4990    3.1594   -4.0102 C   0  0  0  0  0  0  0  0  0  0  0  0
   -8.3655    1.7455   -4.0257 C   0  0  0  0  0  0  0  0  0  0  0  0
   -9.6845    0.6908   -3.7364 Cl  0  0  0  0  0  0  0  0  0  0  0  0
   -9.9826    3.9428   -3.6546 Cl  0  0  0  0  0  0  0  0  0  0  0  0
   -6.7723   -0.8451   -3.2294 C   0  0  0  0  0  0  0  0  0  0  0  0
   -7.2303   -0.2289   -1.6670 S   0  0  0  0  0  0  0  0  0  0  0  0
   -5.2067    0.1107   -6.4414 C   0  0  0  0  0  0  0  0  0  0  0  0
   -4.2598   -0.6346   -7.0866 C   0  0  0  0  0  0  0  0  0  0  0  0
   -4.3368   -2.3259   -6.6269 S   0  0  0  0  0  0  0  0  0  0  0  0
   -3.0573   -0.1197   -7.6689 C   0  0  0  0  0  0  0  0  0  0  0  0
   -2.5579    1.1132   -7.3531 C   0  0  0  0  0  0  0  0  0  0  0  0
   -1.1539    1.2029   -7.4824 C   0  0  0  0  0  0  0  0  0  0  0  0
   -0.3232    2.2033   -6.9469 C   0  0  0  0  0  0  0  0  0  0  0  0
   -0.8285    3.4349   -6.3675 C   0  0  0  0  0  0  0  0  0  0  0  0
   -2.1268    3.4657   -5.2082 S   0  0  0  0  0  0  0  0  0  0  0  0
   -1.9929    5.1771   -4.9798 C   0  0  0  0  0  0  0  0  0  0  0  0
   -2.8852    5.8963   -4.0293 C   0  0  0  0  0  0  0  0  0  0  0  0
   -2.8109    5.3009   -2.6242 C   0  0  0  0  0  0  0  0  0  0  0  0
   -0.9986    5.6806   -5.7633 C   0  0  0  0  0  0  0  0  0  0  0  0
   -0.5681    7.3409   -5.8237 Cl  0  0  0  0  0  0  0  0  0  0  0  0
   -0.3330    4.6981   -6.5447 C   0  0  0  0  0  0  0  0  0  0  0  0
    0.9164    5.0940   -7.6482 Cl  0  0  0  0  0  0  0  0  0  0  0  0
    1.0256    1.8848   -6.8407 C   0  0  0  0  0  0  0  0  0  0  0  0
    1.5944    0.7152   -7.3947 C   0  0  0  0  0  0  0  0  0  0  0  0
    0.7810   -0.1944   -8.1033 C   0  0  0  0  0  0  0  0  0  0  0  0
    1.3679   -1.3342   -8.7744 C   0  0  0  0  0  0  0  0  0  0  0  0
    0.6857   -2.9319   -8.6918 S   0  0  0  0  0  0  0  0  0  0  0  0
    1.9192   -3.5974   -9.7062 C   0  0  0  0  0  0  0  0  0  0  0  0
    1.8960   -5.0306  -10.1075 C   0  0  0  0  0  0  0  0  0  0  0  0
    0.9829   -5.2407  -11.3180 C   0  0  0  0  0  0  0  0  0  0  0  0
    2.7935   -2.6249  -10.0921 C   0  0  0  0  0  0  0  0  0  0  0  0
    2.4904   -1.3440   -9.5625 C   0  0  0  0  0  0  0  0  0  0  0  0
    3.4056    0.0514   -9.9621 Cl  0  0  0  0  0  0  0  0  0  0  0  0
    4.1420   -2.9021  -11.1174 Cl  0  0  0  0  0  0  0  0  0  0  0  0
   -0.5921    0.0210   -8.0264 C   0  0  0  0  0  0  0  0  0  0  0  0
   -1.8343   -1.1543   -8.3784 S   0  0  0  0  0  0  0  0  0  0  0  0
    2.9031    0.4775   -6.8921 C   0  0  0  0  0  0  0  0  0  0  0  0
    3.2922    1.3817   -5.9523 C   0  0  0  0  0  0  0  0  0  0  0  0
    2.1352    2.6858   -5.7687 S   0  0  0  0  0  0  0  0  0  0  0  0
    4.3092    1.2271   -4.9460 C   0  0  0  0  0  0  0  0  0  0  0  0
    3.7167    1.2438   -3.2985 S   0  0  0  0  0  0  0  0  0  0  0  0
    5.2631    0.7545   -2.7231 C   0  0  0  0  0  0  0  0  0  0  0  0
    5.6178    0.4048   -1.4001 C   0  0  0  0  0  0  0  0  0  0  0  0
    6.9500    0.1684   -1.1060 C   0  0  0  0  0  0  0  0  0  0  0  0
    7.9339    0.3408   -2.0113 O   0  0  0  0  0  0  0  0  0  0  0  0
    7.6135    0.2280   -3.4168 C   0  0  0  0  0  0  0  0  0  0  0  0
    8.6370    1.1245   -4.1305 C   0  0  0  0  0  0  0  0  0  0  0  0
    8.4022    2.6026   -3.8416 C   0  0  0  0  0  0  0  0  0  0  0  0
    7.7485   -1.2586   -3.8253 C   0  0  0  0  0  0  0  0  0  0  0  0
    9.1261   -1.8472   -3.5473 C   0  0  0  0  0  0  0  0  0  0  0  0
    6.1990    0.6593   -3.7313 C   0  0  0  0  0  0  0  0  0  0  0  0
    5.6384    0.9011   -4.9996 C   0  0  0  0  0  0  0  0  0  0  0  0
    7.1495   -0.2289    0.2274 C   0  0  0  0  0  0  0  0  0  0  0  0
    5.9694   -0.3500    0.9259 C   0  0  0  0  0  0  0  0  0  0  0  0
    4.5897    0.0824   -0.0532 S   0  0  0  0  0  0  0  0  0  0  0  0
    5.7398   -0.8268    2.2459 C   0  0  0  0  0  0  0  0  0  0  0  0
    6.9897   -0.8583    3.4617 S   0  0  0  0  0  0  0  0  0  0  0  0
    5.8897   -1.5524    4.6016 C   0  0  0  0  0  0  0  0  0  0  0  0
    6.1491   -1.9830    5.9283 C   0  0  0  0  0  0  0  0  0  0  0  0
    5.2165   -2.7989    6.5440 C   0  0  0  0  0  0  0  0  0  0  0  0
    4.0724   -3.1952    5.9539 O   0  0  0  0  0  0  0  0  0  0  0  0
    3.5327   -2.3556    4.9093 C   0  0  0  0  0  0  0  0  0  0  0  0
    2.6314   -3.2792    4.0756 C   0  0  0  0  0  0  0  0  0  0  0  0
    1.5052   -3.9197    4.8783 C   0  0  0  0  0  0  0  0  0  0  0  0
    2.7640   -1.2171    5.6128 C   0  0  0  0  0  0  0  0  0  0  0  0
    1.9475   -0.3264    4.6885 C   0  0  0  0  0  0  0  0  0  0  0  0
    4.6358   -1.7680    4.0594 C   0  0  0  0  0  0  0  0  0  0  0  0
    4.5562   -1.3393    2.7311 C   0  0  0  0  0  0  0  0  0  0  0  0
    5.6280   -3.2252    7.8258 C   0  0  0  0  0  0  0  0  0  0  0  0
    6.8398   -2.7122    8.1687 C   0  0  0  0  0  0  0  0  0  0  0  0
    7.5193   -1.7088    6.9471 S   0  0  0  0  0  0  0  0  0  0  0  0
    4.5311   -2.2532   10.7854 H   0  0  0  0  0  0  0  0  0  0  0  0
    2.6930    3.0621    7.6943 H   0  0  0  0  0  0  0  0  0  0  0  0
    2.6799    1.3919    7.1420 H   0  0  0  0  0  0  0  0  0  0  0  0
    4.8664    0.9818    8.2768 H   0  0  0  0  0  0  0  0  0  0  0  0
    4.9674    2.2847    7.0953 H   0  0  0  0  0  0  0  0  0  0  0  0
    4.9021    2.6650    8.8132 H   0  0  0  0  0  0  0  0  0  0  0  0
    1.9142    2.1416   11.2629 H   0  0  0  0  0  0  0  0  0  0  0  0
    3.5619    2.4589   10.7150 H   0  0  0  0  0  0  0  0  0  0  0  0
    2.8184    4.4576    9.4871 H   0  0  0  0  0  0  0  0  0  0  0  0
    2.1966    4.5394   11.1325 H   0  0  0  0  0  0  0  0  0  0  0  0
    1.1267    4.0588    9.8124 H   0  0  0  0  0  0  0  0  0  0  0  0
    4.4507    0.3467   10.7521 H   0  0  0  0  0  0  0  0  0  0  0  0
   -1.4359    1.8570    7.3619 H   0  0  0  0  0  0  0  0  0  0  0  0
   -2.2989   -2.5980    5.7223 H   0  0  0  0  0  0  0  0  0  0  0  0
   -0.5649   -6.7100    4.5055 H   0  0  0  0  0  0  0  0  0  0  0  0
   -1.6957   -7.9760    3.9950 H   0  0  0  0  0  0  0  0  0  0  0  0
   -0.1994   -6.0781    2.1151 H   0  0  0  0  0  0  0  0  0  0  0  0
    0.2140   -7.7724    2.4047 H   0  0  0  0  0  0  0  0  0  0  0  0
   -1.3081   -7.3561    1.6103 H   0  0  0  0  0  0  0  0  0  0  0  0
   -4.5900    5.7645    3.1553 H   0  0  0  0  0  0  0  0  0  0  0  0
   -6.3210    6.0627    2.9017 H   0  0  0  0  0  0  0  0  0  0  0  0
   -4.3639    5.0728    0.7679 H   0  0  0  0  0  0  0  0  0  0  0  0
   -4.9984    6.7186    0.8980 H   0  0  0  0  0  0  0  0  0  0  0  0
   -6.0855    5.3800    0.5152 H   0  0  0  0  0  0  0  0  0  0  0  0
   -6.6773    0.3650    0.9617 H   0  0  0  0  0  0  0  0  0  0  0  0
   -6.0173   -3.6450   -1.5219 H   0  0  0  0  0  0  0  0  0  0  0  0
   -3.7404   -7.6302   -2.2265 H   0  0  0  0  0  0  0  0  0  0  0  0
   -3.9611   -8.5158   -3.7481 H   0  0  0  0  0  0  0  0  0  0  0  0
   -1.9018   -7.4453   -4.6630 H   0  0  0  0  0  0  0  0  0  0  0  0
   -1.5483   -8.3188   -3.1685 H   0  0  0  0  0  0  0  0  0  0  0  0
   -1.6867   -6.5566   -3.1518 H   0  0  0  0  0  0  0  0  0  0  0  0
   -6.2889    5.5181   -5.0020 H   0  0  0  0  0  0  0  0  0  0  0  0
   -8.0057    5.7947   -4.6559 H   0  0  0  0  0  0  0  0  0  0  0  0
   -6.5387    6.8476   -2.9232 H   0  0  0  0  0  0  0  0  0  0  0  0
   -5.8698    5.2570   -2.5329 H   0  0  0  0  0  0  0  0  0  0  0  0
   -7.5747    5.5985   -2.2267 H   0  0  0  0  0  0  0  0  0  0  0  0
   -5.3453    1.1603   -6.6186 H   0  0  0  0  0  0  0  0  0  0  0  0
   -3.1584    1.8837   -6.9093 H   0  0  0  0  0  0  0  0  0  0  0  0
   -2.5877    6.9460   -4.0096 H   0  0  0  0  0  0  0  0  0  0  0  0
   -3.9162    5.8389   -4.3878 H   0  0  0  0  0  0  0  0  0  0  0  0
   -1.7886    5.3283   -2.2553 H   0  0  0  0  0  0  0  0  0  0  0  0
   -3.4401    5.8688   -1.9435 H   0  0  0  0  0  0  0  0  0  0  0  0
   -3.1468    4.2662   -2.6361 H   0  0  0  0  0  0  0  0  0  0  0  0
    1.5365   -5.6349   -9.2730 H   0  0  0  0  0  0  0  0  0  0  0  0
    2.9120   -5.3427  -10.3562 H   0  0  0  0  0  0  0  0  0  0  0  0
   -0.0330   -4.9347  -11.0803 H   0  0  0  0  0  0  0  0  0  0  0  0
    0.9754   -6.2894  -11.6023 H   0  0  0  0  0  0  0  0  0  0  0  0
    1.3351   -4.6532  -12.1621 H   0  0  0  0  0  0  0  0  0  0  0  0
    3.4739   -0.4048   -7.1182 H   0  0  0  0  0  0  0  0  0  0  0  0
    8.5862    0.9354   -5.2030 H   0  0  0  0  0  0  0  0  0  0  0  0
    9.6281    0.8466   -3.7733 H   0  0  0  0  0  0  0  0  0  0  0  0
    8.4210    2.7788   -2.7688 H   0  0  0  0  0  0  0  0  0  0  0  0
    9.1818    3.2022   -4.3048 H   0  0  0  0  0  0  0  0  0  0  0  0
    7.4394    2.9284   -4.2292 H   0  0  0  0  0  0  0  0  0  0  0  0
    6.9978   -1.8185   -3.2599 H   0  0  0  0  0  0  0  0  0  0  0  0
    7.5035   -1.3496   -4.8847 H   0  0  0  0  0  0  0  0  0  0  0  0
    9.4247   -1.6294   -2.5249 H   0  0  0  0  0  0  0  0  0  0  0  0
    9.8708   -1.4376   -4.2240 H   0  0  0  0  0  0  0  0  0  0  0  0
    9.1009   -2.9263   -3.6793 H   0  0  0  0  0  0  0  0  0  0  0  0
    6.1845    0.8468   -5.9240 H   0  0  0  0  0  0  0  0  0  0  0  0
    8.1120   -0.4473    0.6518 H   0  0  0  0  0  0  0  0  0  0  0  0
    3.2706   -4.0638    3.6643 H   0  0  0  0  0  0  0  0  0  0  0  0
    2.2142   -2.7134    3.2443 H   0  0  0  0  0  0  0  0  0  0  0  0
    1.9053   -4.4077    5.7621 H   0  0  0  0  0  0  0  0  0  0  0  0
    0.7702   -3.1822    5.1878 H   0  0  0  0  0  0  0  0  0  0  0  0
    0.9984   -4.6602    4.2646 H   0  0  0  0  0  0  0  0  0  0  0  0
    3.5022   -0.6122    6.1488 H   0  0  0  0  0  0  0  0  0  0  0  0
    2.1162   -1.6823    6.3550 H   0  0  0  0  0  0  0  0  0  0  0  0
    2.5790    0.1222    3.9251 H   0  0  0  0  0  0  0  0  0  0  0  0
    1.4848    0.4750    5.2618 H   0  0  0  0  0  0  0  0  0  0  0  0
    1.1539   -0.8874    4.2027 H   0  0  0  0  0  0  0  0  0  0  0  0
    3.6777   -1.4059    2.1155 H   0  0  0  0  0  0  0  0  0  0  0  0
    5.0434   -3.8817    8.4423 H   0  0  0  0  0  0  0  0  0  0  0  0
    7.3840   -2.8589    9.0799 H   0  0  0  0  0  0  0  0  0  0  0  0
  1  2  1  0  0  0  0
  2  3  1  0  0  0  0
  3  4  1  0  0  0  0
  4  5  2  0  0  0  0
  5  6  1  0  0  0  0
  6  7  1  0  0  0  0
  7  8  1  0  0  0  0
  8  9  1  0  0  0  0
  7 10  1  0  0  0  0
 10 11  1  0  0  0  0
  7 12  1  0  0  0  0
 12 13  1  0  0  0  0
  5 14  1  0  0  0  0
 14 15  2  0  0  0  0
 15 16  1  0  0  0  0
 15 17  1  0  0  0  0
 17 18  2  0  0  0  0
 18 19  1  0  0  0  0
 19 20  2  0  0  0  0
 20 21  1  0  0  0  0
 21 22  1  0  0  0  0
 22 23  1  0  0  0  0
 23 24  1  0  0  0  0
 24 25  1  0  0  0  0
 23 26  2  0  0  0  0
 26 27  1  0  0  0  0
 26 28  1  0  0  0  0
 28 29  1  0  0  0  0
 20 30  1  0  0  0  0
 30 31  2  0  0  0  0
 31 32  1  0  0  0  0
 32 33  1  0  0  0  0
 33 34  1  0  0  0  0
 34 35  1  0  0  0  0
 35 36  1  0  0  0  0
 36 37  1  0  0  0  0
 35 38  2  0  0  0  0
 38 39  1  0  0  0  0
 39 40  1  0  0  0  0
 38 41  1  0  0  0  0
 32 42  2  0  0  0  0
 42 43  1  0  0  0  0
 31 44  1  0  0  0  0
 44 45  2  0  0  0  0
 45 46  1  0  0  0  0
 45 47  1  0  0  0  0
 47 48  2  0  0  0  0
 48 49  1  0  0  0  0
 49 50  2  0  0  0  0
 50 51  1  0  0  0  0
 51 52  1  0  0  0  0
 52 53  1  0  0  0  0
 53 54  1  0  0  0  0
 54 55  1  0  0  0  0
 53 56  2  0  0  0  0
 56 57  1  0  0  0  0
 56 58  1  0  0  0  0
 58 59  1  0  0  0  0
 50 60  1  0  0  0  0
 60 61  2  0  0  0  0
 61 62  1  0  0  0  0
 62 63  1  0  0  0  0
 63 64  1  0  0  0  0
 64 65  1  0  0  0  0
 65 66  1  0  0  0  0
 66 67  1  0  0  0  0
 65 68  2  0  0  0  0
 68 69  1  0  0  0  0
 69 70  1  0  0  0  0
 68 71  1  0  0  0  0
 62 72  2  0  0  0  0
 72 73  1  0  0  0  0
 61 74  1  0  0  0  0
 74 75  2  0  0  0  0
 75 76  1  0  0  0  0
 75 77  1  0  0  0  0
 77 78  2  0  0  0  0
 78 79  1  0  0  0  0
 79 80  2  0  0  0  0
 80 81  1  0  0  0  0
 81 82  1  0  0  0  0
 82 83  1  0  0  0  0
 83 84  1  0  0  0  0
 84 85  1  0  0  0  0
 83 86  2  0  0  0  0
 86 87  1  0  0  0  0
 86 88  1  0  0  0  0
 88 89  1  0  0  0  0
 80 90  1  0  0  0  0
 90 91  2  0  0  0  0
 91 92  1  0  0  0  0
 92 93  1  0  0  0  0
 93 94  1  0  0  0  0
 94 95  1  0  0  0  0
 95 96  1  0  0  0  0
 96 97  1  0  0  0  0
 95 98  2  0  0  0  0
 98 99  1  0  0  0  0
 99100  1  0  0  0  0
 98101  1  0  0  0  0
 92102  2  0  0  0  0
102103  1  0  0  0  0
 91104  1  0  0  0  0
104105  2  0  0  0  0
105106  1  0  0  0  0
105107  1  0  0  0  0
107108  1  0  0  0  0
108109  1  0  0  0  0
109110  1  0  0  0  0
110111  2  0  0  0  0
111112  1  0  0  0  0
112113  1  0  0  0  0
113114  1  0  0  0  0
114115  1  0  0  0  0
113116  1  0  0  0  0
116117  1  0  0  0  0
113118  1  0  0  0  0
118119  1  0  0  0  0
111120  1  0  0  0  0
120121  2  0  0  0  0
121122  1  0  0  0  0
121123  1  0  0  0  0
123124  1  0  0  0  0
124125  1  0  0  0  0
125126  1  0  0  0  0
126127  2  0  0  0  0
127128  1  0  0  0  0
128129  1  0  0  0  0
129130  1  0  0  0  0
130131  1  0  0  0  0
129132  1  0  0  0  0
132133  1  0  0  0  0
129134  1  0  0  0  0
134135  1  0  0  0  0
127136  1  0  0  0  0
136137  2  0  0  0  0
137138  1  0  0  0  0
 13  1  2  0  0  0  0
 43 17  1  0  0  0  0
 73 47  1  0  0  0  0
103 77  1  0  0  0  0
119107  2  0  0  0  0
135123  2  0  0  0  0
 12  3  2  0  0  0  0
 42 19  1  0  0  0  0
 72 49  1  0  0  0  0
102 79  1  0  0  0  0
118109  2  0  0  0  0
134125  2  0  0  0  0
 16  4  1  0  0  0  0
 28 21  2  0  0  0  0
 46 30  1  0  0  0  0
 58 51  2  0  0  0  0
 76 60  1  0  0  0  0
 88 81  2  0  0  0  0
106 90  1  0  0  0  0
122110  1  0  0  0  0
138126  1  0  0  0  0
 39 33  2  0  0  0  0
 69 63  2  0  0  0  0
 99 93  2  0  0  0  0
  1139  1  0  0  0  0
  8140  1  0  0  0  0
  8141  1  0  0  0  0
  9142  1  0  0  0  0
  9143  1  0  0  0  0
  9144  1  0  0  0  0
 10145  1  0  0  0  0
 10146  1  0  0  0  0
 11147  1  0  0  0  0
 11148  1  0  0  0  0
 11149  1  0  0  0  0
 13150  1  0  0  0  0
 14151  1  0  0  0  0
 18152  1  0  0  0  0
 24153  1  0  0  0  0
 24154  1  0  0  0  0
 25155  1  0  0  0  0
 25156  1  0  0  0  0
 25157  1  0  0  0  0
 36158  1  0  0  0  0
 36159  1  0  0  0  0
 37160  1  0  0  0  0
 37161  1  0  0  0  0
 37162  1  0  0  0  0
 44163  1  0  0  0  0
 48164  1  0  0  0  0
 54165  1  0  0  0  0
 54166  1  0  0  0  0
 55167  1  0  0  0  0
 55168  1  0  0  0  0
 55169  1  0  0  0  0
 66170  1  0  0  0  0
 66171  1  0  0  0  0
 67172  1  0  0  0  0
 67173  1  0  0  0  0
 67174  1  0  0  0  0
 74175  1  0  0  0  0
 78176  1  0  0  0  0
 84177  1  0  0  0  0
 84178  1  0  0  0  0
 85179  1  0  0  0  0
 85180  1  0  0  0  0
 85181  1  0  0  0  0
 96182  1  0  0  0  0
 96183  1  0  0  0  0
 97184  1  0  0  0  0
 97185  1  0  0  0  0
 97186  1  0  0  0  0
104187  1  0  0  0  0
114188  1  0  0  0  0
114189  1  0  0  0  0
115190  1  0  0  0  0
115191  1  0  0  0  0
115192  1  0  0  0  0
116193  1  0  0  0  0
116194  1  0  0  0  0
117195  1  0  0  0  0
117196  1  0  0  0  0
117197  1  0  0  0  0
119198  1  0  0  0  0
120199  1  0  0  0  0
130200  1  0  0  0  0
130201  1  0  0  0  0
131202  1  0  0  0  0
131203  1  0  0  0  0
131204  1  0  0  0  0
132205  1  0  0  0  0
132206  1  0  0  0  0
133207  1  0  0  0  0
133208  1  0  0  0  0
133209  1  0  0  0  0
135210  1  0  0  0  0
136211  1  0  0  0  0
137212  1  0  0  0  0
M  END
