95

C          6.08570        9.34330        3.75460
S          4.83600        8.97330        2.64350
C          4.94030        7.27350        3.02040
C          5.91150        7.04810        3.98740
C          6.57000        8.23880        4.38960
S          7.85130        8.44140        5.58400
C          8.36190        6.71470        5.86120
C          7.16180        5.83940        6.13530
S          6.26620        5.43880        4.59470
C          4.10140        6.32620        2.37180
S          4.24200        4.62950        2.74030
C          2.96150        4.21570        1.63420
C          2.45520        5.34880        1.02040
C          3.11070        6.53610        1.42090
S          2.75350        8.15850        0.84440
C          1.76740        7.81230       -0.65040
C          0.59850        6.91350       -0.32910
S          1.14640        5.18550       -0.14350
C          2.59200        2.85360        1.50920
S          1.30870        2.29960        0.46510
C          1.57380        0.66660        0.96930
C          0.89830       -0.49940        0.55130
C          1.37350       -1.73320        0.97710
O          2.46010       -1.88990        1.75480
C          2.95810       -0.76760        2.51010
C          2.30380       -0.80210        3.91290
C          2.55150       -2.10060        4.67060
C          4.48020       -0.97030        2.57590
C          5.14170       -0.79030        1.21460
C          2.60690        0.56030        1.88500
C          3.17260        1.79780        2.18800
C          0.64110       -2.81170        0.46400
C         -0.39830       -2.41420       -0.35140
S         -0.47620       -0.67270       -0.48080
C         -1.36690       -3.18930       -1.04160
S         -2.74080       -2.38000       -1.73620
C         -3.38840       -3.86990       -2.35990
C         -2.56280       -4.93860       -2.01930
C         -1.41430       -4.55170       -1.29420
S         -0.10920       -5.59290       -0.73750
C         -0.43110       -7.13040       -1.65700
C         -1.86250       -7.56860       -1.46620
S         -2.98470       -6.57460       -2.50740
C         -4.59540       -3.88470       -3.10440
S         -5.24150       -5.37870       -3.71780
C         -6.60890       -4.57930       -4.43500
C         -6.55820       -3.21260       -4.19270
C         -5.41960       -2.81990       -3.45610
S         -5.00360       -1.18300       -2.96870
C         -6.07670       -0.19080       -4.05860
C         -7.51800       -0.60870       -3.90350
S         -7.83680       -2.16540       -4.79710
C         -7.57660       -5.33300       -5.15370
S         -8.79990       -4.54490       -6.11390
C         -9.44120       -6.05150       -6.61470
C         -8.77000       -7.11250       -6.08300
C         -7.70180       -6.71350       -5.23880
S         -6.61710       -7.79720       -4.38200
C         -7.56380       -9.35900       -4.44960
C         -7.90580       -9.73380       -5.87250
S         -9.31020       -8.74380       -6.47660
H          6.41190       10.35460        3.88560
H          9.02590        6.75690        6.72470
H          8.91750        6.36350        4.99100
H          7.46390        4.86850        6.52760
H          6.47110        6.31580        6.83150
H          1.43410        8.79530       -0.98280
H          2.41400        7.36990       -1.40850
H          0.09390        7.22800        0.58480
H         -0.11800        6.88360       -1.15000
H          2.67220        0.05000        4.48640
H          1.22760       -0.66970        3.77030
H          1.92130       -2.13800        5.55600
H          2.31260       -2.95170        4.03770
H          3.58830       -2.17860        4.98620
H          4.66350       -1.98550        2.92710
H          4.90110       -0.26930        3.29700
H          5.02450        0.22970        0.85620
H          4.69180       -1.46590        0.49100
H          6.20370       -1.01300        1.28300
H          3.98240        1.94760        2.87960
H          0.86730       -3.83170        0.70510
H         -0.20090       -6.97210       -2.71080
H          0.26780       -7.85260       -1.23480
H         -2.17090       -7.48230       -0.42410
H         -2.01610       -8.59150       -1.80950
H         -5.73760       -0.29910       -5.08900
H         -5.92010        0.83560       -3.72740
H         -7.78390       -0.73700       -2.85410
H         -8.19510        0.10870       -4.36730
H        -10.28570       -6.09010       -7.27160
H         -6.89690      -10.09320       -3.99780
H         -8.46100       -9.25620       -3.83880
H         -8.24420      -10.76780       -5.93960
H         -7.05400       -9.58480       -6.53690
