
  xtb     02282220023D
 energy: -217.701634130107 gnorm: 0.000212597306 xtb: 6.4.1 (unknown)
130147  0     0  0            999 V2000
   11.8080    4.9567    6.6124 C   0  0  0  0  0  0  0  0  0  0  0  0
   10.1624    5.3798    6.9657 S   0  0  0  0  0  0  0  0  0  0  0  0
    9.7561    3.7066    7.0870 C   0  0  0  0  0  0  0  0  0  0  0  0
    8.6762    2.8509    7.3283 C   0  0  0  0  0  0  0  0  0  0  0  0
    9.1765    1.5377    7.2433 C   0  0  0  0  0  0  0  0  0  0  0  0
   10.5214    1.5697    6.9770 N   0  0  0  0  0  0  0  0  0  0  0  0
   11.3559    0.4340    6.6885 C   0  0  0  0  0  0  0  0  0  0  0  0
   11.2921    0.0507    5.2104 C   0  0  0  0  0  0  0  0  0  0  0  0
   10.8766    2.8888    6.8599 C   0  0  0  0  0  0  0  0  0  0  0  0
   12.0503    3.6189    6.5874 C   0  0  0  0  0  0  0  0  0  0  0  0
    8.2024    0.5516    7.4422 C   0  0  0  0  0  0  0  0  0  0  0  0
    6.9607    1.1037    7.6722 C   0  0  0  0  0  0  0  0  0  0  0  0
    6.9845    2.8635    7.6605 S   0  0  0  0  0  0  0  0  0  0  0  0
    5.7300    0.4124    7.8479 C   0  0  0  0  0  0  0  0  0  0  0  0
    4.2150    1.2758    7.8764 S   0  0  0  0  0  0  0  0  0  0  0  0
    3.3417   -0.2121    7.9681 C   0  0  0  0  0  0  0  0  0  0  0  0
    1.9426   -0.4074    7.9654 C   0  0  0  0  0  0  0  0  0  0  0  0
    1.4496   -1.6902    8.1572 C   0  0  0  0  0  0  0  0  0  0  0  0
    2.2465   -2.7371    8.4640 O   0  0  0  0  0  0  0  0  0  0  0  0
    3.5991   -2.7093    7.9596 C   0  0  0  0  0  0  0  0  0  0  0  0
    3.5260   -3.1852    6.4884 C   0  0  0  0  0  0  0  0  0  0  0  0
    4.8678   -3.3556    5.7918 C   0  0  0  0  0  0  0  0  0  0  0  0
    4.3904   -3.6530    8.8782 C   0  0  0  0  0  0  0  0  0  0  0  0
    3.8468   -5.0766    8.9039 C   0  0  0  0  0  0  0  0  0  0  0  0
    4.1803   -1.3135    7.9992 C   0  0  0  0  0  0  0  0  0  0  0  0
    5.5294   -0.9502    7.9381 C   0  0  0  0  0  0  0  0  0  0  0  0
    0.0575   -1.7703    8.0217 C   0  0  0  0  0  0  0  0  0  0  0  0
   -0.5198   -0.5573    7.7165 C   0  0  0  0  0  0  0  0  0  0  0  0
    0.6733    0.7187    7.6369 S   0  0  0  0  0  0  0  0  0  0  0  0
   -1.8477   -0.2989    7.2866 C   0  0  0  0  0  0  0  0  0  0  0  0
   -2.8686   -1.6500    6.7909 S   0  0  0  0  0  0  0  0  0  0  0  0
   -3.9946   -0.5464    6.0884 C   0  0  0  0  0  0  0  0  0  0  0  0
   -5.0849   -0.5137    5.2202 C   0  0  0  0  0  0  0  0  0  0  0  0
   -5.3484    0.8452    4.9498 C   0  0  0  0  0  0  0  0  0  0  0  0
   -4.4892    1.6347    5.6694 N   0  0  0  0  0  0  0  0  0  0  0  0
   -4.3485    3.0621    5.5429 C   0  0  0  0  0  0  0  0  0  0  0  0
   -3.4259    3.4370    4.3845 C   0  0  0  0  0  0  0  0  0  0  0  0
   -3.6214    0.7951    6.3192 C   0  0  0  0  0  0  0  0  0  0  0  0
   -2.4059    0.9268    6.9970 C   0  0  0  0  0  0  0  0  0  0  0  0
   -6.2681    1.0422    3.9142 C   0  0  0  0  0  0  0  0  0  0  0  0
   -6.6951   -0.1515    3.3763 C   0  0  0  0  0  0  0  0  0  0  0  0
   -6.0407   -1.5542    4.2276 S   0  0  0  0  0  0  0  0  0  0  0  0
   -7.3253   -0.3435    2.1182 C   0  0  0  0  0  0  0  0  0  0  0  0
   -7.5209    1.0466    1.0454 S   0  0  0  0  0  0  0  0  0  0  0  0
   -7.7952   -0.0139   -0.2884 C   0  0  0  0  0  0  0  0  0  0  0  0
   -7.8282   -0.0148   -1.6819 C   0  0  0  0  0  0  0  0  0  0  0  0
   -7.8718   -1.3653   -2.0857 C   0  0  0  0  0  0  0  0  0  0  0  0
   -7.9276   -2.1757   -0.9809 N   0  0  0  0  0  0  0  0  0  0  0  0
   -7.8306   -3.6121   -0.9809 C   0  0  0  0  0  0  0  0  0  0  0  0
   -6.3760   -4.0787   -1.0051 C   0  0  0  0  0  0  0  0  0  0  0  0
   -7.8229   -1.3637    0.1193 C   0  0  0  0  0  0  0  0  0  0  0  0
   -7.5662   -1.5415    1.4832 C   0  0  0  0  0  0  0  0  0  0  0  0
   -7.6929   -1.5427   -3.4623 C   0  0  0  0  0  0  0  0  0  0  0  0
   -7.5078   -0.3432   -4.1116 C   0  0  0  0  0  0  0  0  0  0  0  0
   -7.6374    1.0460   -3.0299 S   0  0  0  0  0  0  0  0  0  0  0  0
   -7.0397   -0.1416   -5.4373 C   0  0  0  0  0  0  0  0  0  0  0  0
   -6.4173   -1.5219   -6.3445 S   0  0  0  0  0  0  0  0  0  0  0  0
   -5.7977   -0.4573   -7.5533 C   0  0  0  0  0  0  0  0  0  0  0  0
   -5.0028   -0.4509   -8.6989 C   0  0  0  0  0  0  0  0  0  0  0  0
   -4.8678    0.8963   -9.0915 C   0  0  0  0  0  0  0  0  0  0  0  0
   -5.5509    1.7018   -8.2185 N   0  0  0  0  0  0  0  0  0  0  0  0
   -5.7035    3.1292   -8.3162 C   0  0  0  0  0  0  0  0  0  0  0  0
   -6.9220    3.5075   -9.1563 C   0  0  0  0  0  0  0  0  0  0  0  0
   -6.1198    0.8868   -7.2752 C   0  0  0  0  0  0  0  0  0  0  0  0
   -6.8214    1.0576   -6.0762 C   0  0  0  0  0  0  0  0  0  0  0  0
   -4.0150    1.0775  -10.1867 C   0  0  0  0  0  0  0  0  0  0  0  0
   -3.4854   -0.1150  -10.6227 C   0  0  0  0  0  0  0  0  0  0  0  0
   -4.0708   -1.5008   -9.7028 S   0  0  0  0  0  0  0  0  0  0  0  0
   -2.5117   -0.3111  -11.6384 C   0  0  0  0  0  0  0  0  0  0  0  0
   -1.9449    1.0657  -12.5825 S   0  0  0  0  0  0  0  0  0  0  0  0
   -0.8273    0.0470  -13.4136 C   0  0  0  0  0  0  0  0  0  0  0  0
    0.1743    0.0804  -14.3888 C   0  0  0  0  0  0  0  0  0  0  0  0
    0.6689   -1.2307  -14.5037 C   0  0  0  0  0  0  0  0  0  0  0  0
    0.0141   -2.0531  -13.6245 N   0  0  0  0  0  0  0  0  0  0  0  0
    0.1842   -3.4756  -13.4918 C   0  0  0  0  0  0  0  0  0  0  0  0
   -0.7502   -4.2445  -14.4244 C   0  0  0  0  0  0  0  0  0  0  0  0
   -0.9117   -1.2854  -12.9679 C   0  0  0  0  0  0  0  0  0  0  0  0
   -1.8709   -1.4828  -11.9662 C   0  0  0  0  0  0  0  0  0  0  0  0
    1.7011   -1.3529  -15.4551 C   0  0  0  0  0  0  0  0  0  0  0  0
    1.9699   -0.1547  -16.0386 C   0  0  0  0  0  0  0  0  0  0  0  0
    0.9911    1.1580  -15.4622 S   0  0  0  0  0  0  0  0  0  0  0  0
   12.5086    5.7492    6.4397 H   0  0  0  0  0  0  0  0  0  0  0  0
   11.0218   -0.4031    7.3078 H   0  0  0  0  0  0  0  0  0  0  0  0
   12.3831    0.6838    6.9675 H   0  0  0  0  0  0  0  0  0  0  0  0
   11.9279   -0.8092    5.0177 H   0  0  0  0  0  0  0  0  0  0  0  0
   11.6268    0.8805    4.5922 H   0  0  0  0  0  0  0  0  0  0  0  0
   10.2709   -0.1974    4.9305 H   0  0  0  0  0  0  0  0  0  0  0  0
   13.0149    3.1911    6.3819 H   0  0  0  0  0  0  0  0  0  0  0  0
    8.3788   -0.5074    7.4041 H   0  0  0  0  0  0  0  0  0  0  0  0
    2.9741   -4.1263    6.4731 H   0  0  0  0  0  0  0  0  0  0  0  0
    2.9293   -2.4482    5.9425 H   0  0  0  0  0  0  0  0  0  0  0  0
    4.7048   -3.6634    4.7614 H   0  0  0  0  0  0  0  0  0  0  0  0
    5.4200   -2.4190    5.7832 H   0  0  0  0  0  0  0  0  0  0  0  0
    5.4717   -4.1154    6.2809 H   0  0  0  0  0  0  0  0  0  0  0  0
    5.4343   -3.6592    8.5674 H   0  0  0  0  0  0  0  0  0  0  0  0
    4.3411   -3.2332    9.8854 H   0  0  0  0  0  0  0  0  0  0  0  0
    4.3517   -5.6482    9.6792 H   0  0  0  0  0  0  0  0  0  0  0  0
    2.7822   -5.0636    9.1183 H   0  0  0  0  0  0  0  0  0  0  0  0
    4.0078   -5.5772    7.9527 H   0  0  0  0  0  0  0  0  0  0  0  0
    6.3446   -1.6492    7.9544 H   0  0  0  0  0  0  0  0  0  0  0  0
   -0.5021   -2.6824    8.1164 H   0  0  0  0  0  0  0  0  0  0  0  0
   -3.9478    3.4492    6.4836 H   0  0  0  0  0  0  0  0  0  0  0  0
   -5.3426    3.4893    5.3856 H   0  0  0  0  0  0  0  0  0  0  0  0
   -3.8233    3.0533    3.4478 H   0  0  0  0  0  0  0  0  0  0  0  0
   -3.3381    4.5175    4.3120 H   0  0  0  0  0  0  0  0  0  0  0  0
   -2.4362    3.0141    4.5398 H   0  0  0  0  0  0  0  0  0  0  0  0
   -1.9141    1.8540    7.2301 H   0  0  0  0  0  0  0  0  0  0  0  0
   -6.5658    1.9947    3.5142 H   0  0  0  0  0  0  0  0  0  0  0  0
   -8.3309   -3.9872   -0.0839 H   0  0  0  0  0  0  0  0  0  0  0  0
   -8.3613   -3.9892   -1.8593 H   0  0  0  0  0  0  0  0  0  0  0  0
   -6.3321   -5.1643   -1.0042 H   0  0  0  0  0  0  0  0  0  0  0  0
   -5.8770   -3.7076   -1.8973 H   0  0  0  0  0  0  0  0  0  0  0  0
   -5.8466   -3.7051   -0.1318 H   0  0  0  0  0  0  0  0  0  0  0  0
   -7.4856   -2.4878    1.9870 H   0  0  0  0  0  0  0  0  0  0  0  0
   -7.6436   -2.4883   -3.9714 H   0  0  0  0  0  0  0  0  0  0  0  0
   -4.7954    3.5402   -8.7657 H   0  0  0  0  0  0  0  0  0  0  0  0
   -5.8048    3.5320   -7.3047 H   0  0  0  0  0  0  0  0  0  0  0  0
   -7.0147    4.5884   -9.2144 H   0  0  0  0  0  0  0  0  0  0  0  0
   -6.8224    3.1092  -10.1634 H   0  0  0  0  0  0  0  0  0  0  0  0
   -7.8269    3.1010   -8.7105 H   0  0  0  0  0  0  0  0  0  0  0  0
   -7.1335    1.9983   -5.6597 H   0  0  0  0  0  0  0  0  0  0  0  0
   -3.7635    2.0202  -10.6382 H   0  0  0  0  0  0  0  0  0  0  0  0
   -0.0170   -3.7486  -12.4521 H   0  0  0  0  0  0  0  0  0  0  0  0
    1.2259   -3.7181  -13.7193 H   0  0  0  0  0  0  0  0  0  0  0  0
   -0.5528   -3.9766  -15.4598 H   0  0  0  0  0  0  0  0  0  0  0  0
   -1.7865   -4.0062  -14.1969 H   0  0  0  0  0  0  0  0  0  0  0  0
   -0.6016   -5.3141  -14.3039 H   0  0  0  0  0  0  0  0  0  0  0  0
   -2.0934   -2.4179  -11.4846 H   0  0  0  0  0  0  0  0  0  0  0  0
    2.2160   -2.2643  -15.6995 H   0  0  0  0  0  0  0  0  0  0  0  0
    2.7008    0.0533  -16.7943 H   0  0  0  0  0  0  0  0  0  0  0  0
  1  2  1  0  0  0  0
  2  3  1  0  0  0  0
  3  4  1  0  0  0  0
  4  5  2  0  0  0  0
  5  6  1  0  0  0  0
  6  7  1  0  0  0  0
  7  8  1  0  0  0  0
  6  9  1  0  0  0  0
  9 10  1  0  0  0  0
  5 11  1  0  0  0  0
 11 12  2  0  0  0  0
 12 13  1  0  0  0  0
 12 14  1  0  0  0  0
 14 15  1  0  0  0  0
 15 16  1  0  0  0  0
 16 17  1  0  0  0  0
 17 18  2  0  0  0  0
 18 19  1  0  0  0  0
 19 20  1  0  0  0  0
 20 21  1  0  0  0  0
 21 22  1  0  0  0  0
 20 23  1  0  0  0  0
 23 24  1  0  0  0  0
 20 25  1  0  0  0  0
 25 26  1  0  0  0  0
 18 27  1  0  0  0  0
 27 28  2  0  0  0  0
 28 29  1  0  0  0  0
 28 30  1  0  0  0  0
 30 31  1  0  0  0  0
 31 32  1  0  0  0  0
 32 33  1  0  0  0  0
 33 34  2  0  0  0  0
 34 35  1  0  0  0  0
 35 36  1  0  0  0  0
 36 37  1  0  0  0  0
 35 38  1  0  0  0  0
 38 39  1  0  0  0  0
 34 40  1  0  0  0  0
 40 41  2  0  0  0  0
 41 42  1  0  0  0  0
 41 43  1  0  0  0  0
 43 44  1  0  0  0  0
 44 45  1  0  0  0  0
 45 46  1  0  0  0  0
 46 47  2  0  0  0  0
 47 48  1  0  0  0  0
 48 49  1  0  0  0  0
 49 50  1  0  0  0  0
 48 51  1  0  0  0  0
 51 52  1  0  0  0  0
 47 53  1  0  0  0  0
 53 54  2  0  0  0  0
 54 55  1  0  0  0  0
 54 56  1  0  0  0  0
 56 57  1  0  0  0  0
 57 58  1  0  0  0  0
 58 59  1  0  0  0  0
 59 60  2  0  0  0  0
 60 61  1  0  0  0  0
 61 62  1  0  0  0  0
 62 63  1  0  0  0  0
 61 64  1  0  0  0  0
 64 65  1  0  0  0  0
 60 66  1  0  0  0  0
 66 67  2  0  0  0  0
 67 68  1  0  0  0  0
 67 69  1  0  0  0  0
 69 70  1  0  0  0  0
 70 71  1  0  0  0  0
 71 72  1  0  0  0  0
 72 73  2  0  0  0  0
 73 74  1  0  0  0  0
 74 75  1  0  0  0  0
 75 76  1  0  0  0  0
 74 77  1  0  0  0  0
 77 78  1  0  0  0  0
 73 79  1  0  0  0  0
 79 80  2  0  0  0  0
 80 81  1  0  0  0  0
 10  1  2  0  0  0  0
 26 14  2  0  0  0  0
 39 30  2  0  0  0  0
 52 43  2  0  0  0  0
 65 56  2  0  0  0  0
 78 69  2  0  0  0  0
  9  3  2  0  0  0  0
 25 16  2  0  0  0  0
 38 32  2  0  0  0  0
 51 45  2  0  0  0  0
 64 58  2  0  0  0  0
 77 71  2  0  0  0  0
 13  4  1  0  0  0  0
 29 17  1  0  0  0  0
 42 33  1  0  0  0  0
 55 46  1  0  0  0  0
 68 59  1  0  0  0  0
 81 72  1  0  0  0  0
  1 82  1  0  0  0  0
  7 83  1  0  0  0  0
  7 84  1  0  0  0  0
  8 85  1  0  0  0  0
  8 86  1  0  0  0  0
  8 87  1  0  0  0  0
 10 88  1  0  0  0  0
 11 89  1  0  0  0  0
 21 90  1  0  0  0  0
 21 91  1  0  0  0  0
 22 92  1  0  0  0  0
 22 93  1  0  0  0  0
 22 94  1  0  0  0  0
 23 95  1  0  0  0  0
 23 96  1  0  0  0  0
 24 97  1  0  0  0  0
 24 98  1  0  0  0  0
 24 99  1  0  0  0  0
 26100  1  0  0  0  0
 27101  1  0  0  0  0
 36102  1  0  0  0  0
 36103  1  0  0  0  0
 37104  1  0  0  0  0
 37105  1  0  0  0  0
 37106  1  0  0  0  0
 39107  1  0  0  0  0
 40108  1  0  0  0  0
 49109  1  0  0  0  0
 49110  1  0  0  0  0
 50111  1  0  0  0  0
 50112  1  0  0  0  0
 50113  1  0  0  0  0
 52114  1  0  0  0  0
 53115  1  0  0  0  0
 62116  1  0  0  0  0
 62117  1  0  0  0  0
 63118  1  0  0  0  0
 63119  1  0  0  0  0
 63120  1  0  0  0  0
 65121  1  0  0  0  0
 66122  1  0  0  0  0
 75123  1  0  0  0  0
 75124  1  0  0  0  0
 76125  1  0  0  0  0
 76126  1  0  0  0  0
 76127  1  0  0  0  0
 78128  1  0  0  0  0
 79129  1  0  0  0  0
 80130  1  0  0  0  0
M  END
