118

C          5.29320        7.16700       -2.62270
S          4.90290        6.56200       -1.05790
C          6.36750        5.64340       -1.03370
C          6.88060        4.81540       -0.00180
C          8.17020        4.33580       -0.12180
O          8.98370        4.62220       -1.15650
C          8.39270        5.04650       -2.39920
C          8.00950        3.78820       -3.21670
C          9.17150        2.85860       -3.53890
C          9.42720        5.94760       -3.11150
C         10.88020        5.67050       -2.74040
C          7.11000        5.81840       -2.17940
C          6.47930        6.69260       -3.08850
C          8.57660        3.55960        0.98160
C          7.59770        3.43580        1.93740
S          6.14810        4.29410        1.47280
C          7.62910        2.72110        3.18560
C          8.76480        2.41410        3.90660
O         10.04160        2.75270        3.64220
S          8.48280        1.52230        5.37750
C          6.77830        1.53690        5.05270
C          6.48480        2.22100        3.86950
N          5.13700        2.19610        3.64760
C          4.55780        1.50930        4.67950
C          5.55670        1.08200        5.56720
S          4.88260        0.19790        6.88610
C          3.25550        0.42380        6.23240
C          3.25920        1.13480        5.06060
C          2.09370       -0.12320        6.88700
C          1.93360       -0.33700        8.23980
O          2.80720       -0.11820        9.23800
S          0.36370       -0.93870        8.70580
C         -0.12650       -0.94110        7.04100
C          0.89850       -0.48810        6.20480
N          0.48150       -0.53740        4.90320
C         -0.79750       -1.03000        4.89340
C         -1.20660       -1.27990        6.21530
S         -2.82320       -1.87860        6.27070
C         -2.92830       -1.79040        4.51280
C         -1.77170       -1.32180        3.93320
C         -4.11950       -2.18500        3.84930
S         -4.18920       -2.19240        2.10300
C         -5.81950       -2.76530        2.15120
C         -6.69510       -2.99180        1.06600
C         -8.03850       -3.20440        1.32660
O         -8.55040       -3.21550        2.57320
C         -7.66100       -3.50640        3.67580
C         -8.31910       -2.85670        4.90280
C         -9.72300       -3.37690        5.18780
C         -7.55690       -5.04680        3.76770
C         -6.76660       -5.56130        4.96200
C         -6.28160       -2.93250        3.44360
C         -5.31210       -2.60050        4.39790
C         -8.81310       -3.33680        0.16140
C         -8.06980       -3.24040       -0.98940
S         -6.38080       -2.97660       -0.63200
C         -8.50780       -3.34830       -2.35120
C         -9.80840       -3.58240       -2.74910
O        -10.86620       -3.73800       -1.92750
S        -10.02980       -3.67610       -4.48350
C         -8.33850       -3.39740       -4.72190
C         -7.67320       -3.24170       -3.50280
N         -6.34550       -3.02470       -3.74180
C         -6.15620       -3.04170       -5.09790
C         -7.38330       -3.27390       -5.73960
S         -7.20500       -3.30440       -7.45430
C         -5.47820       -3.01940       -7.29270
C         -5.07920       -2.89680       -5.98400
C         -4.66260       -2.94520       -8.47340
C         -5.17170       -2.91940       -9.75310
O         -6.48360       -2.97170      -10.05150
S         -3.96940       -2.81020      -11.02030
C         -2.71780       -2.81000       -9.82610
C         -3.23750       -2.88890       -8.53090
N         -2.20210       -2.90250       -7.63750
C         -1.03060       -2.83770       -8.34530
C         -1.32110       -2.77470       -9.71540
S          0.11900       -2.68620      -10.65950
C          1.07590       -2.73470       -9.21100
C          0.35020       -2.81400       -8.06490
H          4.61190        7.83850       -3.10470
H          7.26790        3.23920       -2.62800
H          7.52250        4.11650       -4.13700
H          9.72430        2.62070       -2.63350
H          9.84730        3.31230       -4.25840
H          8.79280        1.93240       -3.96570
H          9.29190        5.83660       -4.18820
H          9.20710        6.98610       -2.85180
H         11.16770        4.65190       -2.97650
H         11.52610        6.35140       -3.29040
H         11.03480        5.82990       -1.67720
H          6.88340        6.95600       -4.04880
H          9.53250        3.06850        1.01070
H         10.06840        3.42350        2.94620
H          4.65950        2.63520        2.87930
H          2.36600        1.41530        4.53390
H          3.64190        0.22520        8.88850
H          1.05190       -0.36330        4.09450
H         -1.65810       -1.20320        2.87080
H         -7.68190       -3.01210        5.77210
H         -8.36840       -1.78290        4.70800
H        -10.18520       -2.77480        5.96650
H        -10.33310       -3.31440        4.29130
H         -9.69930       -4.40950        5.52590
H         -8.57070       -5.44970        3.78550
H         -7.08310       -5.39420        2.84450
H         -5.76030       -5.14930        4.96680
H         -6.69050       -6.64500        4.90900
H         -7.25400       -5.30130        5.89770
H         -5.45160       -2.65210        5.46250
H         -9.87360       -3.49510        0.16760
H        -11.66810       -3.89100       -2.44160
H         -5.64050       -2.87270       -3.04170
H         -4.07310       -2.68870       -5.67250
H         -6.62400       -2.92210      -11.00390
H         -2.27880       -3.00080       -6.64110
H          2.14250       -2.70080       -9.30840
H          0.78180       -2.85310       -7.08150
