140

C          0.14420        1.02450        2.50680
S         -0.90810        2.17940        3.23150
C         -1.66450        2.46730        1.70570
C         -2.73940        3.34610        1.41020
C         -3.34460        3.24680        0.17390
O         -2.97250        2.36060       -0.76860
C         -1.63440        1.81120       -0.71710
C         -1.75880        0.42280       -1.36430
C         -2.23260        0.45920       -2.81190
C         -0.72710        2.78550       -1.50390
C          0.69540        2.29350       -1.73220
C         -1.13420        1.68530        0.70350
C         -0.08640        0.86740        1.17660
C         -4.43060        4.13220        0.01850
C         -4.62170        4.90700        1.12750
S         -3.47230        4.57310        2.38670
S         -5.81170        6.18750        1.23740
C         -5.71270        6.61830        2.94870
C         -5.35420        7.85990        3.36890
S         -5.43370        8.01090        5.07500
C         -5.94060        6.37370        5.23390
C         -6.06910        5.75610        4.02880
S         -6.55180        4.08340        3.77970
C         -7.54350        3.83150        5.19900
C         -7.67100        2.65710        5.83600
C         -6.97330        1.44350        5.57540
S         -5.75700        1.28540        4.33520
C         -5.46220       -0.34760        4.80780
C         -4.59630       -1.28050        4.19850
C         -4.72780       -2.62330        4.52930
O         -5.61470       -3.07030        5.44130
C         -6.08370       -2.13750        6.44160
C         -4.99960       -2.07870        7.54300
C         -5.36820       -1.22750        8.74940
C         -7.42470       -2.70950        6.92580
C         -7.31690       -4.11640        7.50160
C         -6.26800       -0.75520        5.85840
C         -7.12150        0.26540        6.28270
C         -3.90130       -3.45830        3.76590
C         -3.12450       -2.75650        2.86730
S         -3.41900       -1.03820        2.96140
C         -2.17350       -3.24100        1.93230
S         -1.21330       -2.08840        1.04720
C         -0.44050       -3.36270        0.18180
C          0.57500       -3.26090       -0.79000
C          1.18710       -4.42120       -1.24190
O          0.86900       -5.64840       -0.78940
C         -0.40740       -5.85130       -0.15430
C         -1.45750       -6.14640       -1.25430
C         -1.14540       -7.35670       -2.12370
C         -0.23570       -7.00910        0.85540
C          0.87830       -7.99370        0.51680
C         -0.89370       -4.61230        0.56690
C         -1.87510       -4.53740        1.56020
C          2.21510       -4.17200       -2.16350
C          2.38880       -2.82970       -2.42050
S          1.26510       -1.85110       -1.51110
C          3.30130       -2.19430       -3.29800
S          4.37750       -3.10890       -4.32330
C          5.00370       -1.64680       -4.99870
C          6.06870       -1.49630       -5.91700
C          6.60180       -0.23110       -6.09930
O          6.13690        0.87360       -5.48680
C          4.78640        0.85130       -4.97020
C          3.84920        1.21020       -6.14650
C          2.38110        1.34570       -5.76820
C          4.77170        1.88540       -3.83330
C          5.16250        3.28930       -4.27910
C          4.42010       -0.51800       -4.44960
C          3.45940       -0.83690       -3.48760
C          7.73440       -0.23080       -6.93320
C          8.05360       -1.48940       -7.36490
S          6.95420       -2.70010       -6.79010
S          9.43980       -1.92570       -8.34720
C         10.63160       -0.90370       -7.52940
C         11.43800       -0.03000       -8.18810
S         12.48080        0.82180       -7.12050
C         11.82940       -0.01030       -5.76660
C         10.86110       -0.89560       -6.12020
S         10.03160       -1.94660       -4.95910
C          9.11830       -0.73910       -4.05420
C          8.18910       -1.05950       -3.17140
H          0.87460        0.53090        3.11530
H         -2.48020       -0.13750       -0.76630
H         -0.80070       -0.09010       -1.30000
H         -2.43960       -0.55260       -3.15300
H         -3.14310        1.04630       -2.89190
H         -1.47750        0.88890       -3.46480
H         -1.21000        2.98860       -2.46110
H         -0.69890        3.72550       -0.94490
H          0.70270        1.37880       -2.31930
H          1.19400        2.10360       -0.78530
H          1.26020        3.05310       -2.26930
H          0.47910        0.19080        0.56250
H         -5.03700        4.19160       -0.86500
H         -5.06320        8.69370        2.76280
H         -6.11410        5.96470        6.20850
H         -8.10870        4.69870        5.49950
H         -8.36900        2.60910        6.66300
H         -4.78150       -3.10080        7.85600
H         -4.09300       -1.67600        7.08200
H         -4.52610       -1.18360        9.43620
H         -5.61200       -0.21260        8.44400
H         -6.21800       -1.64620        9.28180
H         -8.09540       -2.72620        6.06380
H         -7.84870       -2.03700        7.67010
H         -8.31200       -4.51410        7.68620
H         -6.80650       -4.76850        6.79880
H         -6.77120       -4.11670        8.44150
H         -7.83430        0.17130        7.08210
H         -3.87640       -4.52600        3.87290
H         -1.51140       -5.25700       -1.88950
H         -2.42960       -6.26710       -0.77240
H         -0.13000       -7.29120       -2.50660
H         -1.25450       -8.28040       -1.56230
H         -1.83150       -7.38850       -2.96720
H         -1.18710       -7.53720        0.93280
H         -0.01450       -6.57370        1.83300
H          0.71250       -8.47270       -0.44190
H          0.92430       -8.76110        1.28660
H          1.83530       -7.48180        0.47960
H         -2.36860       -5.39080        1.98700
H          2.81040       -4.94070       -2.62050
H          4.20980        2.13810       -6.59270
H          3.95720        0.42190       -6.89720
H          1.79200        1.54040       -6.66120
H          2.22710        2.16780       -5.07460
H          2.01390        0.43020       -5.31090
H          3.78100        1.90350       -3.38160
H          5.47980        1.54020       -3.07660
H          6.10520        3.26220       -4.81800
H          5.27690        3.93110       -3.40870
H          4.40250        3.72340       -4.92320
H          2.88390       -0.11970       -2.93070
H          8.29200        0.65240       -7.18490
H         11.47340        0.15760       -9.24200
H         12.20100        0.19090       -4.78160
H          9.38620        0.27830       -4.29110
H          7.65100       -0.29860       -2.63400
H          7.93560       -2.08370       -2.95940
