
  xtb     03022208393D
 energy: -468.011735005216 gnorm: 0.000232257649 xtb: 6.4.1 (unknown)
240267  0     0  0            999 V2000
    6.1468    2.3913   16.9931 C   0  0  0  0  0  0  0  0  0  0  0  0
    6.4315    3.4293   16.1809 C   0  0  0  0  0  0  0  0  0  0  0  0
    5.4600    3.6100   15.1534 C   0  0  0  0  0  0  0  0  0  0  0  0
    5.4172    4.6005   14.1597 C   0  0  0  0  0  0  0  0  0  0  0  0
    6.4706    5.5935   14.0205 C   0  0  0  0  0  0  0  0  0  0  0  0
    8.1336    5.1188   13.8355 S   0  0  0  0  0  0  0  0  0  0  0  0
    8.6661    6.7568   13.6708 C   0  0  0  0  0  0  0  0  0  0  0  0
   10.0944    7.0823   13.4057 C   0  0  0  0  0  0  0  0  0  0  0  0
   10.3822    7.0821   11.9022 C   0  0  0  0  0  0  0  0  0  0  0  0
    7.6057    7.6088   13.7529 C   0  0  0  0  0  0  0  0  0  0  0  0
    7.7409    9.3152   13.6379 Cl  0  0  0  0  0  0  0  0  0  0  0  0
    6.3602    6.9544   13.9527 C   0  0  0  0  0  0  0  0  0  0  0  0
    4.8933    7.8138   14.1668 Cl  0  0  0  0  0  0  0  0  0  0  0  0
    4.3399    4.5688   13.2827 C   0  0  0  0  0  0  0  0  0  0  0  0
    3.3117    3.5973   13.3612 C   0  0  0  0  0  0  0  0  0  0  0  0
    3.3376    2.6266   14.3763 C   0  0  0  0  0  0  0  0  0  0  0  0
    2.2743    1.6446   14.4983 C   0  0  0  0  0  0  0  0  0  0  0  0
    2.6149   -0.0579   14.5867 S   0  0  0  0  0  0  0  0  0  0  0  0
    0.9372   -0.4677   14.6901 C   0  0  0  0  0  0  0  0  0  0  0  0
    0.4912   -1.8872   14.7407 C   0  0  0  0  0  0  0  0  0  0  0  0
    0.4138   -2.4875   13.3348 C   0  0  0  0  0  0  0  0  0  0  0  0
    0.1708    0.6590   14.6542 C   0  0  0  0  0  0  0  0  0  0  0  0
    0.9241    1.8586   14.5495 C   0  0  0  0  0  0  0  0  0  0  0  0
    0.1929    3.4118   14.5707 Cl  0  0  0  0  0  0  0  0  0  0  0  0
   -1.5435    0.6540   14.7351 Cl  0  0  0  0  0  0  0  0  0  0  0  0
    4.4248    2.6498   15.2414 C   0  0  0  0  0  0  0  0  0  0  0  0
    4.6863    1.5636   16.5770 S   0  0  0  0  0  0  0  0  0  0  0  0
    2.3874    3.7218   12.2948 C   0  0  0  0  0  0  0  0  0  0  0  0
    2.6738    4.7469   11.4437 C   0  0  0  0  0  0  0  0  0  0  0  0
    4.1166    5.6198   11.9140 S   0  0  0  0  0  0  0  0  0  0  0  0
    1.9694    5.1076   10.2581 C   0  0  0  0  0  0  0  0  0  0  0  0
    2.2876    6.0801    9.3581 C   0  0  0  0  0  0  0  0  0  0  0  0
    1.4311    6.1084    8.2299 C   0  0  0  0  0  0  0  0  0  0  0  0
    1.5120    6.9406    7.0993 C   0  0  0  0  0  0  0  0  0  0  0  0
    2.5881    7.9051    6.9447 C   0  0  0  0  0  0  0  0  0  0  0  0
    2.2588    9.5749    6.5926 S   0  0  0  0  0  0  0  0  0  0  0  0
    3.9400    9.9795    6.5580 C   0  0  0  0  0  0  0  0  0  0  0  0
    4.3934   11.3814    6.3448 C   0  0  0  0  0  0  0  0  0  0  0  0
    4.4529   12.1440    7.6707 C   0  0  0  0  0  0  0  0  0  0  0  0
    4.6992    8.8753    6.8088 C   0  0  0  0  0  0  0  0  0  0  0  0
    6.4144    8.8841    6.8541 Cl  0  0  0  0  0  0  0  0  0  0  0  0
    3.9374    7.6958    7.0232 C   0  0  0  0  0  0  0  0  0  0  0  0
    4.6649    6.1598    7.2667 Cl  0  0  0  0  0  0  0  0  0  0  0  0
    0.5475    6.7642    6.1164 C   0  0  0  0  0  0  0  0  0  0  0  0
   -0.4841    5.8002    6.2193 C   0  0  0  0  0  0  0  0  0  0  0  0
   -0.5812    4.9809    7.3590 C   0  0  0  0  0  0  0  0  0  0  0  0
   -1.6379    3.9923    7.4779 C   0  0  0  0  0  0  0  0  0  0  0  0
   -1.2818    2.3441    7.9063 S   0  0  0  0  0  0  0  0  0  0  0  0
   -2.9403    1.8697    7.7874 C   0  0  0  0  0  0  0  0  0  0  0  0
   -3.3593    0.4560    7.9928 C   0  0  0  0  0  0  0  0  0  0  0  0
   -3.2640   -0.3369    6.6869 C   0  0  0  0  0  0  0  0  0  0  0  0
   -3.7129    2.9354    7.4335 C   0  0  0  0  0  0  0  0  0  0  0  0
   -2.9820    4.1406    7.2626 C   0  0  0  0  0  0  0  0  0  0  0  0
   -3.7548    5.6328    6.9083 Cl  0  0  0  0  0  0  0  0  0  0  0  0
   -5.4112    2.8486    7.2182 Cl  0  0  0  0  0  0  0  0  0  0  0  0
    0.4027    5.1378    8.3255 C   0  0  0  0  0  0  0  0  0  0  0  0
    0.5418    4.2062    9.7883 S   0  0  0  0  0  0  0  0  0  0  0  0
   -1.2483    5.7216    5.0327 C   0  0  0  0  0  0  0  0  0  0  0  0
   -0.8397    6.5873    4.0601 C   0  0  0  0  0  0  0  0  0  0  0  0
    0.5135    7.5683    4.5698 S   0  0  0  0  0  0  0  0  0  0  0  0
   -1.3691    6.5940    2.7314 C   0  0  0  0  0  0  0  0  0  0  0  0
   -2.5973    6.1154    2.3803 C   0  0  0  0  0  0  0  0  0  0  0  0
   -2.7610    5.9403    0.9862 C   0  0  0  0  0  0  0  0  0  0  0  0
   -3.8233    5.3070    0.3133 C   0  0  0  0  0  0  0  0  0  0  0  0
   -5.0159    4.8575    1.0102 C   0  0  0  0  0  0  0  0  0  0  0  0
   -4.9378    3.9447    2.4913 S   0  0  0  0  0  0  0  0  0  0  0  0
   -6.6576    3.8136    2.6035 C   0  0  0  0  0  0  0  0  0  0  0  0
   -7.3115    3.1720    3.7766 C   0  0  0  0  0  0  0  0  0  0  0  0
   -7.6606    4.2204    4.8363 C   0  0  0  0  0  0  0  0  0  0  0  0
   -7.2469    4.4459    1.5498 C   0  0  0  0  0  0  0  0  0  0  0  0
   -8.9449    4.5322    1.3189 Cl  0  0  0  0  0  0  0  0  0  0  0  0
   -6.3234    5.0325    0.6440 C   0  0  0  0  0  0  0  0  0  0  0  0
   -6.8356    5.9498   -0.7093 Cl  0  0  0  0  0  0  0  0  0  0  0  0
   -3.6413    5.0587   -1.0418 C   0  0  0  0  0  0  0  0  0  0  0  0
   -2.4956    5.4894   -1.7570 C   0  0  0  0  0  0  0  0  0  0  0  0
   -1.4643    6.1744   -1.0943 C   0  0  0  0  0  0  0  0  0  0  0  0
   -0.2438    6.5498   -1.7929 C   0  0  0  0  0  0  0  0  0  0  0  0
    0.3096    8.1961   -1.8282 S   0  0  0  0  0  0  0  0  0  0  0  0
    1.6847    7.7934   -2.7989 C   0  0  0  0  0  0  0  0  0  0  0  0
    2.6811    8.8280   -3.1896 C   0  0  0  0  0  0  0  0  0  0  0  0
    3.6980    9.0552   -2.0686 C   0  0  0  0  0  0  0  0  0  0  0  0
    1.7094    6.4549   -3.0552 C   0  0  0  0  0  0  0  0  0  0  0  0
    0.6164    5.7459   -2.4877 C   0  0  0  0  0  0  0  0  0  0  0  0
    0.4629    4.0397   -2.6127 Cl  0  0  0  0  0  0  0  0  0  0  0  0
    2.9217    5.6757   -3.9865 Cl  0  0  0  0  0  0  0  0  0  0  0  0
   -1.6161    6.3687    0.2704 C   0  0  0  0  0  0  0  0  0  0  0  0
   -0.3847    6.9839    1.3384 S   0  0  0  0  0  0  0  0  0  0  0  0
   -2.4887    5.0061   -3.0872 C   0  0  0  0  0  0  0  0  0  0  0  0
   -3.5156    4.1510   -3.3582 C   0  0  0  0  0  0  0  0  0  0  0  0
   -4.6484    4.0342   -2.0256 S   0  0  0  0  0  0  0  0  0  0  0  0
   -3.5776    3.2205   -4.4357 C   0  0  0  0  0  0  0  0  0  0  0  0
   -4.4200    2.1540   -4.5545 C   0  0  0  0  0  0  0  0  0  0  0  0
   -3.9863    1.1938   -5.4998 C   0  0  0  0  0  0  0  0  0  0  0  0
   -4.5588   -0.0569   -5.7929 C   0  0  0  0  0  0  0  0  0  0  0  0
   -5.8101   -0.4854   -5.1911 C   0  0  0  0  0  0  0  0  0  0  0  0
   -6.0703   -0.4220   -3.4724 S   0  0  0  0  0  0  0  0  0  0  0  0
   -7.6713   -1.0669   -3.6072 C   0  0  0  0  0  0  0  0  0  0  0  0
   -8.5307   -1.2314   -2.4027 C   0  0  0  0  0  0  0  0  0  0  0  0
   -8.8657    0.1223   -1.7740 C   0  0  0  0  0  0  0  0  0  0  0  0
   -7.9699   -1.3149   -4.9130 C   0  0  0  0  0  0  0  0  0  0  0  0
   -9.4689   -1.9523   -5.4527 Cl  0  0  0  0  0  0  0  0  0  0  0  0
   -6.9166   -0.9949   -5.8125 C   0  0  0  0  0  0  0  0  0  0  0  0
   -7.0810   -1.1566   -7.5103 Cl  0  0  0  0  0  0  0  0  0  0  0  0
   -3.8447   -0.8893   -6.6466 C   0  0  0  0  0  0  0  0  0  0  0  0
   -2.6243   -0.5044   -7.2542 C   0  0  0  0  0  0  0  0  0  0  0  0
   -2.0882    0.7747   -7.0192 C   0  0  0  0  0  0  0  0  0  0  0  0
   -0.8394    1.1853   -7.6413 C   0  0  0  0  0  0  0  0  0  0  0  0
   -0.6491    1.1143   -9.3703 S   0  0  0  0  0  0  0  0  0  0  0  0
    0.9708    1.7187   -9.2986 C   0  0  0  0  0  0  0  0  0  0  0  0
    1.7609    1.9582  -10.5373 C   0  0  0  0  0  0  0  0  0  0  0  0
    1.4230    3.3202  -11.1481 C   0  0  0  0  0  0  0  0  0  0  0  0
    1.3256    1.9628   -8.0059 C   0  0  0  0  0  0  0  0  0  0  0  0
    0.3077    1.6543   -7.0625 C   0  0  0  0  0  0  0  0  0  0  0  0
    0.5704    1.7781   -5.3738 Cl  0  0  0  0  0  0  0  0  0  0  0  0
    2.8571    2.5746   -7.5313 Cl  0  0  0  0  0  0  0  0  0  0  0  0
   -2.7776    1.5870   -6.1308 C   0  0  0  0  0  0  0  0  0  0  0  0
   -2.2609    3.1559   -5.5883 S   0  0  0  0  0  0  0  0  0  0  0  0
   -2.0165   -1.5766   -7.9474 C   0  0  0  0  0  0  0  0  0  0  0  0
   -2.7169   -2.7461   -7.8641 C   0  0  0  0  0  0  0  0  0  0  0  0
   -4.2125   -2.5572   -6.9772 S   0  0  0  0  0  0  0  0  0  0  0  0
   -2.2966   -4.0287   -8.3277 C   0  0  0  0  0  0  0  0  0  0  0  0
   -1.1033   -4.3324   -8.9178 C   0  0  0  0  0  0  0  0  0  0  0  0
   -0.9283   -5.7142   -9.1632 C   0  0  0  0  0  0  0  0  0  0  0  0
    0.2055   -6.3630   -9.6884 C   0  0  0  0  0  0  0  0  0  0  0  0
    1.3312   -5.5991  -10.1958 C   0  0  0  0  0  0  0  0  0  0  0  0
    2.9602   -5.9343   -9.6887 S   0  0  0  0  0  0  0  0  0  0  0  0
    3.6087   -4.6548  -10.6561 C   0  0  0  0  0  0  0  0  0  0  0  0
    5.0749   -4.4059  -10.7211 C   0  0  0  0  0  0  0  0  0  0  0  0
    5.7425   -5.3492  -11.7248 C   0  0  0  0  0  0  0  0  0  0  0  0
    2.6109   -4.0243  -11.3379 C   0  0  0  0  0  0  0  0  0  0  0  0
    2.8657   -2.7037  -12.4041 Cl  0  0  0  0  0  0  0  0  0  0  0  0
    1.3188   -4.5531  -11.0784 C   0  0  0  0  0  0  0  0  0  0  0  0
   -0.0879   -3.9727  -11.8755 Cl  0  0  0  0  0  0  0  0  0  0  0  0
    0.1970   -7.7499   -9.6759 C   0  0  0  0  0  0  0  0  0  0  0  0
   -0.9051   -8.5129   -9.2140 C   0  0  0  0  0  0  0  0  0  0  0  0
   -2.0492   -7.8626   -8.7178 C   0  0  0  0  0  0  0  0  0  0  0  0
   -3.1755   -8.6097   -8.1836 C   0  0  0  0  0  0  0  0  0  0  0  0
   -4.7996   -8.3105   -8.7265 S   0  0  0  0  0  0  0  0  0  0  0  0
   -5.4601   -9.4982   -7.6555 C   0  0  0  0  0  0  0  0  0  0  0  0
   -6.9169   -9.8051   -7.6460 C   0  0  0  0  0  0  0  0  0  0  0  0
   -7.2723  -10.8172   -8.7377 C   0  0  0  0  0  0  0  0  0  0  0  0
   -4.4672  -10.0869   -6.9307 C   0  0  0  0  0  0  0  0  0  0  0  0
   -3.1720   -9.5819   -7.2217 C   0  0  0  0  0  0  0  0  0  0  0  0
   -1.7711  -10.0959   -6.3711 Cl  0  0  0  0  0  0  0  0  0  0  0  0
   -4.7343  -11.3145   -5.7609 Cl  0  0  0  0  0  0  0  0  0  0  0  0
   -2.0348   -6.4743   -8.7135 C   0  0  0  0  0  0  0  0  0  0  0  0
   -3.2810   -5.4508   -8.0582 S   0  0  0  0  0  0  0  0  0  0  0  0
   -0.6719   -9.9032   -9.3305 C   0  0  0  0  0  0  0  0  0  0  0  0
    0.5666  -10.2122   -9.8190 C   0  0  0  0  0  0  0  0  0  0  0  0
    1.4908   -8.7780  -10.2208 S   0  0  0  0  0  0  0  0  0  0  0  0
    1.1450  -11.5046   -9.9595 C   0  0  0  0  0  0  0  0  0  0  0  0
    2.7051  -11.7191  -10.7088 S   0  0  0  0  0  0  0  0  0  0  0  0
    2.6445  -13.4155  -10.4026 C   0  0  0  0  0  0  0  0  0  0  0  0
    3.6278  -14.3984  -10.6748 C   0  0  0  0  0  0  0  0  0  0  0  0
    3.4585  -15.6622  -10.1373 C   0  0  0  0  0  0  0  0  0  0  0  0
    2.4144  -16.0231   -9.3705 O   0  0  0  0  0  0  0  0  0  0  0  0
    1.2076  -15.2416   -9.4254 C   0  0  0  0  0  0  0  0  0  0  0  0
    0.3259  -15.7872  -10.5756 C   0  0  0  0  0  0  0  0  0  0  0  0
   -0.0549  -17.2551  -10.4377 C   0  0  0  0  0  0  0  0  0  0  0  0
    0.5325  -15.3447   -8.0372 C   0  0  0  0  0  0  0  0  0  0  0  0
    0.8875  -16.5994   -7.2465 C   0  0  0  0  0  0  0  0  0  0  0  0
    1.4851  -13.7894   -9.7483 C   0  0  0  0  0  0  0  0  0  0  0  0
    0.6370  -12.7048   -9.5080 C   0  0  0  0  0  0  0  0  0  0  0  0
    4.5422  -16.5224  -10.4244 C   0  0  0  0  0  0  0  0  0  0  0  0
    5.4958  -15.9088  -11.1750 C   0  0  0  0  0  0  0  0  0  0  0  0
    5.1137  -14.2750  -11.5518 S   0  0  0  0  0  0  0  0  0  0  0  0
    6.7091    2.0426   17.8370 H   0  0  0  0  0  0  0  0  0  0  0  0
    7.2948    4.0581   16.2971 H   0  0  0  0  0  0  0  0  0  0  0  0
   10.7316    6.3462   13.8986 H   0  0  0  0  0  0  0  0  0  0  0  0
   10.3126    8.0691   13.8186 H   0  0  0  0  0  0  0  0  0  0  0  0
   11.4268    7.3209   11.7222 H   0  0  0  0  0  0  0  0  0  0  0  0
    9.7634    7.8215   11.4003 H   0  0  0  0  0  0  0  0  0  0  0  0
   10.1686    6.1042   11.4771 H   0  0  0  0  0  0  0  0  0  0  0  0
    1.1926   -2.4658   15.3441 H   0  0  0  0  0  0  0  0  0  0  0  0
   -0.4931   -1.9278   15.2107 H   0  0  0  0  0  0  0  0  0  0  0  0
    1.3908   -2.4589   12.8583 H   0  0  0  0  0  0  0  0  0  0  0  0
   -0.2879   -1.9257   12.7235 H   0  0  0  0  0  0  0  0  0  0  0  0
    0.0807   -3.5204   13.3881 H   0  0  0  0  0  0  0  0  0  0  0  0
    1.5531    3.0616   12.1423 H   0  0  0  0  0  0  0  0  0  0  0  0
    3.1157    6.7500    9.5011 H   0  0  0  0  0  0  0  0  0  0  0  0
    5.3853   11.3639    5.8891 H   0  0  0  0  0  0  0  0  0  0  0  0
    3.7037   11.8849    5.6657 H   0  0  0  0  0  0  0  0  0  0  0  0
    3.4697   12.1717    8.1343 H   0  0  0  0  0  0  0  0  0  0  0  0
    4.7877   13.1635    7.5001 H   0  0  0  0  0  0  0  0  0  0  0  0
    5.1459   11.6591    8.3535 H   0  0  0  0  0  0  0  0  0  0  0  0
   -4.3898    0.4430    8.3530 H   0  0  0  0  0  0  0  0  0  0  0  0
   -2.7187   -0.0048    8.7461 H   0  0  0  0  0  0  0  0  0  0  0  0
   -3.5764   -1.3646    6.8509 H   0  0  0  0  0  0  0  0  0  0  0  0
   -3.9049    0.1060    5.9288 H   0  0  0  0  0  0  0  0  0  0  0  0
   -2.2406   -0.3367    6.3195 H   0  0  0  0  0  0  0  0  0  0  0  0
   -2.0257    4.9988    4.8734 H   0  0  0  0  0  0  0  0  0  0  0  0
   -3.3484    5.8694    3.1061 H   0  0  0  0  0  0  0  0  0  0  0  0
   -8.2238    2.6721    3.4450 H   0  0  0  0  0  0  0  0  0  0  0  0
   -6.6388    2.4290    4.2075 H   0  0  0  0  0  0  0  0  0  0  0  0
   -6.7610    4.7263    5.1779 H   0  0  0  0  0  0  0  0  0  0  0  0
   -8.1362    3.7438    5.6891 H   0  0  0  0  0  0  0  0  0  0  0  0
   -8.3417    4.9610    4.4250 H   0  0  0  0  0  0  0  0  0  0  0  0
    2.1655    9.7649   -3.4074 H   0  0  0  0  0  0  0  0  0  0  0  0
    3.1974    8.4935   -4.0912 H   0  0  0  0  0  0  0  0  0  0  0  0
    4.4186    9.8122   -2.3660 H   0  0  0  0  0  0  0  0  0  0  0  0
    3.1937    9.3869   -1.1640 H   0  0  0  0  0  0  0  0  0  0  0  0
    4.2304    8.1328   -1.8510 H   0  0  0  0  0  0  0  0  0  0  0  0
   -1.7167    5.2259   -3.8012 H   0  0  0  0  0  0  0  0  0  0  0  0
   -5.2873    2.0380   -3.9308 H   0  0  0  0  0  0  0  0  0  0  0  0
   -9.4479   -1.7420   -2.7005 H   0  0  0  0  0  0  0  0  0  0  0  0
   -8.0125   -1.8512   -1.6669 H   0  0  0  0  0  0  0  0  0  0  0  0
   -9.3874    0.7529   -2.4897 H   0  0  0  0  0  0  0  0  0  0  0  0
   -7.9555    0.6302   -1.4628 H   0  0  0  0  0  0  0  0  0  0  0  0
   -9.5026   -0.0164   -0.9046 H   0  0  0  0  0  0  0  0  0  0  0  0
    1.5458    1.1714  -11.2625 H   0  0  0  0  0  0  0  0  0  0  0  0
    2.8226    1.9226  -10.2861 H   0  0  0  0  0  0  0  0  0  0  0  0
    0.3678    3.3663  -11.4069 H   0  0  0  0  0  0  0  0  0  0  0  0
    1.6426    4.1152  -10.4399 H   0  0  0  0  0  0  0  0  0  0  0  0
    2.0108    3.4819  -12.0476 H   0  0  0  0  0  0  0  0  0  0  0  0
   -1.0733   -1.4907   -8.4530 H   0  0  0  0  0  0  0  0  0  0  0  0
   -0.3526   -3.5961   -9.1330 H   0  0  0  0  0  0  0  0  0  0  0  0
    5.2423   -3.3702  -11.0224 H   0  0  0  0  0  0  0  0  0  0  0  0
    5.5129   -4.5591   -9.7333 H   0  0  0  0  0  0  0  0  0  0  0  0
    5.3256   -5.1995  -12.7176 H   0  0  0  0  0  0  0  0  0  0  0  0
    5.5820   -6.3843  -11.4330 H   0  0  0  0  0  0  0  0  0  0  0  0
    6.8113   -5.1575  -11.7630 H   0  0  0  0  0  0  0  0  0  0  0  0
   -7.1823  -10.2130   -6.6689 H   0  0  0  0  0  0  0  0  0  0  0  0
   -7.4806   -8.8847   -7.8067 H   0  0  0  0  0  0  0  0  0  0  0  0
   -8.3371  -11.0321   -8.7149 H   0  0  0  0  0  0  0  0  0  0  0  0
   -6.7262  -11.7446   -8.5841 H   0  0  0  0  0  0  0  0  0  0  0  0
   -7.0163  -10.4202   -9.7172 H   0  0  0  0  0  0  0  0  0  0  0  0
   -1.3989  -10.6473   -9.0664 H   0  0  0  0  0  0  0  0  0  0  0  0
   -0.5709  -15.1682  -10.6398 H   0  0  0  0  0  0  0  0  0  0  0  0
    0.8902  -15.6511  -11.5032 H   0  0  0  0  0  0  0  0  0  0  0  0
   -0.7556  -17.4021   -9.6206 H   0  0  0  0  0  0  0  0  0  0  0  0
    0.8324  -17.8566  -10.2570 H   0  0  0  0  0  0  0  0  0  0  0  0
   -0.5254  -17.6003  -11.3556 H   0  0  0  0  0  0  0  0  0  0  0  0
    0.8387  -14.4782   -7.4461 H   0  0  0  0  0  0  0  0  0  0  0  0
   -0.5478  -15.2881   -8.1770 H   0  0  0  0  0  0  0  0  0  0  0  0
    0.3671  -16.5788   -6.2914 H   0  0  0  0  0  0  0  0  0  0  0  0
    1.9563  -16.6366   -7.0576 H   0  0  0  0  0  0  0  0  0  0  0  0
    0.6046  -17.5018   -7.7773 H   0  0  0  0  0  0  0  0  0  0  0  0
   -0.3120  -12.7829   -9.0109 H   0  0  0  0  0  0  0  0  0  0  0  0
    4.5956  -17.5390  -10.0828 H   0  0  0  0  0  0  0  0  0  0  0  0
    6.4119  -16.3259  -11.5420 H   0  0  0  0  0  0  0  0  0  0  0  0
  1  2  2  0  0  0  0
  2  3  1  0  0  0  0
  3  4  2  0  0  0  0
  4  5  1  0  0  0  0
  5  6  1  0  0  0  0
  6  7  1  0  0  0  0
  7  8  1  0  0  0  0
  8  9  1  0  0  0  0
  7 10  2  0  0  0  0
 10 11  1  0  0  0  0
 10 12  1  0  0  0  0
 12 13  1  0  0  0  0
  4 14  1  0  0  0  0
 14 15  2  0  0  0  0
 15 16  1  0  0  0  0
 16 17  1  0  0  0  0
 17 18  1  0  0  0  0
 18 19  1  0  0  0  0
 19 20  1  0  0  0  0
 20 21  1  0  0  0  0
 19 22  2  0  0  0  0
 22 23  1  0  0  0  0
 23 24  1  0  0  0  0
 22 25  1  0  0  0  0
 16 26  2  0  0  0  0
 26 27  1  0  0  0  0
 15 28  1  0  0  0  0
 28 29  2  0  0  0  0
 29 30  1  0  0  0  0
 29 31  1  0  0  0  0
 31 32  2  0  0  0  0
 32 33  1  0  0  0  0
 33 34  2  0  0  0  0
 34 35  1  0  0  0  0
 35 36  1  0  0  0  0
 36 37  1  0  0  0  0
 37 38  1  0  0  0  0
 38 39  1  0  0  0  0
 37 40  2  0  0  0  0
 40 41  1  0  0  0  0
 40 42  1  0  0  0  0
 42 43  1  0  0  0  0
 34 44  1  0  0  0  0
 44 45  2  0  0  0  0
 45 46  1  0  0  0  0
 46 47  1  0  0  0  0
 47 48  1  0  0  0  0
 48 49  1  0  0  0  0
 49 50  1  0  0  0  0
 50 51  1  0  0  0  0
 49 52  2  0  0  0  0
 52 53  1  0  0  0  0
 53 54  1  0  0  0  0
 52 55  1  0  0  0  0
 46 56  2  0  0  0  0
 56 57  1  0  0  0  0
 45 58  1  0  0  0  0
 58 59  2  0  0  0  0
 59 60  1  0  0  0  0
 59 61  1  0  0  0  0
 61 62  2  0  0  0  0
 62 63  1  0  0  0  0
 63 64  2  0  0  0  0
 64 65  1  0  0  0  0
 65 66  1  0  0  0  0
 66 67  1  0  0  0  0
 67 68  1  0  0  0  0
 68 69  1  0  0  0  0
 67 70  2  0  0  0  0
 70 71  1  0  0  0  0
 70 72  1  0  0  0  0
 72 73  1  0  0  0  0
 64 74  1  0  0  0  0
 74 75  2  0  0  0  0
 75 76  1  0  0  0  0
 76 77  1  0  0  0  0
 77 78  1  0  0  0  0
 78 79  1  0  0  0  0
 79 80  1  0  0  0  0
 80 81  1  0  0  0  0
 79 82  2  0  0  0  0
 82 83  1  0  0  0  0
 83 84  1  0  0  0  0
 82 85  1  0  0  0  0
 76 86  2  0  0  0  0
 86 87  1  0  0  0  0
 75 88  1  0  0  0  0
 88 89  2  0  0  0  0
 89 90  1  0  0  0  0
 89 91  1  0  0  0  0
 91 92  2  0  0  0  0
 92 93  1  0  0  0  0
 93 94  2  0  0  0  0
 94 95  1  0  0  0  0
 95 96  1  0  0  0  0
 96 97  1  0  0  0  0
 97 98  1  0  0  0  0
 98 99  1  0  0  0  0
 97100  2  0  0  0  0
100101  1  0  0  0  0
100102  1  0  0  0  0
102103  1  0  0  0  0
 94104  1  0  0  0  0
104105  2  0  0  0  0
105106  1  0  0  0  0
106107  1  0  0  0  0
107108  1  0  0  0  0
108109  1  0  0  0  0
109110  1  0  0  0  0
110111  1  0  0  0  0
109112  2  0  0  0  0
112113  1  0  0  0  0
113114  1  0  0  0  0
112115  1  0  0  0  0
106116  2  0  0  0  0
116117  1  0  0  0  0
105118  1  0  0  0  0
118119  2  0  0  0  0
119120  1  0  0  0  0
119121  1  0  0  0  0
121122  2  0  0  0  0
122123  1  0  0  0  0
123124  2  0  0  0  0
124125  1  0  0  0  0
125126  1  0  0  0  0
126127  1  0  0  0  0
127128  1  0  0  0  0
128129  1  0  0  0  0
127130  2  0  0  0  0
130131  1  0  0  0  0
130132  1  0  0  0  0
132133  1  0  0  0  0
124134  1  0  0  0  0
134135  2  0  0  0  0
135136  1  0  0  0  0
136137  1  0  0  0  0
137138  1  0  0  0  0
138139  1  0  0  0  0
139140  1  0  0  0  0
140141  1  0  0  0  0
139142  2  0  0  0  0
142143  1  0  0  0  0
143144  1  0  0  0  0
142145  1  0  0  0  0
136146  2  0  0  0  0
146147  1  0  0  0  0
135148  1  0  0  0  0
148149  2  0  0  0  0
149150  1  0  0  0  0
149151  1  0  0  0  0
151152  1  0  0  0  0
152153  1  0  0  0  0
153154  1  0  0  0  0
154155  2  0  0  0  0
155156  1  0  0  0  0
156157  1  0  0  0  0
157158  1  0  0  0  0
158159  1  0  0  0  0
157160  1  0  0  0  0
160161  1  0  0  0  0
157162  1  0  0  0  0
162163  1  0  0  0  0
155164  1  0  0  0  0
164165  2  0  0  0  0
165166  1  0  0  0  0
 27  1  1  0  0  0  0
 57 31  1  0  0  0  0
 87 61  1  0  0  0  0
117 91  1  0  0  0  0
147121  1  0  0  0  0
163151  2  0  0  0  0
 26  3  1  0  0  0  0
 56 33  1  0  0  0  0
 86 63  1  0  0  0  0
116 93  1  0  0  0  0
146123  1  0  0  0  0
162153  2  0  0  0  0
 12  5  2  0  0  0  0
 30 14  1  0  0  0  0
 42 35  2  0  0  0  0
 60 44  1  0  0  0  0
 72 65  2  0  0  0  0
 90 74  1  0  0  0  0
102 95  2  0  0  0  0
120104  1  0  0  0  0
132125  2  0  0  0  0
150134  1  0  0  0  0
166154  1  0  0  0  0
 23 17  2  0  0  0  0
 53 47  2  0  0  0  0
 83 77  2  0  0  0  0
113107  2  0  0  0  0
143137  2  0  0  0  0
  1167  1  0  0  0  0
  2168  1  0  0  0  0
  8169  1  0  0  0  0
  8170  1  0  0  0  0
  9171  1  0  0  0  0
  9172  1  0  0  0  0
  9173  1  0  0  0  0
 20174  1  0  0  0  0
 20175  1  0  0  0  0
 21176  1  0  0  0  0
 21177  1  0  0  0  0
 21178  1  0  0  0  0
 28179  1  0  0  0  0
 32180  1  0  0  0  0
 38181  1  0  0  0  0
 38182  1  0  0  0  0
 39183  1  0  0  0  0
 39184  1  0  0  0  0
 39185  1  0  0  0  0
 50186  1  0  0  0  0
 50187  1  0  0  0  0
 51188  1  0  0  0  0
 51189  1  0  0  0  0
 51190  1  0  0  0  0
 58191  1  0  0  0  0
 62192  1  0  0  0  0
 68193  1  0  0  0  0
 68194  1  0  0  0  0
 69195  1  0  0  0  0
 69196  1  0  0  0  0
 69197  1  0  0  0  0
 80198  1  0  0  0  0
 80199  1  0  0  0  0
 81200  1  0  0  0  0
 81201  1  0  0  0  0
 81202  1  0  0  0  0
 88203  1  0  0  0  0
 92204  1  0  0  0  0
 98205  1  0  0  0  0
 98206  1  0  0  0  0
 99207  1  0  0  0  0
 99208  1  0  0  0  0
 99209  1  0  0  0  0
110210  1  0  0  0  0
110211  1  0  0  0  0
111212  1  0  0  0  0
111213  1  0  0  0  0
111214  1  0  0  0  0
118215  1  0  0  0  0
122216  1  0  0  0  0
128217  1  0  0  0  0
128218  1  0  0  0  0
129219  1  0  0  0  0
129220  1  0  0  0  0
129221  1  0  0  0  0
140222  1  0  0  0  0
140223  1  0  0  0  0
141224  1  0  0  0  0
141225  1  0  0  0  0
141226  1  0  0  0  0
148227  1  0  0  0  0
158228  1  0  0  0  0
158229  1  0  0  0  0
159230  1  0  0  0  0
159231  1  0  0  0  0
159232  1  0  0  0  0
160233  1  0  0  0  0
160234  1  0  0  0  0
161235  1  0  0  0  0
161236  1  0  0  0  0
161237  1  0  0  0  0
163238  1  0  0  0  0
164239  1  0  0  0  0
165240  1  0  0  0  0
M  END
