
  xtb     03012208183D
 energy: -428.058970548915 gnorm: 0.000207581276 xtb: 6.4.1 (unknown)
226251  0     0  0            999 V2000
   -3.0706  -11.2345    9.3315 C   0  0  0  0  0  0  0  0  0  0  0  0
   -3.2822   -9.9445    9.6624 C   0  0  0  0  0  0  0  0  0  0  0  0
   -3.8669   -9.1918    8.6029 C   0  0  0  0  0  0  0  0  0  0  0  0
   -4.1797   -7.8249    8.5744 C   0  0  0  0  0  0  0  0  0  0  0  0
   -3.8165   -6.9237    9.6559 C   0  0  0  0  0  0  0  0  0  0  0  0
   -4.9635   -5.8126   10.3414 S   0  0  0  0  0  0  0  0  0  0  0  0
   -3.7728   -5.0956   11.3720 C   0  0  0  0  0  0  0  0  0  0  0  0
   -4.1092   -3.9293   12.2333 C   0  0  0  0  0  0  0  0  0  0  0  0
   -4.1084   -2.6376   11.4112 C   0  0  0  0  0  0  0  0  0  0  0  0
   -2.5626   -5.6937   11.1850 C   0  0  0  0  0  0  0  0  0  0  0  0
   -1.1325   -5.2475   12.0227 Cl  0  0  0  0  0  0  0  0  0  0  0  0
   -2.5834   -6.7326   10.2158 C   0  0  0  0  0  0  0  0  0  0  0  0
   -1.1665   -7.5786    9.7437 Cl  0  0  0  0  0  0  0  0  0  0  0  0
   -4.7939   -7.3432    7.4252 C   0  0  0  0  0  0  0  0  0  0  0  0
   -5.0457   -8.1455    6.2868 C   0  0  0  0  0  0  0  0  0  0  0  0
   -4.6972   -9.5064    6.3010 C   0  0  0  0  0  0  0  0  0  0  0  0
   -4.8931  -10.3486    5.1319 C   0  0  0  0  0  0  0  0  0  0  0  0
   -4.2110   -9.9110    3.5921 S   0  0  0  0  0  0  0  0  0  0  0  0
   -4.8124  -11.3433    2.8293 C   0  0  0  0  0  0  0  0  0  0  0  0
   -4.5134  -11.6374    1.4009 C   0  0  0  0  0  0  0  0  0  0  0  0
   -3.1126  -12.2345    1.2468 C   0  0  0  0  0  0  0  0  0  0  0  0
   -5.4963  -12.1056    3.7281 C   0  0  0  0  0  0  0  0  0  0  0  0
   -5.5473  -11.5444    5.0330 C   0  0  0  0  0  0  0  0  0  0  0  0
   -6.4225  -12.2739    6.3126 Cl  0  0  0  0  0  0  0  0  0  0  0  0
   -6.2436  -13.6014    3.3430 Cl  0  0  0  0  0  0  0  0  0  0  0  0
   -4.1247   -9.9995    7.4683 C   0  0  0  0  0  0  0  0  0  0  0  0
   -3.5767  -11.6310    7.7267 S   0  0  0  0  0  0  0  0  0  0  0  0
   -5.6351   -7.3988    5.2345 C   0  0  0  0  0  0  0  0  0  0  0  0
   -5.8179   -6.0840    5.5408 C   0  0  0  0  0  0  0  0  0  0  0  0
   -5.2771   -5.6940    7.1616 S   0  0  0  0  0  0  0  0  0  0  0  0
   -6.2936   -5.0313    4.7056 C   0  0  0  0  0  0  0  0  0  0  0  0
   -6.4905   -3.7325    5.0695 C   0  0  0  0  0  0  0  0  0  0  0  0
   -6.7962   -2.8785    3.9833 C   0  0  0  0  0  0  0  0  0  0  0  0
   -6.9592   -1.4814    4.0014 C   0  0  0  0  0  0  0  0  0  0  0  0
   -6.8261   -0.7218    5.2338 C   0  0  0  0  0  0  0  0  0  0  0  0
   -8.0673    0.3855    5.7381 S   0  0  0  0  0  0  0  0  0  0  0  0
   -7.2070    0.8178    7.1754 C   0  0  0  0  0  0  0  0  0  0  0  0
   -7.7384    1.8456    8.1120 C   0  0  0  0  0  0  0  0  0  0  0  0
   -7.3813    3.2541    7.6308 C   0  0  0  0  0  0  0  0  0  0  0  0
   -6.0223    0.1469    7.2380 C   0  0  0  0  0  0  0  0  0  0  0  0
   -4.8927    0.3140    8.5194 Cl  0  0  0  0  0  0  0  0  0  0  0  0
   -5.8017   -0.7274    6.1401 C   0  0  0  0  0  0  0  0  0  0  0  0
   -4.3434   -1.6163    5.9552 Cl  0  0  0  0  0  0  0  0  0  0  0  0
   -7.1901   -0.8593    2.7822 C   0  0  0  0  0  0  0  0  0  0  0  0
   -7.2809   -1.5800    1.5681 C   0  0  0  0  0  0  0  0  0  0  0  0
   -7.1618   -2.9820    1.5532 C   0  0  0  0  0  0  0  0  0  0  0  0
   -7.2551   -3.6905    0.2881 C   0  0  0  0  0  0  0  0  0  0  0  0
   -5.9797   -4.7197   -0.2916 S   0  0  0  0  0  0  0  0  0  0  0  0
   -6.7751   -4.9798   -1.8063 C   0  0  0  0  0  0  0  0  0  0  0  0
   -6.1346   -5.7609   -2.9004 C   0  0  0  0  0  0  0  0  0  0  0  0
   -5.4127   -4.8283   -3.8775 C   0  0  0  0  0  0  0  0  0  0  0  0
   -7.9646   -4.3138   -1.8411 C   0  0  0  0  0  0  0  0  0  0  0  0
   -8.2404   -3.5829   -0.6558 C   0  0  0  0  0  0  0  0  0  0  0  0
   -9.6955   -2.7009   -0.4285 Cl  0  0  0  0  0  0  0  0  0  0  0  0
   -9.0309   -4.3324   -3.1852 Cl  0  0  0  0  0  0  0  0  0  0  0  0
   -6.8828   -3.5963    2.7632 C   0  0  0  0  0  0  0  0  0  0  0  0
   -6.5673   -5.2930    2.9946 S   0  0  0  0  0  0  0  0  0  0  0  0
   -7.3261   -0.7221    0.4475 C   0  0  0  0  0  0  0  0  0  0  0  0
   -7.2545    0.6035    0.7659 C   0  0  0  0  0  0  0  0  0  0  0  0
   -7.2231    0.8615    2.4977 S   0  0  0  0  0  0  0  0  0  0  0  0
   -7.0126    1.6478   -0.1778 C   0  0  0  0  0  0  0  0  0  0  0  0
   -6.6119    1.4288   -1.4642 C   0  0  0  0  0  0  0  0  0  0  0  0
   -6.1912    2.5956   -2.1363 C   0  0  0  0  0  0  0  0  0  0  0  0
   -5.5931    2.6594   -3.4097 C   0  0  0  0  0  0  0  0  0  0  0  0
   -5.5707    1.4848   -4.2592 C   0  0  0  0  0  0  0  0  0  0  0  0
   -4.1074    0.9251   -5.0162 S   0  0  0  0  0  0  0  0  0  0  0  0
   -4.8861   -0.4759   -5.6675 C   0  0  0  0  0  0  0  0  0  0  0  0
   -4.1462   -1.4395   -6.5278 C   0  0  0  0  0  0  0  0  0  0  0  0
   -4.1183   -0.9587   -7.9808 C   0  0  0  0  0  0  0  0  0  0  0  0
   -6.2068   -0.4857   -5.3297 C   0  0  0  0  0  0  0  0  0  0  0  0
   -7.3048   -1.7239   -5.7868 Cl  0  0  0  0  0  0  0  0  0  0  0  0
   -6.5996    0.6213   -4.5324 C   0  0  0  0  0  0  0  0  0  0  0  0
   -8.2298    0.8637   -4.0477 Cl  0  0  0  0  0  0  0  0  0  0  0  0
   -4.9485    3.8462   -3.7219 C   0  0  0  0  0  0  0  0  0  0  0  0
   -5.0005    4.9948   -2.8929 C   0  0  0  0  0  0  0  0  0  0  0  0
   -5.7558    4.9753   -1.7017 C   0  0  0  0  0  0  0  0  0  0  0  0
   -5.9180    6.1753   -0.9067 C   0  0  0  0  0  0  0  0  0  0  0  0
   -5.7266    6.1746    0.8221 S   0  0  0  0  0  0  0  0  0  0  0  0
   -6.0774    7.8647    0.9415 C   0  0  0  0  0  0  0  0  0  0  0  0
   -6.1358    8.5444    2.2646 C   0  0  0  0  0  0  0  0  0  0  0  0
   -7.4817    8.2884    2.9472 C   0  0  0  0  0  0  0  0  0  0  0  0
   -6.3385    8.3837   -0.2917 C   0  0  0  0  0  0  0  0  0  0  0  0
   -6.2433    7.4333   -1.3419 C   0  0  0  0  0  0  0  0  0  0  0  0
   -6.5985    7.8326   -2.9730 Cl  0  0  0  0  0  0  0  0  0  0  0  0
   -6.7432   10.0281   -0.5732 Cl  0  0  0  0  0  0  0  0  0  0  0  0
   -6.2717    3.7427   -1.3130 C   0  0  0  0  0  0  0  0  0  0  0  0
   -6.9650    3.3471    0.2397 S   0  0  0  0  0  0  0  0  0  0  0  0
   -4.0917    5.9946   -3.3226 C   0  0  0  0  0  0  0  0  0  0  0  0
   -3.3613    5.6305   -4.4179 C   0  0  0  0  0  0  0  0  0  0  0  0
   -3.8678    4.0801   -5.0629 S   0  0  0  0  0  0  0  0  0  0  0  0
   -2.1497    6.2073   -4.9003 C   0  0  0  0  0  0  0  0  0  0  0  0
   -0.9817    5.1292   -5.6227 S   0  0  0  0  0  0  0  0  0  0  0  0
    0.2166    6.3647   -5.5656 C   0  0  0  0  0  0  0  0  0  0  0  0
    1.6132    6.1860   -5.6791 C   0  0  0  0  0  0  0  0  0  0  0  0
    2.4391    7.1559   -5.1239 C   0  0  0  0  0  0  0  0  0  0  0  0
    1.9897    8.3427   -4.6861 O   0  0  0  0  0  0  0  0  0  0  0  0
    0.6541    8.7566   -5.0430 C   0  0  0  0  0  0  0  0  0  0  0  0
    0.2224    9.7336   -3.9367 C   0  0  0  0  0  0  0  0  0  0  0  0
    1.1549   10.9258   -3.7645 C   0  0  0  0  0  0  0  0  0  0  0  0
    0.6572    9.4183   -6.4530 C   0  0  0  0  0  0  0  0  0  0  0  0
    2.0311    9.8801   -6.9293 C   0  0  0  0  0  0  0  0  0  0  0  0
   -0.2791    7.5658   -5.0827 C   0  0  0  0  0  0  0  0  0  0  0  0
   -1.6213    7.4642   -4.6974 C   0  0  0  0  0  0  0  0  0  0  0  0
    3.7578    6.7075   -4.9462 C   0  0  0  0  0  0  0  0  0  0  0  0
    3.9345    5.4020   -5.3470 C   0  0  0  0  0  0  0  0  0  0  0  0
    2.4733    4.7272   -6.0217 S   0  0  0  0  0  0  0  0  0  0  0  0
    5.0483    4.5460   -5.1284 C   0  0  0  0  0  0  0  0  0  0  0  0
    5.0754    3.1934   -5.3179 C   0  0  0  0  0  0  0  0  0  0  0  0
    6.2349    2.5710   -4.8038 C   0  0  0  0  0  0  0  0  0  0  0  0
    6.5193    1.1942   -4.7533 C   0  0  0  0  0  0  0  0  0  0  0  0
    5.6201    0.2273   -5.3634 C   0  0  0  0  0  0  0  0  0  0  0  0
    5.1997    0.3357   -7.0480 S   0  0  0  0  0  0  0  0  0  0  0  0
    4.1726   -1.0545   -6.9634 C   0  0  0  0  0  0  0  0  0  0  0  0
    3.4743   -1.5754   -8.1708 C   0  0  0  0  0  0  0  0  0  0  0  0
    4.3850   -2.5094   -8.9712 C   0  0  0  0  0  0  0  0  0  0  0  0
    4.1739   -1.5657   -5.7006 C   0  0  0  0  0  0  0  0  0  0  0  0
    3.2690   -2.9443   -5.2268 Cl  0  0  0  0  0  0  0  0  0  0  0  0
    4.9881   -0.8399   -4.7895 C   0  0  0  0  0  0  0  0  0  0  0  0
    5.0749   -1.2336   -3.1240 Cl  0  0  0  0  0  0  0  0  0  0  0  0
    7.6653    0.8139   -4.0729 C   0  0  0  0  0  0  0  0  0  0  0  0
    8.5491    1.7444   -3.4690 C   0  0  0  0  0  0  0  0  0  0  0  0
    8.2926    3.1244   -3.5709 C   0  0  0  0  0  0  0  0  0  0  0  0
    9.2179    4.0975   -3.0178 C   0  0  0  0  0  0  0  0  0  0  0  0
    8.6852    5.3640   -1.9530 S   0  0  0  0  0  0  0  0  0  0  0  0
   10.2849    6.0027   -1.7854 C   0  0  0  0  0  0  0  0  0  0  0  0
   10.5421    7.2260   -0.9770 C   0  0  0  0  0  0  0  0  0  0  0  0
   10.1876    8.4859   -1.7702 C   0  0  0  0  0  0  0  0  0  0  0  0
   11.1665    5.2747   -2.5271 C   0  0  0  0  0  0  0  0  0  0  0  0
   10.5673    4.1901   -3.2218 C   0  0  0  0  0  0  0  0  0  0  0  0
   11.4565    3.1647   -4.2722 Cl  0  0  0  0  0  0  0  0  0  0  0  0
   12.8461    5.6132   -2.6250 Cl  0  0  0  0  0  0  0  0  0  0  0  0
    7.1179    3.5027   -4.2072 C   0  0  0  0  0  0  0  0  0  0  0  0
    6.5089    5.1303   -4.3528 S   0  0  0  0  0  0  0  0  0  0  0  0
    9.5901    1.0985   -2.7608 C   0  0  0  0  0  0  0  0  0  0  0  0
    9.5402   -0.2641   -2.8354 C   0  0  0  0  0  0  0  0  0  0  0  0
    8.2009   -0.8217   -3.8205 S   0  0  0  0  0  0  0  0  0  0  0  0
   10.3744   -1.2126   -2.1856 C   0  0  0  0  0  0  0  0  0  0  0  0
   11.7524   -0.7041   -1.2419 S   0  0  0  0  0  0  0  0  0  0  0  0
   12.0888   -2.3438   -0.8162 C   0  0  0  0  0  0  0  0  0  0  0  0
   13.1015   -2.8443    0.0388 C   0  0  0  0  0  0  0  0  0  0  0  0
   13.0493   -4.1772    0.4074 C   0  0  0  0  0  0  0  0  0  0  0  0
   12.0949   -5.0358    0.0075 O   0  0  0  0  0  0  0  0  0  0  0  0
   11.3178   -4.7199   -1.1617 C   0  0  0  0  0  0  0  0  0  0  0  0
    9.9162   -5.3440   -0.9631 C   0  0  0  0  0  0  0  0  0  0  0  0
    9.8797   -6.5491   -0.0293 C   0  0  0  0  0  0  0  0  0  0  0  0
   12.0614   -5.2679   -2.4043 C   0  0  0  0  0  0  0  0  0  0  0  0
   12.3011   -6.7714   -2.3864 C   0  0  0  0  0  0  0  0  0  0  0  0
   11.1803   -3.2274   -1.3678 C   0  0  0  0  0  0  0  0  0  0  0  0
   10.2186   -2.5806   -2.1496 C   0  0  0  0  0  0  0  0  0  0  0  0
   14.0765   -4.5296    1.3115 C   0  0  0  0  0  0  0  0  0  0  0  0
   14.8865   -3.4760    1.5996 C   0  0  0  0  0  0  0  0  0  0  0  0
   14.4290   -2.0290    0.7909 S   0  0  0  0  0  0  0  0  0  0  0  0
   -2.6454  -12.0091    9.9392 H   0  0  0  0  0  0  0  0  0  0  0  0
   -3.0481   -9.5283   10.6246 H   0  0  0  0  0  0  0  0  0  0  0  0
   -5.0954   -4.0758   12.6772 H   0  0  0  0  0  0  0  0  0  0  0  0
   -3.3707   -3.8573   13.0335 H   0  0  0  0  0  0  0  0  0  0  0  0
   -4.3585   -1.7905   12.0442 H   0  0  0  0  0  0  0  0  0  0  0  0
   -3.1273   -2.4683   10.9748 H   0  0  0  0  0  0  0  0  0  0  0  0
   -4.8381   -2.7013   10.6073 H   0  0  0  0  0  0  0  0  0  0  0  0
   -4.5806  -10.7162    0.8191 H   0  0  0  0  0  0  0  0  0  0  0  0
   -5.2566  -12.3439    1.0271 H   0  0  0  0  0  0  0  0  0  0  0  0
   -2.9100  -12.4468    0.2005 H   0  0  0  0  0  0  0  0  0  0  0  0
   -3.0329  -13.1595    1.8121 H   0  0  0  0  0  0  0  0  0  0  0  0
   -2.3633  -11.5370    1.6137 H   0  0  0  0  0  0  0  0  0  0  0  0
   -5.9104   -7.8150    4.2824 H   0  0  0  0  0  0  0  0  0  0  0  0
   -6.4034   -3.4020    6.0881 H   0  0  0  0  0  0  0  0  0  0  0  0
   -7.3084    1.6754    9.1007 H   0  0  0  0  0  0  0  0  0  0  0  0
   -8.8233    1.7493    8.1793 H   0  0  0  0  0  0  0  0  0  0  0  0
   -7.7787    3.9955    8.3186 H   0  0  0  0  0  0  0  0  0  0  0  0
   -6.3020    3.3712    7.5765 H   0  0  0  0  0  0  0  0  0  0  0  0
   -7.7999    3.4319    6.6431 H   0  0  0  0  0  0  0  0  0  0  0  0
   -6.9058   -6.3185   -3.4361 H   0  0  0  0  0  0  0  0  0  0  0  0
   -5.4227   -6.4676   -2.4723 H   0  0  0  0  0  0  0  0  0  0  0  0
   -4.6370   -4.2667   -3.3621 H   0  0  0  0  0  0  0  0  0  0  0  0
   -4.9542   -5.4069   -4.6750 H   0  0  0  0  0  0  0  0  0  0  0  0
   -6.1164   -4.1256   -4.3163 H   0  0  0  0  0  0  0  0  0  0  0  0
   -7.3567   -1.0816   -0.5629 H   0  0  0  0  0  0  0  0  0  0  0  0
   -6.5285    0.4490   -1.8931 H   0  0  0  0  0  0  0  0  0  0  0  0
   -4.6402   -2.4112   -6.4714 H   0  0  0  0  0  0  0  0  0  0  0  0
   -3.1241   -1.5428   -6.1602 H   0  0  0  0  0  0  0  0  0  0  0  0
   -5.1305   -0.8652   -8.3660 H   0  0  0  0  0  0  0  0  0  0  0  0
   -3.5744   -1.6678   -8.5987 H   0  0  0  0  0  0  0  0  0  0  0  0
   -3.6299    0.0106   -8.0468 H   0  0  0  0  0  0  0  0  0  0  0  0
   -5.9968    9.6165    2.1152 H   0  0  0  0  0  0  0  0  0  0  0  0
   -5.3311    8.1709    2.9003 H   0  0  0  0  0  0  0  0  0  0  0  0
   -8.2940    8.6692    2.3333 H   0  0  0  0  0  0  0  0  0  0  0  0
   -7.5115    8.7861    3.9126 H   0  0  0  0  0  0  0  0  0  0  0  0
   -7.6299    7.2217    3.0976 H   0  0  0  0  0  0  0  0  0  0  0  0
   -3.9055    6.8991   -2.7737 H   0  0  0  0  0  0  0  0  0  0  0  0
   -0.7841   10.0867   -4.1633 H   0  0  0  0  0  0  0  0  0  0  0  0
    0.1854    9.1720   -3.0003 H   0  0  0  0  0  0  0  0  0  0  0  0
    0.8492   11.5048   -2.8961 H   0  0  0  0  0  0  0  0  0  0  0  0
    2.1747   10.5847   -3.6122 H   0  0  0  0  0  0  0  0  0  0  0  0
    1.1237   11.5764   -4.6341 H   0  0  0  0  0  0  0  0  0  0  0  0
    0.2642    8.7012   -7.1782 H   0  0  0  0  0  0  0  0  0  0  0  0
   -0.0283   10.2663   -6.4297 H   0  0  0  0  0  0  0  0  0  0  0  0
    2.6848    9.0298   -7.1093 H   0  0  0  0  0  0  0  0  0  0  0  0
    1.9229   10.4284   -7.8624 H   0  0  0  0  0  0  0  0  0  0  0  0
    2.5068   10.5256   -6.1978 H   0  0  0  0  0  0  0  0  0  0  0  0
   -2.1986    8.2660   -4.2762 H   0  0  0  0  0  0  0  0  0  0  0  0
    4.5344    7.2965   -4.4943 H   0  0  0  0  0  0  0  0  0  0  0  0
    4.2590    2.6578   -5.7679 H   0  0  0  0  0  0  0  0  0  0  0  0
    2.5832   -2.1190   -7.8512 H   0  0  0  0  0  0  0  0  0  0  0  0
    3.1678   -0.7385   -8.8006 H   0  0  0  0  0  0  0  0  0  0  0  0
    5.2761   -1.9786   -9.2975 H   0  0  0  0  0  0  0  0  0  0  0  0
    4.6884   -3.3549   -8.3591 H   0  0  0  0  0  0  0  0  0  0  0  0
    3.8602   -2.8827   -9.8464 H   0  0  0  0  0  0  0  0  0  0  0  0
    9.9428    7.1915   -0.0654 H   0  0  0  0  0  0  0  0  0  0  0  0
   11.5980    7.2487   -0.7021 H   0  0  0  0  0  0  0  0  0  0  0  0
   10.3756    9.3714   -1.1690 H   0  0  0  0  0  0  0  0  0  0  0  0
   10.7890    8.5436   -2.6739 H   0  0  0  0  0  0  0  0  0  0  0  0
    9.1375    8.4694   -2.0519 H   0  0  0  0  0  0  0  0  0  0  0  0
   10.3323    1.6161   -2.1808 H   0  0  0  0  0  0  0  0  0  0  0  0
    9.2598   -4.5767   -0.5456 H   0  0  0  0  0  0  0  0  0  0  0  0
    9.5236   -5.6212   -1.9423 H   0  0  0  0  0  0  0  0  0  0  0  0
   10.5065   -7.3569   -0.3911 H   0  0  0  0  0  0  0  0  0  0  0  0
    8.8563   -6.9098    0.0482 H   0  0  0  0  0  0  0  0  0  0  0  0
   10.2241   -6.2692    0.9620 H   0  0  0  0  0  0  0  0  0  0  0  0
   13.0262   -4.7538   -2.4518 H   0  0  0  0  0  0  0  0  0  0  0  0
   11.4921   -4.9866   -3.2923 H   0  0  0  0  0  0  0  0  0  0  0  0
   12.7652   -7.0657   -1.4484 H   0  0  0  0  0  0  0  0  0  0  0  0
   12.9657   -7.0468   -3.2023 H   0  0  0  0  0  0  0  0  0  0  0  0
   11.3696   -7.3171   -2.5083 H   0  0  0  0  0  0  0  0  0  0  0  0
    9.4228   -3.0789   -2.6737 H   0  0  0  0  0  0  0  0  0  0  0  0
   14.1924   -5.5170    1.7174 H   0  0  0  0  0  0  0  0  0  0  0  0
   15.7430   -3.4628    2.2431 H   0  0  0  0  0  0  0  0  0  0  0  0
  1  2  2  0  0  0  0
  2  3  1  0  0  0  0
  3  4  2  0  0  0  0
  4  5  1  0  0  0  0
  5  6  1  0  0  0  0
  6  7  1  0  0  0  0
  7  8  1  0  0  0  0
  8  9  1  0  0  0  0
  7 10  2  0  0  0  0
 10 11  1  0  0  0  0
 10 12  1  0  0  0  0
 12 13  1  0  0  0  0
  4 14  1  0  0  0  0
 14 15  2  0  0  0  0
 15 16  1  0  0  0  0
 16 17  1  0  0  0  0
 17 18  1  0  0  0  0
 18 19  1  0  0  0  0
 19 20  1  0  0  0  0
 20 21  1  0  0  0  0
 19 22  2  0  0  0  0
 22 23  1  0  0  0  0
 23 24  1  0  0  0  0
 22 25  1  0  0  0  0
 16 26  2  0  0  0  0
 26 27  1  0  0  0  0
 15 28  1  0  0  0  0
 28 29  2  0  0  0  0
 29 30  1  0  0  0  0
 29 31  1  0  0  0  0
 31 32  2  0  0  0  0
 32 33  1  0  0  0  0
 33 34  2  0  0  0  0
 34 35  1  0  0  0  0
 35 36  1  0  0  0  0
 36 37  1  0  0  0  0
 37 38  1  0  0  0  0
 38 39  1  0  0  0  0
 37 40  2  0  0  0  0
 40 41  1  0  0  0  0
 40 42  1  0  0  0  0
 42 43  1  0  0  0  0
 34 44  1  0  0  0  0
 44 45  2  0  0  0  0
 45 46  1  0  0  0  0
 46 47  1  0  0  0  0
 47 48  1  0  0  0  0
 48 49  1  0  0  0  0
 49 50  1  0  0  0  0
 50 51  1  0  0  0  0
 49 52  2  0  0  0  0
 52 53  1  0  0  0  0
 53 54  1  0  0  0  0
 52 55  1  0  0  0  0
 46 56  2  0  0  0  0
 56 57  1  0  0  0  0
 45 58  1  0  0  0  0
 58 59  2  0  0  0  0
 59 60  1  0  0  0  0
 59 61  1  0  0  0  0
 61 62  2  0  0  0  0
 62 63  1  0  0  0  0
 63 64  2  0  0  0  0
 64 65  1  0  0  0  0
 65 66  1  0  0  0  0
 66 67  1  0  0  0  0
 67 68  1  0  0  0  0
 68 69  1  0  0  0  0
 67 70  2  0  0  0  0
 70 71  1  0  0  0  0
 70 72  1  0  0  0  0
 72 73  1  0  0  0  0
 64 74  1  0  0  0  0
 74 75  2  0  0  0  0
 75 76  1  0  0  0  0
 76 77  1  0  0  0  0
 77 78  1  0  0  0  0
 78 79  1  0  0  0  0
 79 80  1  0  0  0  0
 80 81  1  0  0  0  0
 79 82  2  0  0  0  0
 82 83  1  0  0  0  0
 83 84  1  0  0  0  0
 82 85  1  0  0  0  0
 76 86  2  0  0  0  0
 86 87  1  0  0  0  0
 75 88  1  0  0  0  0
 88 89  2  0  0  0  0
 89 90  1  0  0  0  0
 89 91  1  0  0  0  0
 91 92  1  0  0  0  0
 92 93  1  0  0  0  0
 93 94  1  0  0  0  0
 94 95  2  0  0  0  0
 95 96  1  0  0  0  0
 96 97  1  0  0  0  0
 97 98  1  0  0  0  0
 98 99  1  0  0  0  0
 97100  1  0  0  0  0
100101  1  0  0  0  0
 97102  1  0  0  0  0
102103  1  0  0  0  0
 95104  1  0  0  0  0
104105  2  0  0  0  0
105106  1  0  0  0  0
105107  1  0  0  0  0
107108  2  0  0  0  0
108109  1  0  0  0  0
109110  2  0  0  0  0
110111  1  0  0  0  0
111112  1  0  0  0  0
112113  1  0  0  0  0
113114  1  0  0  0  0
114115  1  0  0  0  0
113116  2  0  0  0  0
116117  1  0  0  0  0
116118  1  0  0  0  0
118119  1  0  0  0  0
110120  1  0  0  0  0
120121  2  0  0  0  0
121122  1  0  0  0  0
122123  1  0  0  0  0
123124  1  0  0  0  0
124125  1  0  0  0  0
125126  1  0  0  0  0
126127  1  0  0  0  0
125128  2  0  0  0  0
128129  1  0  0  0  0
129130  1  0  0  0  0
128131  1  0  0  0  0
122132  2  0  0  0  0
132133  1  0  0  0  0
121134  1  0  0  0  0
134135  2  0  0  0  0
135136  1  0  0  0  0
135137  1  0  0  0  0
137138  1  0  0  0  0
138139  1  0  0  0  0
139140  1  0  0  0  0
140141  2  0  0  0  0
141142  1  0  0  0  0
142143  1  0  0  0  0
143144  1  0  0  0  0
144145  1  0  0  0  0
143146  1  0  0  0  0
146147  1  0  0  0  0
143148  1  0  0  0  0
148149  1  0  0  0  0
141150  1  0  0  0  0
150151  2  0  0  0  0
151152  1  0  0  0  0
 27  1  1  0  0  0  0
 57 31  1  0  0  0  0
 87 61  1  0  0  0  0
103 91  2  0  0  0  0
133107  1  0  0  0  0
149137  2  0  0  0  0
 26  3  1  0  0  0  0
 56 33  1  0  0  0  0
 86 63  1  0  0  0  0
102 93  2  0  0  0  0
132109  1  0  0  0  0
148139  2  0  0  0  0
 12  5  2  0  0  0  0
 30 14  1  0  0  0  0
 42 35  2  0  0  0  0
 60 44  1  0  0  0  0
 72 65  2  0  0  0  0
 90 74  1  0  0  0  0
106 94  1  0  0  0  0
118111  2  0  0  0  0
136120  1  0  0  0  0
152140  1  0  0  0  0
 23 17  2  0  0  0  0
 53 47  2  0  0  0  0
 83 77  2  0  0  0  0
129123  2  0  0  0  0
  1153  1  0  0  0  0
  2154  1  0  0  0  0
  8155  1  0  0  0  0
  8156  1  0  0  0  0
  9157  1  0  0  0  0
  9158  1  0  0  0  0
  9159  1  0  0  0  0
 20160  1  0  0  0  0
 20161  1  0  0  0  0
 21162  1  0  0  0  0
 21163  1  0  0  0  0
 21164  1  0  0  0  0
 28165  1  0  0  0  0
 32166  1  0  0  0  0
 38167  1  0  0  0  0
 38168  1  0  0  0  0
 39169  1  0  0  0  0
 39170  1  0  0  0  0
 39171  1  0  0  0  0
 50172  1  0  0  0  0
 50173  1  0  0  0  0
 51174  1  0  0  0  0
 51175  1  0  0  0  0
 51176  1  0  0  0  0
 58177  1  0  0  0  0
 62178  1  0  0  0  0
 68179  1  0  0  0  0
 68180  1  0  0  0  0
 69181  1  0  0  0  0
 69182  1  0  0  0  0
 69183  1  0  0  0  0
 80184  1  0  0  0  0
 80185  1  0  0  0  0
 81186  1  0  0  0  0
 81187  1  0  0  0  0
 81188  1  0  0  0  0
 88189  1  0  0  0  0
 98190  1  0  0  0  0
 98191  1  0  0  0  0
 99192  1  0  0  0  0
 99193  1  0  0  0  0
 99194  1  0  0  0  0
100195  1  0  0  0  0
100196  1  0  0  0  0
101197  1  0  0  0  0
101198  1  0  0  0  0
101199  1  0  0  0  0
103200  1  0  0  0  0
104201  1  0  0  0  0
108202  1  0  0  0  0
114203  1  0  0  0  0
114204  1  0  0  0  0
115205  1  0  0  0  0
115206  1  0  0  0  0
115207  1  0  0  0  0
126208  1  0  0  0  0
126209  1  0  0  0  0
127210  1  0  0  0  0
127211  1  0  0  0  0
127212  1  0  0  0  0
134213  1  0  0  0  0
144214  1  0  0  0  0
144215  1  0  0  0  0
145216  1  0  0  0  0
145217  1  0  0  0  0
145218  1  0  0  0  0
146219  1  0  0  0  0
146220  1  0  0  0  0
147221  1  0  0  0  0
147222  1  0  0  0  0
147223  1  0  0  0  0
149224  1  0  0  0  0
150225  1  0  0  0  0
151226  1  0  0  0  0
M  END
