212

C          5.90870       -1.76090       11.62860
C          7.12350       -1.66380       11.05080
C          7.05020       -1.46620        9.64120
C          8.10180       -1.32400        8.72280
C          9.49510       -1.36000        9.14250
S         10.14770       -2.72160       10.00460
C         11.73110       -2.02480       10.06760
C         12.87360       -2.75720       10.67980
C         13.50030       -3.73000        9.67810
C         11.73760       -0.81170        9.44740
Cl        13.12770        0.18490        9.30920
C         10.47240       -0.43020        8.92450
Cl        10.20800        1.08610        8.17120
C          7.75660       -1.16180        7.38810
C          6.41460       -1.12440        6.93370
C          5.36330       -1.20880        7.86020
C          3.97020       -1.07740        7.45950
S          3.22990       -2.12380        6.28460
C          1.69760       -1.33180        6.42580
C          0.50240       -1.78240        5.65920
C         -0.43370       -2.61820        6.53540
C          1.77150       -0.31990        7.33590
C          3.05610       -0.17150        7.92210
Cl         3.42080        1.08090        9.03390
Cl         0.45020        0.69930        7.73600
C          5.71020       -1.39320        9.19400
S          4.59610       -1.60580       10.51430
C          6.33720       -0.96400        5.52820
C          7.55580       -0.88160        4.92030
S          8.87690       -1.00830        6.06520
C          7.82960       -0.66580        3.54040
S          6.57360       -0.86360        2.34630
C          7.65220       -0.33790        1.10520
C          7.38370       -0.20160       -0.27690
C          8.40770        0.19080       -1.12220
O          9.67730        0.37440       -0.71850
C          9.94860        0.59450        0.68700
C          9.94850        2.13410        0.86320
C         10.23610        2.64780        2.26640
C         11.33700       -0.01540        0.92620
C         11.33790       -1.52600        0.72350
C          8.90730       -0.02110        1.58910
C          9.00630       -0.23500        2.96960
C          7.98520        0.33150       -2.45980
C          6.66350        0.01840       -2.62770
S          5.90640       -0.45480       -1.13010
C          5.81390        0.13460       -3.78610
C          5.52800        1.26370       -4.48680
C          4.43270        1.11020       -5.37890
C          3.72340        2.11070       -6.06680
C          4.15260        3.49830       -6.09810
S          4.56680        4.38660       -4.66170
C          4.87180        5.84090       -5.54940
C          5.35240        7.07450       -4.86880
C          6.86620        7.02390       -4.64850
C          4.67210        5.63140       -6.88100
Cl         4.89110        6.83590       -8.08280
C          4.25480        4.31030       -7.19480
Cl         3.99140        3.78980       -8.80570
C          2.52370        1.73060       -6.65890
C          2.08520        0.38600       -6.72940
C          2.84720       -0.63020       -6.12900
C          2.44920       -2.02690       -6.15760
S          0.85120       -2.55030       -5.71160
C          1.24070       -4.21780       -5.95540
C          0.24460       -5.28960       -5.68190
C          0.25400       -5.67800       -4.20130
C          2.53810       -4.34750       -6.35170
C          3.22590       -3.11020       -6.46730
Cl         4.84370       -3.00830       -7.02210
Cl         3.28740       -5.85220       -6.69460
C          3.96250       -0.22490       -5.40450
S          4.83490       -1.22710       -4.28350
C          0.78370        0.28310       -7.27780
C          0.19330        1.49240       -7.49700
S          1.28750        2.82760       -7.21370
C         -1.21630        1.69810       -7.62290
C         -1.92800        2.70370       -7.04130
C         -3.30910        2.41180       -6.91040
C         -4.25250        3.11820       -6.13970
C         -3.95120        4.44300       -5.63700
S         -4.23750        4.89820       -3.98330
C         -3.62930        6.49760       -4.23610
C         -3.63640        7.50450       -3.13970
C         -5.00220        8.18800       -3.03900
C         -3.24640        6.66150       -5.53440
Cl        -2.60630        8.12310       -6.16640
C         -3.41910        5.49870       -6.33010
Cl        -3.06790        5.47490       -8.00980
C         -5.42280        2.43840       -5.82490
C         -5.76670        1.19230       -6.40210
C         -4.89240        0.56900       -7.31390
C         -5.26830       -0.66590       -7.97190
S         -4.20460       -2.03980       -8.05220
C         -5.36370       -2.98670       -8.92180
C         -5.03970       -4.36380       -9.38520
C         -4.25090       -4.32460      -10.69630
C         -6.49770       -2.26340       -9.14240
C         -6.45130       -0.95200       -8.60050
Cl        -7.73300        0.17090       -8.80440
Cl        -7.86670       -2.86240       -9.98690
C         -3.63960        1.15280       -7.46430
S         -2.24710        0.39950       -8.19230
C         -6.91560        0.62560       -5.79480
C         -7.41020        1.37440       -4.76900
S         -6.56330        2.89870       -4.59350
C         -8.32560        0.93700       -3.76000
S         -7.90840        1.24980       -2.09250
C         -9.16690        0.19600       -1.56580
C         -9.33860       -0.34740       -0.27200
C        -10.14950       -1.46650       -0.13370
O        -10.90790       -1.96260       -1.12750
C        -11.12490       -1.15390       -2.30850
C        -12.31800       -0.22020       -2.00060
C        -12.75150        0.64490       -3.17560
C        -11.40450       -2.15570       -3.43870
C        -12.59380       -3.06860       -3.16480
C         -9.91280       -0.30780       -2.61860
C         -9.41080        0.09960       -3.86240
C        -10.00560       -2.09480        1.11180
C         -9.07240       -1.47600        1.91800
S         -8.40100       -0.06130        1.15280
C         -8.58040       -1.91240        3.17840
S         -7.10880       -1.23670        3.83310
C         -7.15630       -2.34810        5.15270
C         -6.21440       -2.51020        6.19770
C         -6.44370       -3.48480        7.15090
O         -7.52170       -4.28460        7.18670
C         -8.52080       -4.23140        6.14520
C         -9.86400       -3.95610        6.85320
C         -9.90070       -2.57840        7.50360
C         -8.54160       -5.62930        5.49020
C         -7.24600       -5.94180        4.75100
C         -8.26120       -3.17580        5.10060
C         -9.06130       -2.92660        3.97970
C         -5.40750       -3.55870        8.11020
C         -4.42050       -2.65570        7.86720
S         -4.71550       -1.68990        6.47510
H          5.68350       -1.91180       12.66620
H          8.04870       -1.72930       11.59310
H         13.62220       -2.03080       11.00150
H         12.52390       -3.31080       11.55300
H         14.33130       -4.25670       10.13930
H         12.76360       -4.45890        9.34880
H         13.86810       -3.19060        8.80900
H          0.82530       -2.36960        4.79870
H         -0.03680       -0.90270        5.30000
H         -1.31300       -2.90990        5.96730
H          0.07260       -3.51450        6.88550
H         -0.75330       -2.03940        7.39790
H          5.41260       -0.89640        4.98390
H         10.68660        2.53520        0.16530
H          8.96470        2.49290        0.54600
H          9.48910        2.29490        2.97270
H         10.21090        3.73500        2.26240
H         11.21870        2.33500        2.60850
H         12.02910        0.44760        0.22130
H         11.66230        0.22220        1.93790
H         10.67580       -2.01140        1.43740
H         11.00180       -1.76890       -0.28150
H         12.34150       -1.92100        0.85850
H          9.89330       -0.07200        3.55470
H          8.63450        0.63490       -3.25950
H          6.03160        2.19590       -4.31070
H          5.10160        7.93560       -5.49070
H          4.84900        7.17840       -3.90600
H          7.38250        6.93340       -5.60080
H          7.12870        6.17080       -4.02720
H          7.20220        7.93190       -4.15510
H          0.49270       -6.16150       -6.29010
H         -0.75060       -4.93780       -5.95940
H          1.23790       -6.03880       -3.91300
H         -0.47360       -6.46360       -4.01660
H          0.00460       -4.81790       -3.58450
H          0.25790       -0.64420       -7.41100
H         -1.45830        3.56940       -6.61070
H         -3.40740        7.01110       -2.19370
H         -2.86650        8.25100       -3.34280
H         -5.77750        7.45150       -2.84190
H         -4.99710        8.91550       -2.23190
H         -5.23670        8.70000       -3.96880
H         -4.44920       -4.87350       -8.62190
H         -5.97130       -4.91270       -9.53350
H         -3.32210       -3.77590      -10.56020
H         -4.01710       -5.33450      -11.02210
H         -4.83380       -3.83440      -11.47190
H         -7.28840       -0.35470       -6.02820
H        -12.01810        0.42420       -1.16930
H        -13.15090       -0.83420       -1.65560
H        -13.52410        1.33900       -2.85370
H        -11.91280        1.22140       -3.55940
H        -13.15550        0.03920       -3.98220
H        -11.56710       -1.60620       -4.36490
H        -10.50590       -2.76510       -3.55860
H        -12.64610       -3.84080       -3.92870
H        -13.52790       -2.51350       -3.17920
H        -12.48340       -3.54530       -2.19510
H         -9.81650       -0.19410       -4.81300
H        -10.53050       -2.99130        1.38130
H        -10.00160       -4.72360        7.61650
H        -10.67070       -4.04490        6.12500
H         -9.08960       -2.47760        8.22090
H         -9.80050       -1.79560        6.75460
H        -10.84260       -2.43660        8.02740
H         -8.69670       -6.36480        6.28130
H         -9.38420       -5.68270        4.80030
H         -6.39800       -5.88020        5.42940
H         -7.08840       -5.23990        3.93470
H         -7.28350       -6.94710        4.33910
H         -9.96330       -3.46370        3.75170
H         -5.41120       -4.25310        8.92910
H         -3.52280       -2.49690        8.42980
