
  xtb     03022221423D
 energy: -308.252297269384 gnorm: 0.000214030805 xtb: 6.4.1 (unknown)
184203  0     0  0            999 V2000
   18.2785   -7.0903   -1.0692 C   0  0  0  0  0  0  0  0  0  0  0  0
   16.7309   -7.1405   -1.8249 S   0  0  0  0  0  0  0  0  0  0  0  0
   15.9584   -7.0418   -0.2808 C   0  0  0  0  0  0  0  0  0  0  0  0
   14.5740   -7.0639    0.0218 C   0  0  0  0  0  0  0  0  0  0  0  0
   14.1933   -7.2050    1.3475 C   0  0  0  0  0  0  0  0  0  0  0  0
   15.0696   -7.3271    2.3645 O   0  0  0  0  0  0  0  0  0  0  0  0
   16.3995   -6.8123    2.1794 C   0  0  0  0  0  0  0  0  0  0  0  0
   17.3260   -7.5942    3.1374 C   0  0  0  0  0  0  0  0  0  0  0  0
   16.6407   -8.1388    4.3863 C   0  0  0  0  0  0  0  0  0  0  0  0
   16.3841   -5.2865    2.4481 C   0  0  0  0  0  0  0  0  0  0  0  0
   15.9024   -4.8876    3.8365 C   0  0  0  0  0  0  0  0  0  0  0  0
   16.8695   -6.9854    0.7517 C   0  0  0  0  0  0  0  0  0  0  0  0
   18.1993   -7.0082    0.2862 C   0  0  0  0  0  0  0  0  0  0  0  0
   12.8027   -7.2672    1.5143 C   0  0  0  0  0  0  0  0  0  0  0  0
   12.1169   -7.1524    0.3254 C   0  0  0  0  0  0  0  0  0  0  0  0
   13.2052   -6.9779   -1.0296 S   0  0  0  0  0  0  0  0  0  0  0  0
   10.7142   -7.1116    0.1258 C   0  0  0  0  0  0  0  0  0  0  0  0
    9.6118   -7.2799    1.4694 S   0  0  0  0  0  0  0  0  0  0  0  0
    8.2623   -7.0268    0.4180 C   0  0  0  0  0  0  0  0  0  0  0  0
    6.8901   -7.0087    0.7478 C   0  0  0  0  0  0  0  0  0  0  0  0
    5.9614   -6.9377   -0.2832 C   0  0  0  0  0  0  0  0  0  0  0  0
    6.3034   -6.9463   -1.5859 O   0  0  0  0  0  0  0  0  0  0  0  0
    7.6210   -6.4780   -1.9482 C   0  0  0  0  0  0  0  0  0  0  0  0
    7.9430   -7.1731   -3.2804 C   0  0  0  0  0  0  0  0  0  0  0  0
    6.9372   -6.8692   -4.3845 C   0  0  0  0  0  0  0  0  0  0  0  0
    7.5218   -4.9375   -2.0555 C   0  0  0  0  0  0  0  0  0  0  0  0
    8.7760   -4.2426   -2.5647 C   0  0  0  0  0  0  0  0  0  0  0  0
    8.6486   -6.8336   -0.8989 C   0  0  0  0  0  0  0  0  0  0  0  0
   10.0355   -6.8933   -1.0551 C   0  0  0  0  0  0  0  0  0  0  0  0
    4.6384   -6.9128    0.1733 C   0  0  0  0  0  0  0  0  0  0  0  0
    4.5450   -6.9651    1.5477 C   0  0  0  0  0  0  0  0  0  0  0  0
    6.1201   -7.0580    2.2961 S   0  0  0  0  0  0  0  0  0  0  0  0
    3.3747   -6.8632    2.3404 C   0  0  0  0  0  0  0  0  0  0  0  0
    1.8657   -6.3667    1.6120 S   0  0  0  0  0  0  0  0  0  0  0  0
    1.0957   -6.3772    3.1594 C   0  0  0  0  0  0  0  0  0  0  0  0
   -0.1969   -5.9163    3.4842 C   0  0  0  0  0  0  0  0  0  0  0  0
   -0.5329   -5.7654    4.8241 C   0  0  0  0  0  0  0  0  0  0  0  0
    0.2658   -6.1282    5.8428 O   0  0  0  0  0  0  0  0  0  0  0  0
    1.4417   -6.9249    5.5838 C   0  0  0  0  0  0  0  0  0  0  0  0
    1.0639   -8.4151    5.7682 C   0  0  0  0  0  0  0  0  0  0  0  0
    0.5131   -8.7434    7.1504 C   0  0  0  0  0  0  0  0  0  0  0  0
    2.4776   -6.4574    6.6176 C   0  0  0  0  0  0  0  0  0  0  0  0
    2.9369   -5.0258    6.3650 C   0  0  0  0  0  0  0  0  0  0  0  0
    1.9538   -6.7679    4.1729 C   0  0  0  0  0  0  0  0  0  0  0  0
    3.2410   -7.0398    3.7020 C   0  0  0  0  0  0  0  0  0  0  0  0
   -1.7537   -5.1030    5.0091 C   0  0  0  0  0  0  0  0  0  0  0  0
   -2.3513   -4.7390    3.8186 C   0  0  0  0  0  0  0  0  0  0  0  0
   -1.4131   -5.2637    2.4447 S   0  0  0  0  0  0  0  0  0  0  0  0
   -3.5011   -3.9313    3.6224 C   0  0  0  0  0  0  0  0  0  0  0  0
   -3.9915   -3.4798    2.0083 S   0  0  0  0  0  0  0  0  0  0  0  0
   -5.1954   -2.4197    2.6473 C   0  0  0  0  0  0  0  0  0  0  0  0
   -5.9528   -1.4563    1.9472 C   0  0  0  0  0  0  0  0  0  0  0  0
   -6.5456   -0.4304    2.6744 C   0  0  0  0  0  0  0  0  0  0  0  0
   -6.5552   -0.3860    4.0179 O   0  0  0  0  0  0  0  0  0  0  0  0
   -6.2541   -1.5952    4.7523 C   0  0  0  0  0  0  0  0  0  0  0  0
   -7.5821   -2.3810    4.8714 C   0  0  0  0  0  0  0  0  0  0  0  0
   -7.4745   -3.7021    5.6198 C   0  0  0  0  0  0  0  0  0  0  0  0
   -5.7539   -1.1079    6.1189 C   0  0  0  0  0  0  0  0  0  0  0  0
   -4.4851   -0.2706    6.0057 C   0  0  0  0  0  0  0  0  0  0  0  0
   -5.2318   -2.4383    4.0327 C   0  0  0  0  0  0  0  0  0  0  0  0
   -4.2773   -3.3014    4.5767 C   0  0  0  0  0  0  0  0  0  0  0  0
   -7.0445    0.5958    1.8607 C   0  0  0  0  0  0  0  0  0  0  0  0
   -6.8597    0.3504    0.5174 C   0  0  0  0  0  0  0  0  0  0  0  0
   -6.0687   -1.1827    0.2443 S   0  0  0  0  0  0  0  0  0  0  0  0
   -7.1535    1.1964   -0.5819 C   0  0  0  0  0  0  0  0  0  0  0  0
   -7.5190    2.8860   -0.3369 S   0  0  0  0  0  0  0  0  0  0  0  0
   -7.5556    3.1428   -2.0462 C   0  0  0  0  0  0  0  0  0  0  0  0
   -7.7874    4.3486   -2.7446 C   0  0  0  0  0  0  0  0  0  0  0  0
   -7.9656    4.2941   -4.1222 C   0  0  0  0  0  0  0  0  0  0  0  0
   -7.9705    3.1403   -4.8182 O   0  0  0  0  0  0  0  0  0  0  0  0
   -7.2545    2.0120   -4.2656 C   0  0  0  0  0  0  0  0  0  0  0  0
   -7.9108    0.7786   -4.9004 C   0  0  0  0  0  0  0  0  0  0  0  0
   -9.3687    0.6257   -4.4830 C   0  0  0  0  0  0  0  0  0  0  0  0
   -5.7799    2.1787   -4.7093 C   0  0  0  0  0  0  0  0  0  0  0  0
   -4.8261    1.0877   -4.2444 C   0  0  0  0  0  0  0  0  0  0  0  0
   -7.3311    1.9779   -2.7600 C   0  0  0  0  0  0  0  0  0  0  0  0
   -7.1000    0.8825   -1.9242 C   0  0  0  0  0  0  0  0  0  0  0  0
   -8.1867    5.5538   -4.6926 C   0  0  0  0  0  0  0  0  0  0  0  0
   -8.1535    6.5726   -3.7629 C   0  0  0  0  0  0  0  0  0  0  0  0
   -7.8674    5.9672   -2.1547 S   0  0  0  0  0  0  0  0  0  0  0  0
   -8.2718    7.9727   -3.9913 C   0  0  0  0  0  0  0  0  0  0  0  0
   -8.5125    8.6175   -5.1719 C   0  0  0  0  0  0  0  0  0  0  0  0
   -8.5291   10.0289   -5.0525 C   0  0  0  0  0  0  0  0  0  0  0  0
   -8.7410   10.9863   -6.0589 C   0  0  0  0  0  0  0  0  0  0  0  0
   -9.0163   10.5966   -7.4327 C   0  0  0  0  0  0  0  0  0  0  0  0
  -10.3472    9.5478   -7.8259 S   0  0  0  0  0  0  0  0  0  0  0  0
  -10.0140    9.6295   -9.5232 C   0  0  0  0  0  0  0  0  0  0  0  0
  -10.8234    8.8576  -10.5059 C   0  0  0  0  0  0  0  0  0  0  0  0
  -10.3838    7.3923  -10.5478 C   0  0  0  0  0  0  0  0  0  0  0  0
   -8.9248   10.4149   -9.7528 C   0  0  0  0  0  0  0  0  0  0  0  0
   -8.2794   10.7265  -11.3119 Cl  0  0  0  0  0  0  0  0  0  0  0  0
   -8.3603   10.9695   -8.5721 C   0  0  0  0  0  0  0  0  0  0  0  0
   -6.9455   11.9358   -8.5975 Cl  0  0  0  0  0  0  0  0  0  0  0  0
   -8.6825   12.3235   -5.6833 C   0  0  0  0  0  0  0  0  0  0  0  0
   -8.4144   12.7415   -4.3578 C   0  0  0  0  0  0  0  0  0  0  0  0
   -8.2166   11.7855   -3.3501 C   0  0  0  0  0  0  0  0  0  0  0  0
   -7.9815   12.1743   -1.9681 C   0  0  0  0  0  0  0  0  0  0  0  0
   -6.5931   11.6053   -1.0918 S   0  0  0  0  0  0  0  0  0  0  0  0
   -7.0517   12.4592    0.3415 C   0  0  0  0  0  0  0  0  0  0  0  0
   -6.2490   12.3508    1.5906 C   0  0  0  0  0  0  0  0  0  0  0  0
   -6.6101   11.0777    2.3598 C   0  0  0  0  0  0  0  0  0  0  0  0
   -8.2209   13.1301    0.1406 C   0  0  0  0  0  0  0  0  0  0  0  0
   -8.7480   12.9761   -1.1699 C   0  0  0  0  0  0  0  0  0  0  0  0
  -10.2396   13.6729   -1.6563 Cl  0  0  0  0  0  0  0  0  0  0  0  0
   -8.9982   14.0816    1.3390 Cl  0  0  0  0  0  0  0  0  0  0  0  0
   -8.2674   10.4507   -3.7261 C   0  0  0  0  0  0  0  0  0  0  0  0
   -8.0535    9.0929   -2.6607 S   0  0  0  0  0  0  0  0  0  0  0  0
   -8.3818   14.1623   -4.2508 C   0  0  0  0  0  0  0  0  0  0  0  0
   -8.6547   14.7804   -5.4177 C   0  0  0  0  0  0  0  0  0  0  0  0
   -8.9500   13.6905   -6.7273 S   0  0  0  0  0  0  0  0  0  0  0  0
   19.1574   -7.1209   -1.6810 H   0  0  0  0  0  0  0  0  0  0  0  0
   18.1524   -6.9412    3.4218 H   0  0  0  0  0  0  0  0  0  0  0  0
   17.7420   -8.4419    2.5875 H   0  0  0  0  0  0  0  0  0  0  0  0
   15.8393   -8.8172    4.1094 H   0  0  0  0  0  0  0  0  0  0  0  0
   17.3674   -8.6842    4.9847 H   0  0  0  0  0  0  0  0  0  0  0  0
   16.2186   -7.3443    4.9918 H   0  0  0  0  0  0  0  0  0  0  0  0
   15.7213   -4.8389    1.7012 H   0  0  0  0  0  0  0  0  0  0  0  0
   17.3897   -4.9001    2.2709 H   0  0  0  0  0  0  0  0  0  0  0  0
   14.9584   -5.3783    4.0600 H   0  0  0  0  0  0  0  0  0  0  0  0
   16.6314   -5.1559    4.5960 H   0  0  0  0  0  0  0  0  0  0  0  0
   15.7502   -3.8111    3.8768 H   0  0  0  0  0  0  0  0  0  0  0  0
   19.0620   -6.9606    0.9255 H   0  0  0  0  0  0  0  0  0  0  0  0
   12.3187   -7.3845    2.4663 H   0  0  0  0  0  0  0  0  0  0  0  0
    7.9476   -8.2481   -3.0867 H   0  0  0  0  0  0  0  0  0  0  0  0
    8.9436   -6.8851   -3.5995 H   0  0  0  0  0  0  0  0  0  0  0  0
    7.0087   -5.8344   -4.7086 H   0  0  0  0  0  0  0  0  0  0  0  0
    7.1313   -7.5085   -5.2425 H   0  0  0  0  0  0  0  0  0  0  0  0
    5.9275   -7.0581   -4.0314 H   0  0  0  0  0  0  0  0  0  0  0  0
    6.6756   -4.7058   -2.7042 H   0  0  0  0  0  0  0  0  0  0  0  0
    7.2810   -4.5603   -1.0569 H   0  0  0  0  0  0  0  0  0  0  0  0
    9.0172   -4.5568   -3.5764 H   0  0  0  0  0  0  0  0  0  0  0  0
    9.6259   -4.4549   -1.9208 H   0  0  0  0  0  0  0  0  0  0  0  0
    8.6161   -3.1668   -2.5728 H   0  0  0  0  0  0  0  0  0  0  0  0
   10.5568   -6.7744   -1.9877 H   0  0  0  0  0  0  0  0  0  0  0  0
    3.7831   -6.8557   -0.4744 H   0  0  0  0  0  0  0  0  0  0  0  0
    1.9462   -9.0215    5.5570 H   0  0  0  0  0  0  0  0  0  0  0  0
    0.3072   -8.6522    5.0150 H   0  0  0  0  0  0  0  0  0  0  0  0
    0.0953   -9.7473    7.1521 H   0  0  0  0  0  0  0  0  0  0  0  0
   -0.2724   -8.0400    7.4153 H   0  0  0  0  0  0  0  0  0  0  0  0
    1.2937   -8.6980    7.9048 H   0  0  0  0  0  0  0  0  0  0  0  0
    2.0107   -6.5095    7.6009 H   0  0  0  0  0  0  0  0  0  0  0  0
    3.3287   -7.1382    6.6002 H   0  0  0  0  0  0  0  0  0  0  0  0
    3.4481   -4.9413    5.4089 H   0  0  0  0  0  0  0  0  0  0  0  0
    3.6187   -4.7090    7.1503 H   0  0  0  0  0  0  0  0  0  0  0  0
    2.0802   -4.3561    6.3597 H   0  0  0  0  0  0  0  0  0  0  0  0
    4.0662   -7.3524    4.3162 H   0  0  0  0  0  0  0  0  0  0  0  0
   -2.1581   -4.8775    5.9774 H   0  0  0  0  0  0  0  0  0  0  0  0
   -7.9384   -2.5724    3.8552 H   0  0  0  0  0  0  0  0  0  0  0  0
   -8.3104   -1.7316    5.3617 H   0  0  0  0  0  0  0  0  0  0  0  0
   -7.2111   -3.5435    6.6621 H   0  0  0  0  0  0  0  0  0  0  0  0
   -8.4314   -4.2173    5.5879 H   0  0  0  0  0  0  0  0  0  0  0  0
   -6.7248   -4.3444    5.1637 H   0  0  0  0  0  0  0  0  0  0  0  0
   -6.5461   -0.5031    6.5630 H   0  0  0  0  0  0  0  0  0  0  0  0
   -5.5774   -1.9691    6.7617 H   0  0  0  0  0  0  0  0  0  0  0  0
   -3.6701   -0.8545    5.5840 H   0  0  0  0  0  0  0  0  0  0  0  0
   -4.6621    0.5884    5.3639 H   0  0  0  0  0  0  0  0  0  0  0  0
   -4.1848    0.0857    6.9880 H   0  0  0  0  0  0  0  0  0  0  0  0
   -4.1321   -3.4581    5.6291 H   0  0  0  0  0  0  0  0  0  0  0  0
   -7.5075    1.4878    2.2402 H   0  0  0  0  0  0  0  0  0  0  0  0
   -7.8536    0.8953   -5.9837 H   0  0  0  0  0  0  0  0  0  0  0  0
   -7.3488   -0.1102   -4.6182 H   0  0  0  0  0  0  0  0  0  0  0  0
   -9.9283    1.5191   -4.7483 H   0  0  0  0  0  0  0  0  0  0  0  0
   -9.4491    0.4722   -3.4091 H   0  0  0  0  0  0  0  0  0  0  0  0
   -9.8146   -0.2269   -4.9889 H   0  0  0  0  0  0  0  0  0  0  0  0
   -5.4347    3.1431   -4.3249 H   0  0  0  0  0  0  0  0  0  0  0  0
   -5.7737    2.2364   -5.7999 H   0  0  0  0  0  0  0  0  0  0  0  0
   -5.1050    0.1194   -4.6507 H   0  0  0  0  0  0  0  0  0  0  0  0
   -4.8094    1.0203   -3.1595 H   0  0  0  0  0  0  0  0  0  0  0  0
   -3.8201    1.3194   -4.5857 H   0  0  0  0  0  0  0  0  0  0  0  0
   -6.8942   -0.1167   -2.2632 H   0  0  0  0  0  0  0  0  0  0  0  0
   -8.3517    5.7044   -5.7423 H   0  0  0  0  0  0  0  0  0  0  0  0
   -8.6689    8.1019   -6.1006 H   0  0  0  0  0  0  0  0  0  0  0  0
  -11.8783    8.9114  -10.2303 H   0  0  0  0  0  0  0  0  0  0  0  0
  -10.6955    9.3078  -11.4917 H   0  0  0  0  0  0  0  0  0  0  0  0
   -9.3364    7.3212  -10.8302 H   0  0  0  0  0  0  0  0  0  0  0  0
  -10.5141    6.9319   -9.5712 H   0  0  0  0  0  0  0  0  0  0  0  0
  -10.9783    6.8447  -11.2740 H   0  0  0  0  0  0  0  0  0  0  0  0
   -5.1872   12.3333    1.3390 H   0  0  0  0  0  0  0  0  0  0  0  0
   -6.4479   13.2252    2.2128 H   0  0  0  0  0  0  0  0  0  0  0  0
   -6.4200   10.2003    1.7464 H   0  0  0  0  0  0  0  0  0  0  0  0
   -6.0147   11.0077    3.2662 H   0  0  0  0  0  0  0  0  0  0  0  0
   -7.6621   11.0887    2.6334 H   0  0  0  0  0  0  0  0  0  0  0  0
   -8.1555   14.6826   -3.3387 H   0  0  0  0  0  0  0  0  0  0  0  0
   -8.6983   15.8345   -5.6106 H   0  0  0  0  0  0  0  0  0  0  0  0
  1  2  1  0  0  0  0
  2  3  1  0  0  0  0
  3  4  1  0  0  0  0
  4  5  2  0  0  0  0
  5  6  1  0  0  0  0
  6  7  1  0  0  0  0
  7  8  1  0  0  0  0
  8  9  1  0  0  0  0
  7 10  1  0  0  0  0
 10 11  1  0  0  0  0
  7 12  1  0  0  0  0
 12 13  1  0  0  0  0
  5 14  1  0  0  0  0
 14 15  2  0  0  0  0
 15 16  1  0  0  0  0
 15 17  1  0  0  0  0
 17 18  1  0  0  0  0
 18 19  1  0  0  0  0
 19 20  1  0  0  0  0
 20 21  2  0  0  0  0
 21 22  1  0  0  0  0
 22 23  1  0  0  0  0
 23 24  1  0  0  0  0
 24 25  1  0  0  0  0
 23 26  1  0  0  0  0
 26 27  1  0  0  0  0
 23 28  1  0  0  0  0
 28 29  1  0  0  0  0
 21 30  1  0  0  0  0
 30 31  2  0  0  0  0
 31 32  1  0  0  0  0
 31 33  1  0  0  0  0
 33 34  1  0  0  0  0
 34 35  1  0  0  0  0
 35 36  1  0  0  0  0
 36 37  2  0  0  0  0
 37 38  1  0  0  0  0
 38 39  1  0  0  0  0
 39 40  1  0  0  0  0
 40 41  1  0  0  0  0
 39 42  1  0  0  0  0
 42 43  1  0  0  0  0
 39 44  1  0  0  0  0
 44 45  1  0  0  0  0
 37 46  1  0  0  0  0
 46 47  2  0  0  0  0
 47 48  1  0  0  0  0
 47 49  1  0  0  0  0
 49 50  1  0  0  0  0
 50 51  1  0  0  0  0
 51 52  1  0  0  0  0
 52 53  2  0  0  0  0
 53 54  1  0  0  0  0
 54 55  1  0  0  0  0
 55 56  1  0  0  0  0
 56 57  1  0  0  0  0
 55 58  1  0  0  0  0
 58 59  1  0  0  0  0
 55 60  1  0  0  0  0
 60 61  1  0  0  0  0
 53 62  1  0  0  0  0
 62 63  2  0  0  0  0
 63 64  1  0  0  0  0
 63 65  1  0  0  0  0
 65 66  1  0  0  0  0
 66 67  1  0  0  0  0
 67 68  1  0  0  0  0
 68 69  2  0  0  0  0
 69 70  1  0  0  0  0
 70 71  1  0  0  0  0
 71 72  1  0  0  0  0
 72 73  1  0  0  0  0
 71 74  1  0  0  0  0
 74 75  1  0  0  0  0
 71 76  1  0  0  0  0
 76 77  1  0  0  0  0
 69 78  1  0  0  0  0
 78 79  2  0  0  0  0
 79 80  1  0  0  0  0
 79 81  1  0  0  0  0
 81 82  2  0  0  0  0
 82 83  1  0  0  0  0
 83 84  2  0  0  0  0
 84 85  1  0  0  0  0
 85 86  1  0  0  0  0
 86 87  1  0  0  0  0
 87 88  1  0  0  0  0
 88 89  1  0  0  0  0
 87 90  2  0  0  0  0
 90 91  1  0  0  0  0
 90 92  1  0  0  0  0
 92 93  1  0  0  0  0
 84 94  1  0  0  0  0
 94 95  2  0  0  0  0
 95 96  1  0  0  0  0
 96 97  1  0  0  0  0
 97 98  1  0  0  0  0
 98 99  1  0  0  0  0
 99100  1  0  0  0  0
100101  1  0  0  0  0
 99102  2  0  0  0  0
102103  1  0  0  0  0
103104  1  0  0  0  0
102105  1  0  0  0  0
 96106  2  0  0  0  0
106107  1  0  0  0  0
 95108  1  0  0  0  0
108109  2  0  0  0  0
109110  1  0  0  0  0
 13  1  2  0  0  0  0
 29 17  2  0  0  0  0
 45 33  2  0  0  0  0
 61 49  2  0  0  0  0
 77 65  2  0  0  0  0
107 81  1  0  0  0  0
 12  3  2  0  0  0  0
 28 19  2  0  0  0  0
 44 35  2  0  0  0  0
 60 51  2  0  0  0  0
 76 67  2  0  0  0  0
106 83  1  0  0  0  0
 16  4  1  0  0  0  0
 32 20  1  0  0  0  0
 48 36  1  0  0  0  0
 64 52  1  0  0  0  0
 80 68  1  0  0  0  0
 92 85  2  0  0  0  0
110 94  1  0  0  0  0
103 97  2  0  0  0  0
  1111  1  0  0  0  0
  8112  1  0  0  0  0
  8113  1  0  0  0  0
  9114  1  0  0  0  0
  9115  1  0  0  0  0
  9116  1  0  0  0  0
 10117  1  0  0  0  0
 10118  1  0  0  0  0
 11119  1  0  0  0  0
 11120  1  0  0  0  0
 11121  1  0  0  0  0
 13122  1  0  0  0  0
 14123  1  0  0  0  0
 24124  1  0  0  0  0
 24125  1  0  0  0  0
 25126  1  0  0  0  0
 25127  1  0  0  0  0
 25128  1  0  0  0  0
 26129  1  0  0  0  0
 26130  1  0  0  0  0
 27131  1  0  0  0  0
 27132  1  0  0  0  0
 27133  1  0  0  0  0
 29134  1  0  0  0  0
 30135  1  0  0  0  0
 40136  1  0  0  0  0
 40137  1  0  0  0  0
 41138  1  0  0  0  0
 41139  1  0  0  0  0
 41140  1  0  0  0  0
 42141  1  0  0  0  0
 42142  1  0  0  0  0
 43143  1  0  0  0  0
 43144  1  0  0  0  0
 43145  1  0  0  0  0
 45146  1  0  0  0  0
 46147  1  0  0  0  0
 56148  1  0  0  0  0
 56149  1  0  0  0  0
 57150  1  0  0  0  0
 57151  1  0  0  0  0
 57152  1  0  0  0  0
 58153  1  0  0  0  0
 58154  1  0  0  0  0
 59155  1  0  0  0  0
 59156  1  0  0  0  0
 59157  1  0  0  0  0
 61158  1  0  0  0  0
 62159  1  0  0  0  0
 72160  1  0  0  0  0
 72161  1  0  0  0  0
 73162  1  0  0  0  0
 73163  1  0  0  0  0
 73164  1  0  0  0  0
 74165  1  0  0  0  0
 74166  1  0  0  0  0
 75167  1  0  0  0  0
 75168  1  0  0  0  0
 75169  1  0  0  0  0
 77170  1  0  0  0  0
 78171  1  0  0  0  0
 82172  1  0  0  0  0
 88173  1  0  0  0  0
 88174  1  0  0  0  0
 89175  1  0  0  0  0
 89176  1  0  0  0  0
 89177  1  0  0  0  0
100178  1  0  0  0  0
100179  1  0  0  0  0
101180  1  0  0  0  0
101181  1  0  0  0  0
101182  1  0  0  0  0
108183  1  0  0  0  0
109184  1  0  0  0  0
M  END
