185

C          1.04060       -4.10830       13.40600
C          2.13420       -3.55200       12.82840
C          1.92930       -3.19330       11.47430
C          2.93660       -2.51350       10.65430
C          4.21540       -3.03410       10.53720
C          5.15490       -2.40860        9.72090
C          4.80330       -1.26900        9.00520
C          3.52520       -0.73350        9.14220
O          3.08630        0.39780        8.51710
C          3.70840        0.82040        7.32300
C          3.46220       -0.14890        6.17020
C          2.60300       -1.34560        9.98080
O          6.38490       -2.99470        9.70690
C          7.39920       -2.50500        8.85580
C          7.21300       -2.94380        7.40590
C          0.66110       -3.50900       11.03490
S         -0.27960       -4.23240       12.31300
C          0.08070       -3.36850        9.73500
C         -1.25610       -3.32790        9.43000
C         -1.53220       -3.20630        8.05620
C         -2.89320       -3.16540        7.51120
C         -3.82020       -2.27070        8.02270
C         -5.10420       -2.20940        7.48750
C         -5.45190       -3.03310        6.42210
C         -4.52450       -3.93990        5.91680
O         -4.76590       -4.80620        4.89120
C         -5.84950       -4.57350        4.01700
C         -5.64010       -3.33900        3.14350
C         -3.25620       -4.02050        6.47890
O         -5.92590       -1.28440        8.05850
C         -7.28880       -1.22240        7.69530
C         -8.11110       -2.36420        8.28720
C         -0.38170       -3.15690        7.29040
S          1.04440       -3.28290        8.28840
C         -0.22280       -2.94360        5.88930
C          0.88880       -3.21740        5.12780
C          0.75140       -2.89110        3.76900
C          1.77970       -3.18050        2.75660
C          1.53020       -4.13270        1.78540
C          2.49380       -4.41860        0.81650
C          3.69940       -3.73660        0.84160
C          3.95390       -2.78160        1.82770
O          5.17170       -2.17710        1.71810
C          5.57250       -1.22460        2.67910
C          6.05210       -1.86570        3.97840
C          2.99880       -2.50880        2.79510
O          2.13550       -5.35620       -0.09860
C          3.06150       -5.77220       -1.08170
C          4.11110       -6.73400       -0.53150
C         -0.47380       -2.31590        3.48430
S         -1.46290       -2.20330        4.91900
C         -0.97940       -1.79170        2.26430
S         -0.01580       -1.67230        0.81470
C         -1.33390       -0.92330       -0.01960
C         -1.35550       -0.40240       -1.33260
C         -2.41480        0.41660       -1.69860
O         -3.44480        0.70430       -0.87790
C         -3.72770       -0.20560        0.19910
C         -4.45550        0.63520        1.26290
C         -5.72270        1.31330        0.75830
C         -4.59270       -1.39670       -0.31170
C         -5.31540       -1.13240       -1.62900
C         -2.45270       -0.77410        0.78250
C         -2.24320       -1.27120        2.07000
C         -2.26490        0.96500       -2.97940
C         -1.11330        0.54520       -3.60690
S         -0.18720       -0.53850       -2.59840
C         -0.64760        0.89050       -4.90310
C          0.37990        0.32340       -5.61530
C          0.58350        0.89380       -6.88420
C          1.58120        0.37170       -7.82640
C          2.90690        0.24820       -7.41840
C          3.84470       -0.27000       -8.29840
C          3.45710       -0.66070       -9.58160
C          2.13510       -0.55030       -9.98190
O          1.64240       -0.92760      -11.19120
C          2.53030       -1.29520      -12.22720
C          3.24240       -0.09250      -12.83920
C          1.19270       -0.03840       -9.08910
O          5.17300       -0.42840       -8.03840
C          5.66840       -0.17830       -6.73900
C          5.32400       -1.29050       -5.75230
C         -0.27980        1.94190       -7.14100
S         -1.38110        2.18470       -5.80730
C         -0.32360        2.85500       -8.23730
C         -1.28720        3.80230       -8.47010
C         -1.03250        4.61400       -9.60010
C         -1.90560        5.69680      -10.05370
C         -2.02490        5.98520      -11.40270
C         -2.85220        7.02300      -11.83350
C         -3.55490        7.76570      -10.89860
C         -3.43580        7.47880       -9.53700
O         -4.16060        8.29930       -8.72390
C         -4.18720        8.06310       -7.33120
C         -5.09220        6.89570       -6.94720
C         -2.61700        6.44430       -9.11430
O         -2.87560        7.22390      -13.17950
C         -3.76150        8.17490      -13.73380
C         -5.20430        7.67930      -13.77670
C          0.14450        4.26740      -10.20540
S          0.94850        2.96940       -9.42310
H          0.92100       -4.45250       14.41390
H          3.06090       -3.37500       13.34430
H          4.49860       -3.93660       11.05430
H          5.51900       -0.78870        8.35900
H          4.78400        0.98460        7.47000
H          3.24540        1.78660        7.10570
H          3.91580        0.23950        5.26200
H          3.88630       -1.12510        6.39610
H          2.39300       -0.27200        6.01290
H          1.62450       -0.90500       10.08280
H          8.32080       -2.93670        9.25630
H          7.47540       -1.41260        8.92830
H          6.27420       -2.57060        7.00530
H          7.19890       -4.02900        7.34950
H          8.03170       -2.56810        6.79810
H         -2.02550       -3.38780       10.17970
H         -3.56000       -1.59640        8.82230
H         -6.43690       -2.97430        5.99040
H         -5.88670       -5.46960        3.39180
H         -6.79620       -4.50460        4.56870
H         -5.57500       -2.44190        3.75560
H         -4.71380       -3.43880        2.58260
H         -6.46900       -3.23590        2.44810
H         -2.56240       -4.74760        6.08910
H         -7.40180       -1.18370        6.60410
H         -7.63290       -0.26860        8.10540
H         -7.75870       -3.32690        7.92460
H         -9.15640       -2.24370        8.01580
H         -8.02340       -2.35580        9.37060
H          1.77060       -3.67880        5.53720
H          0.59300       -4.66480        1.75880
H          4.47540       -3.90080        0.11280
H          6.40020       -0.68990        2.20360
H          4.76500       -0.50720        2.87120
H          6.87740       -2.54260        3.77260
H          5.25170       -2.43460        4.44450
H          6.39050       -1.09380        4.66440
H          3.15750       -1.77590        3.56940
H          2.44880       -6.28240       -1.83050
H          3.53600       -4.90530       -1.55730
H          4.76140       -7.06660       -1.33600
H          4.71330       -6.25310        0.23520
H          3.62200       -7.59920       -0.09100
H         -4.69640       -0.00960        2.10830
H         -3.75520        1.39920        1.60770
H         -5.50530        1.89610       -0.13200
H         -6.10920        1.98130        1.52480
H         -6.49180        0.58190        0.52530
H         -5.31760       -1.64500        0.46450
H         -3.94360       -2.26640       -0.44370
H         -4.60520       -1.03110       -2.44610
H         -5.97420       -1.96860       -1.85350
H         -5.90760       -0.22410       -1.57980
H         -2.97430       -1.26550        2.85790
H         -2.97080        1.63760       -3.43070
H          0.95410       -0.50530       -5.23980
H          3.17460        0.57960       -6.42820
H          4.22820       -1.05100      -10.22480
H          3.25410       -2.03950      -11.87330
H          1.88900       -1.76900      -12.97600
H          3.86340        0.40590      -12.09900
H          2.50840        0.62040      -13.20630
H          3.86720       -0.41660      -13.66700
H          0.16320        0.02560       -9.40230
H          6.75290       -0.12290       -6.87080
H          5.31700        0.79320       -6.37040
H          5.71120       -2.23880       -6.11680
H          5.76950       -1.07390       -4.78520
H          4.24750       -1.38300       -5.63260
H         -2.16630        3.88650       -7.85590
H         -1.49710        5.40770      -12.14350
H         -4.20150        8.58330      -11.17020
H         -4.58140        8.99150       -6.90770
H         -3.17170        7.91330       -6.94430
H         -6.10380        7.08290       -7.29830
H         -4.74070        5.96910       -7.39400
H         -5.10730        6.78370       -5.86650
H         -2.49200        6.21570       -8.06910
H         -3.39140        8.32660      -14.75190
H         -3.69230        9.12860      -13.19650
H         -5.58070        7.49810      -12.77310
H         -5.83290        8.42060      -14.26260
H         -5.25650        6.74860      -14.33610
H          0.59990        4.72050      -11.06310
