
  xtb     03012206583D
 energy: -186.085695925083 gnorm: 0.000932506906 xtb: 6.4.1 (unknown)
105112  0     0  0            999 V2000
    8.9455    2.7147    3.8534 C   0  0  0  0  0  0  0  0  0  0  0  0
    7.7691    2.4834    3.2372 O   0  0  0  0  0  0  0  0  0  0  0  0
    7.6968    3.3105    2.1671 C   0  0  0  0  0  0  0  0  0  0  0  0
    8.8427    4.0851    2.0936 C   0  0  0  0  0  0  0  0  0  0  0  0
    9.6516    3.6873    3.2001 C   0  0  0  0  0  0  0  0  0  0  0  0
   10.8769    4.2050    3.5011 O   0  0  0  0  0  0  0  0  0  0  0  0
   11.4982    3.6613    4.6407 C   0  0  0  0  0  0  0  0  0  0  0  0
    9.0581    5.0092    1.1223 O   0  0  0  0  0  0  0  0  0  0  0  0
   10.2788    5.7168    1.1716 C   0  0  0  0  0  0  0  0  0  0  0  0
    6.5479    3.2800    1.3253 C   0  0  0  0  0  0  0  0  0  0  0  0
    5.2477    2.1689    1.6570 S   0  0  0  0  0  0  0  0  0  0  0  0
    4.3827    2.7479    0.2740 C   0  0  0  0  0  0  0  0  0  0  0  0
    3.1051    2.3600   -0.1913 C   0  0  0  0  0  0  0  0  0  0  0  0
    2.5087    3.1138   -1.1929 C   0  0  0  0  0  0  0  0  0  0  0  0
    3.0814    4.2069   -1.7402 O   0  0  0  0  0  0  0  0  0  0  0  0
    4.5115    4.3331   -1.6699 C   0  0  0  0  0  0  0  0  0  0  0  0
    4.8399    5.8415   -1.7430 C   0  0  0  0  0  0  0  0  0  0  0  0
    3.8001    6.6869   -2.4712 C   0  0  0  0  0  0  0  0  0  0  0  0
    5.1397    3.5134   -2.8245 C   0  0  0  0  0  0  0  0  0  0  0  0
    4.6856    3.9276   -4.2177 C   0  0  0  0  0  0  0  0  0  0  0  0
    5.0660    3.7502   -0.3879 C   0  0  0  0  0  0  0  0  0  0  0  0
    6.2977    4.0447    0.2093 C   0  0  0  0  0  0  0  0  0  0  0  0
    1.2241    2.6637   -1.5279 C   0  0  0  0  0  0  0  0  0  0  0  0
    0.8497    1.5588   -0.7951 C   0  0  0  0  0  0  0  0  0  0  0  0
    2.0851    1.0626    0.3284 S   0  0  0  0  0  0  0  0  0  0  0  0
   -0.3588    0.8206   -0.8663 C   0  0  0  0  0  0  0  0  0  0  0  0
   -0.5025   -0.2761   -0.0813 O   0  0  0  0  0  0  0  0  0  0  0  0
   -1.7247   -0.8070   -0.3051 C   0  0  0  0  0  0  0  0  0  0  0  0
   -2.3933   -0.0511   -1.2670 C   0  0  0  0  0  0  0  0  0  0  0  0
   -1.5076    1.0010   -1.6262 C   0  0  0  0  0  0  0  0  0  0  0  0
   -1.6523    2.0296   -2.4934 O   0  0  0  0  0  0  0  0  0  0  0  0
   -2.8582    2.0995   -3.2267 C   0  0  0  0  0  0  0  0  0  0  0  0
   -3.6638   -0.2014   -1.7468 O   0  0  0  0  0  0  0  0  0  0  0  0
   -3.9273   -1.3779   -2.4953 C   0  0  0  0  0  0  0  0  0  0  0  0
   -2.0882   -1.9692    0.4397 C   0  0  0  0  0  0  0  0  0  0  0  0
   -3.2845   -2.5511    0.2113 O   0  0  0  0  0  0  0  0  0  0  0  0
   -3.3814   -3.6523    0.9980 C   0  0  0  0  0  0  0  0  0  0  0  0
   -2.2289   -3.7895    1.7585 C   0  0  0  0  0  0  0  0  0  0  0  0
   -1.3924   -2.6942    1.4046 C   0  0  0  0  0  0  0  0  0  0  0  0
   -0.1334   -2.4602    1.8839 O   0  0  0  0  0  0  0  0  0  0  0  0
    0.0102   -1.3187    2.7110 C   0  0  0  0  0  0  0  0  0  0  0  0
   -2.0138   -4.8310    2.5868 O   0  0  0  0  0  0  0  0  0  0  0  0
   -0.8425   -4.8072    3.3749 C   0  0  0  0  0  0  0  0  0  0  0  0
   -4.5550   -4.4557    0.8751 C   0  0  0  0  0  0  0  0  0  0  0  0
   -5.3275   -4.2864   -0.2276 O   0  0  0  0  0  0  0  0  0  0  0  0
   -6.3637   -5.1492   -0.1526 C   0  0  0  0  0  0  0  0  0  0  0  0
   -6.2897   -5.8704    1.0298 C   0  0  0  0  0  0  0  0  0  0  0  0
   -5.1148   -5.4210    1.6976 C   0  0  0  0  0  0  0  0  0  0  0  0
   -4.5922   -5.7751    2.8891 O   0  0  0  0  0  0  0  0  0  0  0  0
   -5.1849   -6.8670    3.5605 C   0  0  0  0  0  0  0  0  0  0  0  0
   -7.1640   -6.8145    1.4957 O   0  0  0  0  0  0  0  0  0  0  0  0
   -8.4549   -6.3240    1.8003 C   0  0  0  0  0  0  0  0  0  0  0  0
   -7.2725   -5.1768   -1.2632 C   0  0  0  0  0  0  0  0  0  0  0  0
   -7.2591   -4.1296   -2.1254 O   0  0  0  0  0  0  0  0  0  0  0  0
   -8.1361   -4.4002   -3.1101 C   0  0  0  0  0  0  0  0  0  0  0  0
   -8.7306   -5.6151   -2.9105 C   0  0  0  0  0  0  0  0  0  0  0  0
   -8.1658   -6.1372   -1.7058 C   0  0  0  0  0  0  0  0  0  0  0  0
   -8.3949   -7.3068   -1.0656 O   0  0  0  0  0  0  0  0  0  0  0  0
   -9.1303   -8.2907   -1.7606 C   0  0  0  0  0  0  0  0  0  0  0  0
   -9.6690   -6.2483   -3.6701 O   0  0  0  0  0  0  0  0  0  0  0  0
  -10.0469   -5.5774   -4.8482 C   0  0  0  0  0  0  0  0  0  0  0  0
    9.1553    2.1340    4.7277 H   0  0  0  0  0  0  0  0  0  0  0  0
   11.6695    2.5868    4.5235 H   0  0  0  0  0  0  0  0  0  0  0  0
   10.8967    3.8321    5.5391 H   0  0  0  0  0  0  0  0  0  0  0  0
   12.4523    4.1764    4.7353 H   0  0  0  0  0  0  0  0  0  0  0  0
   10.2578    6.3955    0.3203 H   0  0  0  0  0  0  0  0  0  0  0  0
   10.3707    6.2896    2.0974 H   0  0  0  0  0  0  0  0  0  0  0  0
   11.1342    5.0427    1.0847 H   0  0  0  0  0  0  0  0  0  0  0  0
    4.9230    6.2178   -0.7210 H   0  0  0  0  0  0  0  0  0  0  0  0
    5.8140    5.9559   -2.2203 H   0  0  0  0  0  0  0  0  0  0  0  0
    2.8371    6.6053   -1.9762 H   0  0  0  0  0  0  0  0  0  0  0  0
    4.1119    7.7293   -2.4581 H   0  0  0  0  0  0  0  0  0  0  0  0
    3.6785    6.3736   -3.5023 H   0  0  0  0  0  0  0  0  0  0  0  0
    4.8640    2.4679   -2.6581 H   0  0  0  0  0  0  0  0  0  0  0  0
    6.2255    3.5872   -2.7409 H   0  0  0  0  0  0  0  0  0  0  0  0
    5.0291    3.1988   -4.9488 H   0  0  0  0  0  0  0  0  0  0  0  0
    3.6001    3.9722   -4.2576 H   0  0  0  0  0  0  0  0  0  0  0  0
    5.0917    4.8981   -4.4890 H   0  0  0  0  0  0  0  0  0  0  0  0
    6.9972    4.7776   -0.1442 H   0  0  0  0  0  0  0  0  0  0  0  0
    0.5921    3.1183   -2.2656 H   0  0  0  0  0  0  0  0  0  0  0  0
   -2.8031    3.0310   -3.7882 H   0  0  0  0  0  0  0  0  0  0  0  0
   -2.9497    1.2604   -3.9221 H   0  0  0  0  0  0  0  0  0  0  0  0
   -3.7271    2.1128   -2.5658 H   0  0  0  0  0  0  0  0  0  0  0  0
   -3.8738   -2.2739   -1.8770 H   0  0  0  0  0  0  0  0  0  0  0  0
   -3.2322   -1.4684   -3.3372 H   0  0  0  0  0  0  0  0  0  0  0  0
   -4.9428   -1.2607   -2.8686 H   0  0  0  0  0  0  0  0  0  0  0  0
   -0.5897   -1.4193    3.6231 H   0  0  0  0  0  0  0  0  0  0  0  0
   -0.2734   -0.4027    2.1913 H   0  0  0  0  0  0  0  0  0  0  0  0
    1.0663   -1.2735    2.9678 H   0  0  0  0  0  0  0  0  0  0  0  0
   -0.8346   -5.7555    3.9099 H   0  0  0  0  0  0  0  0  0  0  0  0
   -0.8632   -3.9849    4.0968 H   0  0  0  0  0  0  0  0  0  0  0  0
    0.0552   -4.7193    2.7587 H   0  0  0  0  0  0  0  0  0  0  0  0
   -5.2804   -7.7361    2.9063 H   0  0  0  0  0  0  0  0  0  0  0  0
   -4.5160   -7.0961    4.3887 H   0  0  0  0  0  0  0  0  0  0  0  0
   -6.1727   -6.6072    3.9526 H   0  0  0  0  0  0  0  0  0  0  0  0
   -8.4186   -5.6234    2.6439 H   0  0  0  0  0  0  0  0  0  0  0  0
   -8.9092   -5.8257    0.9424 H   0  0  0  0  0  0  0  0  0  0  0  0
   -9.0472   -7.1948    2.0727 H   0  0  0  0  0  0  0  0  0  0  0  0
   -8.2461   -3.6609   -3.8766 H   0  0  0  0  0  0  0  0  0  0  0  0
   -8.6438   -8.5598   -2.7019 H   0  0  0  0  0  0  0  0  0  0  0  0
   -9.1523   -9.1554   -1.0995 H   0  0  0  0  0  0  0  0  0  0  0  0
  -10.1496   -7.9571   -1.9701 H   0  0  0  0  0  0  0  0  0  0  0  0
   -9.1886   -5.4247   -5.5096 H   0  0  0  0  0  0  0  0  0  0  0  0
  -10.5025   -4.6082   -4.6232 H   0  0  0  0  0  0  0  0  0  0  0  0
  -10.7766   -6.2203   -5.3369 H   0  0  0  0  0  0  0  0  0  0  0  0
  1  2  1  0  0  0  0
  2  3  1  0  0  0  0
  3  4  2  0  0  0  0
  4  5  1  0  0  0  0
  5  6  1  0  0  0  0
  6  7  1  0  0  0  0
  4  8  1  0  0  0  0
  8  9  1  0  0  0  0
  3 10  1  0  0  0  0
 10 11  1  0  0  0  0
 11 12  1  0  0  0  0
 12 13  1  0  0  0  0
 13 14  2  0  0  0  0
 14 15  1  0  0  0  0
 15 16  1  0  0  0  0
 16 17  1  0  0  0  0
 17 18  1  0  0  0  0
 16 19  1  0  0  0  0
 19 20  1  0  0  0  0
 16 21  1  0  0  0  0
 21 22  1  0  0  0  0
 14 23  1  0  0  0  0
 23 24  2  0  0  0  0
 24 25  1  0  0  0  0
 24 26  1  0  0  0  0
 26 27  1  0  0  0  0
 27 28  1  0  0  0  0
 28 29  2  0  0  0  0
 29 30  1  0  0  0  0
 30 31  1  0  0  0  0
 31 32  1  0  0  0  0
 29 33  1  0  0  0  0
 33 34  1  0  0  0  0
 28 35  1  0  0  0  0
 35 36  1  0  0  0  0
 36 37  1  0  0  0  0
 37 38  2  0  0  0  0
 38 39  1  0  0  0  0
 39 40  1  0  0  0  0
 40 41  1  0  0  0  0
 38 42  1  0  0  0  0
 42 43  1  0  0  0  0
 37 44  1  0  0  0  0
 44 45  1  0  0  0  0
 45 46  1  0  0  0  0
 46 47  2  0  0  0  0
 47 48  1  0  0  0  0
 48 49  1  0  0  0  0
 49 50  1  0  0  0  0
 47 51  1  0  0  0  0
 51 52  1  0  0  0  0
 46 53  1  0  0  0  0
 53 54  1  0  0  0  0
 54 55  1  0  0  0  0
 55 56  2  0  0  0  0
 56 57  1  0  0  0  0
 57 58  1  0  0  0  0
 58 59  1  0  0  0  0
 56 60  1  0  0  0  0
 60 61  1  0  0  0  0
  5  1  2  0  0  0  0
 22 10  2  0  0  0  0
 30 26  2  0  0  0  0
 39 35  2  0  0  0  0
 48 44  2  0  0  0  0
 57 53  2  0  0  0  0
 21 12  2  0  0  0  0
 25 13  1  0  0  0  0
  1 62  1  0  0  0  0
  7 63  1  0  0  0  0
  7 64  1  0  0  0  0
  7 65  1  0  0  0  0
  9 66  1  0  0  0  0
  9 67  1  0  0  0  0
  9 68  1  0  0  0  0
 17 69  1  0  0  0  0
 17 70  1  0  0  0  0
 18 71  1  0  0  0  0
 18 72  1  0  0  0  0
 18 73  1  0  0  0  0
 19 74  1  0  0  0  0
 19 75  1  0  0  0  0
 20 76  1  0  0  0  0
 20 77  1  0  0  0  0
 20 78  1  0  0  0  0
 22 79  1  0  0  0  0
 23 80  1  0  0  0  0
 32 81  1  0  0  0  0
 32 82  1  0  0  0  0
 32 83  1  0  0  0  0
 34 84  1  0  0  0  0
 34 85  1  0  0  0  0
 34 86  1  0  0  0  0
 41 87  1  0  0  0  0
 41 88  1  0  0  0  0
 41 89  1  0  0  0  0
 43 90  1  0  0  0  0
 43 91  1  0  0  0  0
 43 92  1  0  0  0  0
 50 93  1  0  0  0  0
 50 94  1  0  0  0  0
 50 95  1  0  0  0  0
 52 96  1  0  0  0  0
 52 97  1  0  0  0  0
 52 98  1  0  0  0  0
 55 99  1  0  0  0  0
 59100  1  0  0  0  0
 59101  1  0  0  0  0
 59102  1  0  0  0  0
 61103  1  0  0  0  0
 61104  1  0  0  0  0
 61105  1  0  0  0  0
M  END
