
  xtb     03022209543D
 energy: -185.064250724881 gnorm: 0.000597387241 xtb: 6.4.1 (unknown)
 95112  0     0  0            999 V2000
    9.6452    1.8829   -1.9324 C   0  0  0  0  0  0  0  0  0  0  0  0
   10.7489    3.1788   -2.2251 S   0  0  0  0  0  0  0  0  0  0  0  0
    9.5774    4.3661   -1.7949 C   0  0  0  0  0  0  0  0  0  0  0  0
    8.3946    3.7941   -1.4433 C   0  0  0  0  0  0  0  0  0  0  0  0
    8.4456    2.3628   -1.5254 C   0  0  0  0  0  0  0  0  0  0  0  0
    6.9412    1.5728   -1.0754 S   0  0  0  0  0  0  0  0  0  0  0  0
    6.2242    3.1435   -0.7695 C   0  0  0  0  0  0  0  0  0  0  0  0
    7.1022    4.2445   -1.0102 C   0  0  0  0  0  0  0  0  0  0  0  0
    6.5021    5.4448   -0.7808 C   0  0  0  0  0  0  0  0  0  0  0  0
    4.8657    5.2516   -0.2725 S   0  0  0  0  0  0  0  0  0  0  0  0
    4.9658    3.5031   -0.3598 C   0  0  0  0  0  0  0  0  0  0  0  0
    3.8547    2.6790   -0.0468 C   0  0  0  0  0  0  0  0  0  0  0  0
    4.0333    0.9458    0.0100 S   0  0  0  0  0  0  0  0  0  0  0  0
    2.3540    0.7743    0.3690 C   0  0  0  0  0  0  0  0  0  0  0  0
    1.6492   -0.4256    0.5952 C   0  0  0  0  0  0  0  0  0  0  0  0
    0.2976   -0.3609    0.8982 C   0  0  0  0  0  0  0  0  0  0  0  0
   -0.3825    0.7867    1.0444 O   0  0  0  0  0  0  0  0  0  0  0  0
    0.1959    2.0522    0.6344 C   0  0  0  0  0  0  0  0  0  0  0  0
   -0.4888    2.3772   -0.7112 C   0  0  0  0  0  0  0  0  0  0  0  0
   -0.2491    3.7658   -1.2825 C   0  0  0  0  0  0  0  0  0  0  0  0
   -0.1444    3.0430    1.7624 C   0  0  0  0  0  0  0  0  0  0  0  0
   -1.6404    3.1777    2.0194 C   0  0  0  0  0  0  0  0  0  0  0  0
    1.6920    1.9869    0.4360 C   0  0  0  0  0  0  0  0  0  0  0  0
    2.5578    3.0640    0.2178 C   0  0  0  0  0  0  0  0  0  0  0  0
   -0.2787   -1.6266    1.0849 C   0  0  0  0  0  0  0  0  0  0  0  0
    0.6353   -2.6490    0.9438 C   0  0  0  0  0  0  0  0  0  0  0  0
    2.2315   -2.0497    0.5893 S   0  0  0  0  0  0  0  0  0  0  0  0
    0.4049   -4.0475    1.0254 C   0  0  0  0  0  0  0  0  0  0  0  0
    1.6946   -5.1980    0.7369 S   0  0  0  0  0  0  0  0  0  0  0  0
    0.6493   -6.5462    0.9809 C   0  0  0  0  0  0  0  0  0  0  0  0
   -0.6213   -6.1490    1.2691 C   0  0  0  0  0  0  0  0  0  0  0  0
   -0.7578   -4.7278    1.2911 C   0  0  0  0  0  0  0  0  0  0  0  0
   -2.3778   -4.1812    1.6658 S   0  0  0  0  0  0  0  0  0  0  0  0
   -2.9087   -5.8462    1.7991 C   0  0  0  0  0  0  0  0  0  0  0  0
   -1.8642   -6.7977    1.5770 C   0  0  0  0  0  0  0  0  0  0  0  0
   -2.2822   -8.0812    1.7520 C   0  0  0  0  0  0  0  0  0  0  0  0
   -3.9441   -8.1529    2.1907 S   0  0  0  0  0  0  0  0  0  0  0  0
   -4.1103   -6.4096    2.1440 C   0  0  0  0  0  0  0  0  0  0  0  0
   -5.3537   -5.7863    2.4575 C   0  0  0  0  0  0  0  0  0  0  0  0
   -6.5004   -6.5582    3.5347 S   0  0  0  0  0  0  0  0  0  0  0  0
   -7.5960   -5.2348    3.4385 C   0  0  0  0  0  0  0  0  0  0  0  0
   -7.1240   -4.2513    2.6242 C   0  0  0  0  0  0  0  0  0  0  0  0
   -5.8503   -4.5717    2.0613 C   0  0  0  0  0  0  0  0  0  0  0  0
   -5.2628   -3.3717    0.9305 S   0  0  0  0  0  0  0  0  0  0  0  0
   -6.6630   -2.3672    1.2583 C   0  0  0  0  0  0  0  0  0  0  0  0
   -7.5847   -2.9693    2.1729 C   0  0  0  0  0  0  0  0  0  0  0  0
   -8.6772   -2.1922    2.4072 C   0  0  0  0  0  0  0  0  0  0  0  0
   -8.6012   -0.7193    1.5253 S   0  0  0  0  0  0  0  0  0  0  0  0
   -7.0556   -1.1328    0.8030 C   0  0  0  0  0  0  0  0  0  0  0  0
   -6.4589   -0.2112   -0.1079 C   0  0  0  0  0  0  0  0  0  0  0  0
   -7.3801    1.2070   -0.5794 S   0  0  0  0  0  0  0  0  0  0  0  0
   -6.1366    1.7695   -1.6226 C   0  0  0  0  0  0  0  0  0  0  0  0
   -5.0666    0.9286   -1.6200 C   0  0  0  0  0  0  0  0  0  0  0  0
   -5.2452   -0.1962   -0.7513 C   0  0  0  0  0  0  0  0  0  0  0  0
   -3.8574   -1.2710   -0.7230 S   0  0  0  0  0  0  0  0  0  0  0  0
   -3.0570   -0.2729   -1.9180 C   0  0  0  0  0  0  0  0  0  0  0  0
   -3.8027    0.8839   -2.2971 C   0  0  0  0  0  0  0  0  0  0  0  0
   -3.1437    1.6492   -3.2103 C   0  0  0  0  0  0  0  0  0  0  0  0
   -1.6165    0.9704   -3.6258 S   0  0  0  0  0  0  0  0  0  0  0  0
   -1.8394   -0.3822   -2.5327 C   0  0  0  0  0  0  0  0  0  0  0  0
   -0.8593   -1.4099   -2.4143 C   0  0  0  0  0  0  0  0  0  0  0  0
   -1.3166   -3.0583   -2.0307 S   0  0  0  0  0  0  0  0  0  0  0  0
    0.3118   -3.6070   -2.1460 C   0  0  0  0  0  0  0  0  0  0  0  0
    1.1701   -2.5932   -2.4428 C   0  0  0  0  0  0  0  0  0  0  0  0
    0.4945   -1.3436   -2.6036 C   0  0  0  0  0  0  0  0  0  0  0  0
    1.5626    0.0071   -2.9394 S   0  0  0  0  0  0  0  0  0  0  0  0
    2.9457   -1.0710   -2.8226 C   0  0  0  0  0  0  0  0  0  0  0  0
    2.5913   -2.4382   -2.5741 C   0  0  0  0  0  0  0  0  0  0  0  0
    3.6885   -3.2356   -2.4711 C   0  0  0  0  0  0  0  0  0  0  0  0
    5.1422   -2.3351   -2.6712 S   0  0  0  0  0  0  0  0  0  0  0  0
    4.2805   -0.8576   -2.9015 C   0  0  0  0  0  0  0  0  0  0  0  0
    9.9562    0.8691   -2.0794 H   0  0  0  0  0  0  0  0  0  0  0  0
    9.8359    5.4047   -1.8290 H   0  0  0  0  0  0  0  0  0  0  0  0
    6.9120    6.4291   -0.8792 H   0  0  0  0  0  0  0  0  0  0  0  0
   -0.1293    1.6361   -1.4286 H   0  0  0  0  0  0  0  0  0  0  0  0
   -1.5589    2.2121   -0.5732 H   0  0  0  0  0  0  0  0  0  0  0  0
   -0.5730    4.5422   -0.5953 H   0  0  0  0  0  0  0  0  0  0  0  0
   -0.8131    3.8710   -2.2065 H   0  0  0  0  0  0  0  0  0  0  0  0
    0.8014    3.9134   -1.5148 H   0  0  0  0  0  0  0  0  0  0  0  0
    0.2853    4.0150    1.5227 H   0  0  0  0  0  0  0  0  0  0  0  0
    0.3430    2.6763    2.6691 H   0  0  0  0  0  0  0  0  0  0  0  0
   -2.1401    3.6691    1.1891 H   0  0  0  0  0  0  0  0  0  0  0  0
   -1.8077    3.7688    2.9167 H   0  0  0  0  0  0  0  0  0  0  0  0
   -2.0832    2.1959    2.1618 H   0  0  0  0  0  0  0  0  0  0  0  0
    2.2747    4.1005    0.2463 H   0  0  0  0  0  0  0  0  0  0  0  0
   -1.3193   -1.7777    1.3025 H   0  0  0  0  0  0  0  0  0  0  0  0
    1.0377   -7.5409    0.9010 H   0  0  0  0  0  0  0  0  0  0  0  0
   -1.7186   -8.9868    1.6567 H   0  0  0  0  0  0  0  0  0  0  0  0
   -8.5165   -5.2675    3.9850 H   0  0  0  0  0  0  0  0  0  0  0  0
   -9.5167   -2.3919    3.0413 H   0  0  0  0  0  0  0  0  0  0  0  0
   -6.2711    2.6781   -2.1732 H   0  0  0  0  0  0  0  0  0  0  0  0
   -3.4584    2.5640   -3.6696 H   0  0  0  0  0  0  0  0  0  0  0  0
    0.5345   -4.6415   -1.9808 H   0  0  0  0  0  0  0  0  0  0  0  0
    3.7334   -4.2877   -2.2771 H   0  0  0  0  0  0  0  0  0  0  0  0
    4.8160    0.0544   -3.0657 H   0  0  0  0  0  0  0  0  0  0  0  0
  1  2  1  0  0  0  0
  2  3  1  0  0  0  0
  3  4  2  0  0  0  0
  4  5  1  0  0  0  0
  5  6  1  0  0  0  0
  6  7  1  0  0  0  0
  7  8  1  0  0  0  0
  8  9  2  0  0  0  0
  9 10  1  0  0  0  0
 10 11  1  0  0  0  0
 11 12  1  0  0  0  0
 12 13  1  0  0  0  0
 13 14  1  0  0  0  0
 14 15  1  0  0  0  0
 15 16  2  0  0  0  0
 16 17  1  0  0  0  0
 17 18  1  0  0  0  0
 18 19  1  0  0  0  0
 19 20  1  0  0  0  0
 18 21  1  0  0  0  0
 21 22  1  0  0  0  0
 18 23  1  0  0  0  0
 23 24  1  0  0  0  0
 16 25  1  0  0  0  0
 25 26  2  0  0  0  0
 26 27  1  0  0  0  0
 26 28  1  0  0  0  0
 28 29  1  0  0  0  0
 29 30  1  0  0  0  0
 30 31  2  0  0  0  0
 31 32  1  0  0  0  0
 32 33  1  0  0  0  0
 33 34  1  0  0  0  0
 34 35  1  0  0  0  0
 35 36  2  0  0  0  0
 36 37  1  0  0  0  0
 37 38  1  0  0  0  0
 38 39  1  0  0  0  0
 39 40  1  0  0  0  0
 40 41  1  0  0  0  0
 41 42  2  0  0  0  0
 42 43  1  0  0  0  0
 43 44  1  0  0  0  0
 44 45  1  0  0  0  0
 45 46  1  0  0  0  0
 46 47  2  0  0  0  0
 47 48  1  0  0  0  0
 48 49  1  0  0  0  0
 49 50  1  0  0  0  0
 50 51  1  0  0  0  0
 51 52  1  0  0  0  0
 52 53  2  0  0  0  0
 53 54  1  0  0  0  0
 54 55  1  0  0  0  0
 55 56  1  0  0  0  0
 56 57  1  0  0  0  0
 57 58  2  0  0  0  0
 58 59  1  0  0  0  0
 59 60  1  0  0  0  0
 60 61  1  0  0  0  0
 61 62  1  0  0  0  0
 62 63  1  0  0  0  0
 63 64  2  0  0  0  0
 64 65  1  0  0  0  0
 65 66  1  0  0  0  0
 66 67  1  0  0  0  0
 67 68  1  0  0  0  0
 68 69  2  0  0  0  0
 69 70  1  0  0  0  0
 70 71  1  0  0  0  0
  5  1  2  0  0  0  0
 11  7  2  0  0  0  0
 24 12  2  0  0  0  0
 32 28  2  0  0  0  0
 38 34  2  0  0  0  0
 43 39  2  0  0  0  0
 49 45  2  0  0  0  0
 54 50  2  0  0  0  0
 60 56  2  0  0  0  0
 65 61  2  0  0  0  0
 71 67  2  0  0  0  0
  8  4  1  0  0  0  0
 23 14  2  0  0  0  0
 35 31  1  0  0  0  0
 46 42  1  0  0  0  0
 57 53  1  0  0  0  0
 68 64  1  0  0  0  0
 27 15  1  0  0  0  0
  1 72  1  0  0  0  0
  3 73  1  0  0  0  0
  9 74  1  0  0  0  0
 19 75  1  0  0  0  0
 19 76  1  0  0  0  0
 20 77  1  0  0  0  0
 20 78  1  0  0  0  0
 20 79  1  0  0  0  0
 21 80  1  0  0  0  0
 21 81  1  0  0  0  0
 22 82  1  0  0  0  0
 22 83  1  0  0  0  0
 22 84  1  0  0  0  0
 24 85  1  0  0  0  0
 25 86  1  0  0  0  0
 30 87  1  0  0  0  0
 36 88  1  0  0  0  0
 41 89  1  0  0  0  0
 47 90  1  0  0  0  0
 52 91  1  0  0  0  0
 58 92  1  0  0  0  0
 63 93  1  0  0  0  0
 69 94  1  0  0  0  0
 71 95  1  0  0  0  0
M  END
