
  xtb     02282218203D
 energy: -251.563298799858 gnorm: 0.000288469683 xtb: 6.4.1 (unknown)
125137  0     0  0            999 V2000
    6.1529   -4.2239    9.7514 C   0  0  0  0  0  0  0  0  0  0  0  0
    4.7024   -4.8963    9.1467 S   0  0  0  0  0  0  0  0  0  0  0  0
    4.4857   -3.6146    7.9732 C   0  0  0  0  0  0  0  0  0  0  0  0
    5.5340   -2.7164    8.0919 C   0  0  0  0  0  0  0  0  0  0  0  0
    5.9438   -1.2481    7.2695 S   0  0  0  0  0  0  0  0  0  0  0  0
    7.3844   -1.0839    8.2562 C   0  0  0  0  0  0  0  0  0  0  0  0
    8.2529    0.0751    8.0144 C   0  0  0  0  0  0  0  0  0  0  0  0
    9.3050    0.2890    8.5570 O   0  0  0  0  0  0  0  0  0  0  0  0
    7.6827    0.8659    7.0952 O   0  0  0  0  0  0  0  0  0  0  0  0
    8.4025    2.0267    6.6855 C   0  0  0  0  0  0  0  0  0  0  0  0
    9.3284    1.7102    5.5199 C   0  0  0  0  0  0  0  0  0  0  0  0
    7.5298   -2.0975    9.1574 C   0  0  0  0  0  0  0  0  0  0  0  0
    6.4809   -3.0609    9.0983 C   0  0  0  0  0  0  0  0  0  0  0  0
    8.5361   -2.2011   10.0199 F   0  0  0  0  0  0  0  0  0  0  0  0
    3.4156   -3.5370    7.0555 C   0  0  0  0  0  0  0  0  0  0  0  0
    3.3879   -2.1982    5.9425 S   0  0  0  0  0  0  0  0  0  0  0  0
    1.9165   -2.7327    5.1626 C   0  0  0  0  0  0  0  0  0  0  0  0
    1.4869   -3.9027    5.7722 C   0  0  0  0  0  0  0  0  0  0  0  0
    0.1204   -4.9285    5.4847 S   0  0  0  0  0  0  0  0  0  0  0  0
    0.6331   -5.9863    6.7771 C   0  0  0  0  0  0  0  0  0  0  0  0
   -0.2007   -7.1629    7.0452 C   0  0  0  0  0  0  0  0  0  0  0  0
   -1.1954   -7.4173    6.4097 O   0  0  0  0  0  0  0  0  0  0  0  0
    0.2668   -7.8861    8.0628 O   0  0  0  0  0  0  0  0  0  0  0  0
   -0.4551   -9.0724    8.3954 C   0  0  0  0  0  0  0  0  0  0  0  0
   -0.0502  -10.2357    7.5019 C   0  0  0  0  0  0  0  0  0  0  0  0
    1.7852   -5.5634    7.3803 C   0  0  0  0  0  0  0  0  0  0  0  0
    2.3127   -4.3655    6.8319 C   0  0  0  0  0  0  0  0  0  0  0  0
    2.3589   -6.2189    8.3905 F   0  0  0  0  0  0  0  0  0  0  0  0
    1.3267   -2.0490    4.0827 C   0  0  0  0  0  0  0  0  0  0  0  0
   -0.1268   -2.6884    3.3527 S   0  0  0  0  0  0  0  0  0  0  0  0
   -0.2121   -1.4149    2.1555 C   0  0  0  0  0  0  0  0  0  0  0  0
    0.8436   -0.5437    2.3437 C   0  0  0  0  0  0  0  0  0  0  0  0
    1.3191    0.9011    1.5085 S   0  0  0  0  0  0  0  0  0  0  0  0
    2.6886    1.0700    2.5772 C   0  0  0  0  0  0  0  0  0  0  0  0
    3.5787    2.2193    2.3772 C   0  0  0  0  0  0  0  0  0  0  0  0
    3.3696    3.0852    1.5634 O   0  0  0  0  0  0  0  0  0  0  0  0
    4.6370    2.1691    3.1898 O   0  0  0  0  0  0  0  0  0  0  0  0
    5.5652    3.2497    3.1157 C   0  0  0  0  0  0  0  0  0  0  0  0
    5.1347    4.4060    4.0067 C   0  0  0  0  0  0  0  0  0  0  0  0
    2.7586    0.0738    3.5127 C   0  0  0  0  0  0  0  0  0  0  0  0
    1.7143   -0.8812    3.4164 C   0  0  0  0  0  0  0  0  0  0  0  0
    3.7224    0.0248    4.4342 F   0  0  0  0  0  0  0  0  0  0  0  0
   -1.2312   -1.3954    1.1799 C   0  0  0  0  0  0  0  0  0  0  0  0
   -1.2918   -0.1544   -0.0432 S   0  0  0  0  0  0  0  0  0  0  0  0
   -2.6969   -0.8898   -0.7322 C   0  0  0  0  0  0  0  0  0  0  0  0
   -3.3545   -0.5352   -1.9260 C   0  0  0  0  0  0  0  0  0  0  0  0
   -4.2586   -1.4479   -2.4746 C   0  0  0  0  0  0  0  0  0  0  0  0
   -4.5592   -2.6210   -1.8919 O   0  0  0  0  0  0  0  0  0  0  0  0
   -4.3695   -2.7356   -0.4633 C   0  0  0  0  0  0  0  0  0  0  0  0
   -4.3074   -4.2563   -0.2269 C   0  0  0  0  0  0  0  0  0  0  0  0
   -4.6790   -4.7486    1.1671 C   0  0  0  0  0  0  0  0  0  0  0  0
   -5.5596   -2.0383    0.2354 C   0  0  0  0  0  0  0  0  0  0  0  0
   -6.9171   -2.5056   -0.2772 C   0  0  0  0  0  0  0  0  0  0  0  0
   -3.1023   -2.0273   -0.0382 C   0  0  0  0  0  0  0  0  0  0  0  0
   -2.2638   -2.3074    1.0354 C   0  0  0  0  0  0  0  0  0  0  0  0
   -4.7389   -1.0441   -3.7179 C   0  0  0  0  0  0  0  0  0  0  0  0
   -4.2274    0.1803   -4.1257 C   0  0  0  0  0  0  0  0  0  0  0  0
   -3.1296    0.8391   -2.9403 S   0  0  0  0  0  0  0  0  0  0  0  0
   -4.5179    0.8210   -5.3504 C   0  0  0  0  0  0  0  0  0  0  0  0
   -5.5300   -0.0075   -6.5067 S   0  0  0  0  0  0  0  0  0  0  0  0
   -5.3915    1.2600   -7.7000 C   0  0  0  0  0  0  0  0  0  0  0  0
   -4.6155    2.2806   -7.1937 C   0  0  0  0  0  0  0  0  0  0  0  0
   -4.2158    3.8555   -7.8016 S   0  0  0  0  0  0  0  0  0  0  0  0
   -3.3615    4.2150   -6.3254 C   0  0  0  0  0  0  0  0  0  0  0  0
   -2.7436    5.5416   -6.2159 C   0  0  0  0  0  0  0  0  0  0  0  0
   -2.8751    6.4007   -7.0542 O   0  0  0  0  0  0  0  0  0  0  0  0
   -2.0381    5.6774   -5.0952 O   0  0  0  0  0  0  0  0  0  0  0  0
   -1.3974    6.9388   -4.9007 C   0  0  0  0  0  0  0  0  0  0  0  0
   -0.6703    6.8989   -3.5708 C   0  0  0  0  0  0  0  0  0  0  0  0
   -3.3935    3.1856   -5.4256 C   0  0  0  0  0  0  0  0  0  0  0  0
   -4.1210    2.0528   -5.8754 C   0  0  0  0  0  0  0  0  0  0  0  0
   -2.8189    3.2602   -4.2243 F   0  0  0  0  0  0  0  0  0  0  0  0
   -6.0493    1.1646   -8.9574 C   0  0  0  0  0  0  0  0  0  0  0  0
   -7.6507    0.4919   -9.0867 S   0  0  0  0  0  0  0  0  0  0  0  0
   -7.7438    0.8003  -10.7778 C   0  0  0  0  0  0  0  0  0  0  0  0
   -6.5983    1.3808  -11.2247 C   0  0  0  0  0  0  0  0  0  0  0  0
   -6.0364    1.8839  -12.7949 S   0  0  0  0  0  0  0  0  0  0  0  0
   -4.4714    2.2842  -12.1172 C   0  0  0  0  0  0  0  0  0  0  0  0
   -3.4112    2.7673  -13.0062 C   0  0  0  0  0  0  0  0  0  0  0  0
   -2.2824    3.0159  -12.6700 O   0  0  0  0  0  0  0  0  0  0  0  0
   -3.8802    2.8750  -14.2582 O   0  0  0  0  0  0  0  0  0  0  0  0
   -2.9701    3.3546  -15.2466 C   0  0  0  0  0  0  0  0  0  0  0  0
   -2.8833    4.8739  -15.2320 C   0  0  0  0  0  0  0  0  0  0  0  0
   -4.4057    2.0732  -10.7687 C   0  0  0  0  0  0  0  0  0  0  0  0
   -5.6144    1.5842  -10.2059 C   0  0  0  0  0  0  0  0  0  0  0  0
   -3.2990    2.2497  -10.0524 F   0  0  0  0  0  0  0  0  0  0  0  0
    6.6838   -4.7096   10.5450 H   0  0  0  0  0  0  0  0  0  0  0  0
    7.6366    2.7493    6.3957 H   0  0  0  0  0  0  0  0  0  0  0  0
    8.9761    2.4073    7.5371 H   0  0  0  0  0  0  0  0  0  0  0  0
    8.7623    1.2739    4.7002 H   0  0  0  0  0  0  0  0  0  0  0  0
   10.0941    1.0047    5.8337 H   0  0  0  0  0  0  0  0  0  0  0  0
    9.8100    2.6216    5.1774 H   0  0  0  0  0  0  0  0  0  0  0  0
   -0.2025   -9.2690    9.4390 H   0  0  0  0  0  0  0  0  0  0  0  0
   -1.5275   -8.8738    8.2979 H   0  0  0  0  0  0  0  0  0  0  0  0
   -0.3252  -10.0261    6.4710 H   0  0  0  0  0  0  0  0  0  0  0  0
   -0.5609  -11.1379    7.8258 H   0  0  0  0  0  0  0  0  0  0  0  0
    1.0241  -10.3945    7.5575 H   0  0  0  0  0  0  0  0  0  0  0  0
    5.6447    3.5800    2.0747 H   0  0  0  0  0  0  0  0  0  0  0  0
    6.5151    2.8271    3.4497 H   0  0  0  0  0  0  0  0  0  0  0  0
    4.9958    4.0593    5.0281 H   0  0  0  0  0  0  0  0  0  0  0  0
    4.1985    4.8249    3.6456 H   0  0  0  0  0  0  0  0  0  0  0  0
    5.8954    5.1813    3.9918 H   0  0  0  0  0  0  0  0  0  0  0  0
   -3.2952   -4.5853   -0.4716 H   0  0  0  0  0  0  0  0  0  0  0  0
   -4.9809   -4.7096   -0.9563 H   0  0  0  0  0  0  0  0  0  0  0  0
   -4.4844   -5.8169    1.2264 H   0  0  0  0  0  0  0  0  0  0  0  0
   -4.0986   -4.2586    1.9426 H   0  0  0  0  0  0  0  0  0  0  0  0
   -5.7317   -4.5883    1.3793 H   0  0  0  0  0  0  0  0  0  0  0  0
   -5.4657   -0.9640    0.0525 H   0  0  0  0  0  0  0  0  0  0  0  0
   -5.4751   -2.1990    1.3098 H   0  0  0  0  0  0  0  0  0  0  0  0
   -6.9817   -2.3665   -1.3533 H   0  0  0  0  0  0  0  0  0  0  0  0
   -7.0846   -3.5561   -0.0593 H   0  0  0  0  0  0  0  0  0  0  0  0
   -7.7067   -1.9254    0.1943 H   0  0  0  0  0  0  0  0  0  0  0  0
   -2.3646   -3.1415    1.7041 H   0  0  0  0  0  0  0  0  0  0  0  0
   -5.4265   -1.6200   -4.3096 H   0  0  0  0  0  0  0  0  0  0  0  0
   -0.7061    7.1142   -5.7329 H   0  0  0  0  0  0  0  0  0  0  0  0
   -2.1586    7.7274   -4.9211 H   0  0  0  0  0  0  0  0  0  0  0  0
   -0.1714    7.8481   -3.3987 H   0  0  0  0  0  0  0  0  0  0  0  0
   -1.3754    6.7129   -2.7653 H   0  0  0  0  0  0  0  0  0  0  0  0
    0.0674    6.1015   -3.5726 H   0  0  0  0  0  0  0  0  0  0  0  0
   -8.6228    0.5321  -11.3258 H   0  0  0  0  0  0  0  0  0  0  0  0
   -3.3680    2.9893  -16.1955 H   0  0  0  0  0  0  0  0  0  0  0  0
   -1.9834    2.9175  -15.0598 H   0  0  0  0  0  0  0  0  0  0  0  0
   -2.2334    5.2086  -16.0354 H   0  0  0  0  0  0  0  0  0  0  0  0
   -3.8710    5.3082  -15.3676 H   0  0  0  0  0  0  0  0  0  0  0  0
   -2.4741    5.2130  -14.2835 H   0  0  0  0  0  0  0  0  0  0  0  0
  1  2  1  0  0  0  0
  2  3  1  0  0  0  0
  3  4  2  0  0  0  0
  4  5  1  0  0  0  0
  5  6  1  0  0  0  0
  6  7  1  0  0  0  0
  7  8  2  0  0  0  0
  7  9  1  0  0  0  0
  9 10  1  0  0  0  0
 10 11  1  0  0  0  0
  6 12  2  0  0  0  0
 12 13  1  0  0  0  0
 12 14  1  0  0  0  0
  3 15  1  0  0  0  0
 15 16  1  0  0  0  0
 16 17  1  0  0  0  0
 17 18  2  0  0  0  0
 18 19  1  0  0  0  0
 19 20  1  0  0  0  0
 20 21  1  0  0  0  0
 21 22  2  0  0  0  0
 21 23  1  0  0  0  0
 23 24  1  0  0  0  0
 24 25  1  0  0  0  0
 20 26  2  0  0  0  0
 26 27  1  0  0  0  0
 26 28  1  0  0  0  0
 17 29  1  0  0  0  0
 29 30  1  0  0  0  0
 30 31  1  0  0  0  0
 31 32  2  0  0  0  0
 32 33  1  0  0  0  0
 33 34  1  0  0  0  0
 34 35  1  0  0  0  0
 35 36  2  0  0  0  0
 35 37  1  0  0  0  0
 37 38  1  0  0  0  0
 38 39  1  0  0  0  0
 34 40  2  0  0  0  0
 40 41  1  0  0  0  0
 40 42  1  0  0  0  0
 31 43  1  0  0  0  0
 43 44  1  0  0  0  0
 44 45  1  0  0  0  0
 45 46  1  0  0  0  0
 46 47  2  0  0  0  0
 47 48  1  0  0  0  0
 48 49  1  0  0  0  0
 49 50  1  0  0  0  0
 50 51  1  0  0  0  0
 49 52  1  0  0  0  0
 52 53  1  0  0  0  0
 49 54  1  0  0  0  0
 54 55  1  0  0  0  0
 47 56  1  0  0  0  0
 56 57  2  0  0  0  0
 57 58  1  0  0  0  0
 57 59  1  0  0  0  0
 59 60  1  0  0  0  0
 60 61  1  0  0  0  0
 61 62  2  0  0  0  0
 62 63  1  0  0  0  0
 63 64  1  0  0  0  0
 64 65  1  0  0  0  0
 65 66  2  0  0  0  0
 65 67  1  0  0  0  0
 67 68  1  0  0  0  0
 68 69  1  0  0  0  0
 64 70  2  0  0  0  0
 70 71  1  0  0  0  0
 70 72  1  0  0  0  0
 61 73  1  0  0  0  0
 73 74  1  0  0  0  0
 74 75  1  0  0  0  0
 75 76  2  0  0  0  0
 76 77  1  0  0  0  0
 77 78  1  0  0  0  0
 78 79  1  0  0  0  0
 79 80  2  0  0  0  0
 79 81  1  0  0  0  0
 81 82  1  0  0  0  0
 82 83  1  0  0  0  0
 78 84  2  0  0  0  0
 84 85  1  0  0  0  0
 84 86  1  0  0  0  0
 13  1  2  0  0  0  0
 27 15  2  0  0  0  0
 41 29  2  0  0  0  0
 55 43  2  0  0  0  0
 71 59  2  0  0  0  0
 85 73  2  0  0  0  0
 13  4  1  0  0  0  0
 27 18  1  0  0  0  0
 41 32  1  0  0  0  0
 54 45  2  0  0  0  0
 71 62  1  0  0  0  0
 85 76  1  0  0  0  0
 58 46  1  0  0  0  0
  1 87  1  0  0  0  0
 10 88  1  0  0  0  0
 10 89  1  0  0  0  0
 11 90  1  0  0  0  0
 11 91  1  0  0  0  0
 11 92  1  0  0  0  0
 24 93  1  0  0  0  0
 24 94  1  0  0  0  0
 25 95  1  0  0  0  0
 25 96  1  0  0  0  0
 25 97  1  0  0  0  0
 38 98  1  0  0  0  0
 38 99  1  0  0  0  0
 39100  1  0  0  0  0
 39101  1  0  0  0  0
 39102  1  0  0  0  0
 50103  1  0  0  0  0
 50104  1  0  0  0  0
 51105  1  0  0  0  0
 51106  1  0  0  0  0
 51107  1  0  0  0  0
 52108  1  0  0  0  0
 52109  1  0  0  0  0
 53110  1  0  0  0  0
 53111  1  0  0  0  0
 53112  1  0  0  0  0
 55113  1  0  0  0  0
 56114  1  0  0  0  0
 68115  1  0  0  0  0
 68116  1  0  0  0  0
 69117  1  0  0  0  0
 69118  1  0  0  0  0
 69119  1  0  0  0  0
 75120  1  0  0  0  0
 82121  1  0  0  0  0
 82122  1  0  0  0  0
 83123  1  0  0  0  0
 83124  1  0  0  0  0
 83125  1  0  0  0  0
M  END
