105

C          7.26450        6.90820        5.36540
S          5.65250        7.46980        5.19710
C          5.16890        5.99580        4.40450
C          6.23400        5.12230        4.32650
C          7.43400        5.65260        4.86740
S          8.98790        4.83240        4.98670
C          9.13770        3.93590        3.37880
C          8.26780        4.58360        2.33660
O          8.53940        5.62230        1.79640
C          6.97910        3.84560        2.06040
S          6.12710        3.49990        3.64320
C          3.84210        5.79820        3.92720
S          3.38770        4.33970        3.09320
C          1.74780        4.89060        2.88090
C          1.57630        6.14430        3.43770
C          2.76450        6.65640        4.00420
S          2.84150        8.25360        4.75630
C          2.08870        7.78430        6.35790
C          0.82590        7.00760        6.07470
O          0.62840        5.90970        6.52230
C         -0.11670        7.69860        5.12890
S          0.03470        6.99270        3.42680
C          0.82210        4.05690        2.20260
S          1.20960        2.37180        1.94710
C         -0.30350        2.12310        1.15510
C         -0.77900        0.95050        0.53010
C         -1.92190        1.03760       -0.25740
O         -2.61820        2.17140       -0.44010
C         -2.44930        3.25100        0.50750
C         -3.47190        2.99460        1.64170
C         -3.47040        4.02480        2.76210
C         -2.77580        4.52500       -0.28350
C         -1.79010        4.76300       -1.42140
C         -1.05840        3.28310        1.08690
C         -0.41230        4.37400        1.67170
C         -2.22710       -0.16950       -0.89590
C         -1.33550       -1.17890       -0.59300
S         -0.09150       -0.63380        0.49830
C         -1.39590       -2.51590       -1.06630
S         -2.69410       -2.99400       -2.12690
C         -2.10770       -4.62860       -2.18250
C         -0.94010       -4.76890       -1.46710
C         -0.54680       -3.57560       -0.82110
S          0.87730       -3.46490        0.21000
C          0.29230       -4.54550        1.56360
C         -0.08790       -5.93580        1.10400
O         -1.02460       -6.52210        1.58000
C          0.78090       -6.50520        0.02100
S         -0.04140       -6.27580       -1.60640
C         -2.79040       -5.69100       -2.86560
S         -3.16380       -5.64570       -4.56010
C         -3.79010       -7.27110       -4.51430
C         -3.74710       -7.77290       -3.23030
C         -3.19960       -6.87130       -2.29020
S         -3.17100       -7.01580       -0.53600
C         -2.80500       -8.78470       -0.19260
C         -1.94260       -9.34000       -1.28730
O         -0.74940       -9.19360       -1.33220
C         -2.68620      -10.10750       -2.35880
S         -4.30960       -9.38130       -2.77930
C         -4.21390       -7.92850       -5.70690
S         -4.58290       -9.62970       -5.73240
C         -4.84030       -9.59730       -7.42780
C         -4.69160       -8.35070       -7.95440
C         -4.33730       -7.39130       -6.97040
S         -4.10360       -5.68150       -7.33690
C         -2.46990       -5.82590       -8.14990
C         -2.51660       -6.93780       -9.17100
O         -1.72150       -7.83910       -9.17350
C         -3.67010       -6.84450      -10.13180
S         -4.99320       -8.04480       -9.66220
H          8.00250        7.52630        5.83410
H          8.87870        2.89240        3.54800
H         10.18960        4.04220        3.11510
H          7.17740        2.87050        1.61620
H          6.32570        4.42890        1.41120
H          1.86950        8.72120        6.86860
H          2.79500        7.19140        6.93920
H          0.06920        8.76880        5.06270
H         -1.15060        7.49440        5.40560
H         -3.25010        2.00880        2.06090
H         -4.46210        2.94420        1.18390
H         -4.19170        3.73230        3.52140
H         -2.49140        4.09090        3.23000
H         -3.74750        5.00870        2.39370
H         -3.78060        4.40960       -0.69250
H         -2.77340        5.37730        0.39390
H         -1.78320        3.90950       -2.09480
H         -2.07760        5.64690       -1.98480
H         -0.78330        4.91010       -1.03690
H         -0.81170        5.36960        1.69680
H         -3.06320       -0.30010       -1.55790
H         -0.54550       -4.07000        2.07530
H          1.13800       -4.61890        2.24990
H          0.84820       -7.59020        0.10330
H          1.76530       -6.04260       -0.01610
H         -3.74610       -9.32080       -0.08540
H         -2.25840       -8.73700        0.74960
H         -2.07850      -10.19230       -3.26060
H         -2.91520      -11.10670       -1.98360
H         -5.10910      -10.49380       -7.94810
H         -2.29740       -4.86370       -8.63150
H         -1.70180       -6.01440       -7.39940
H         -4.11030       -5.84950      -10.15950
H         -3.36270       -7.16630      -11.12640
