105

C         -4.26170       -0.76860       -2.15460
C         -4.20250        0.59460       -2.16340
C         -3.00360        1.42790       -2.44430
F         -3.19550        2.31120       -3.43360
F         -2.60970        2.15690       -1.37460
F         -1.94710        0.67910       -2.78980
S         -5.71300        1.34580       -1.81210
C         -6.44730       -0.20920       -1.66340
C         -7.80760       -0.33260       -1.37400
N         -8.92660       -0.45480       -1.14900
C         -5.55790       -1.25920       -1.86710
C         -6.00720       -2.62860       -1.92860
C         -5.29400       -3.76590       -1.82790
C         -3.93980       -3.97570       -1.40710
S         -3.16090       -3.03050       -0.16050
C         -1.76500       -4.04930       -0.23160
C         -0.54830       -3.91430        0.47620
C          0.55000       -4.64620        0.05180
O          0.51250       -5.55160       -0.93030
C         -0.75570       -6.01620       -1.44660
C         -0.54750       -6.15120       -2.97060
C          0.63370       -7.03560       -3.35220
C         -1.07540       -7.37790       -0.79530
C         -1.36510       -7.28340        0.69850
C         -1.88000       -5.04060       -1.18760
C         -3.12950       -5.01200       -1.81740
C          1.73510       -4.27560        0.71140
C          1.54760       -3.28200        1.64310
S         -0.13910       -2.84460        1.75910
C          2.58290       -2.58900        2.37580
C          3.73380       -3.19350        2.83980
C          4.06260       -4.64510        2.87420
F          2.98790       -5.41580        3.10020
F          4.61610       -5.09550        1.73150
F          4.94420       -4.92720        3.84410
S          4.88460       -2.09410        3.49840
C          3.81080       -0.77780        3.20050
C          4.22200        0.53420        3.44940
N          4.57220        1.61440        3.61630
C          2.61370       -1.17300        2.62500
C          1.50790       -0.31730        2.31030
C          1.22370        0.90170        2.79700
C         -0.08700        1.47670        2.59510
C         -0.63510        2.35850        3.50870
C          0.09470        3.04760        4.60940
F          1.14290        3.75210        4.14970
F         -0.69060        3.90940        5.26660
F          0.58390        2.19540        5.52700
S         -2.32710        2.60010        3.33560
C         -2.33190        1.52310        1.98080
C         -3.52370        1.18370        1.33780
N         -4.49980        0.85170        0.83450
C         -1.07390        1.04910        1.64730
C         -0.89290        0.33890        0.38870
C          0.11350        0.50460       -0.47580
C          1.28510        1.35160       -0.25980
C          2.57380        0.87140       -0.31550
C          3.02440       -0.49230       -0.70530
F          3.43920       -0.55620       -1.97900
F          4.05700       -0.92250        0.04480
F          2.06470       -1.42340       -0.58150
S          3.77090        2.04070        0.08530
C          2.53730        3.23610        0.27160
C          2.90160        4.53080        0.64930
N          3.21740        5.59200        0.95070
C          1.26310        2.74750        0.03610
C          0.05250        3.54660        0.01000
C         -0.07670        4.80240       -0.42780
C          0.92210        5.63280       -1.08910
C          1.59450        5.28580       -2.23800
C          1.50280        4.02600       -3.02540
F          0.32460        3.40040       -2.89960
F          1.68550        4.23950       -4.33450
F          2.44000        3.11520       -2.67070
S          2.61300        6.53780       -2.84690
C          2.11520        7.57270       -1.55630
C          2.61030        8.87710       -1.46080
N          2.99600        9.95460       -1.38720
C          1.21760        6.97240       -0.69190
C          0.70640        7.66020        0.47610
C          0.20530        7.07450        1.55760
H         -3.42080       -1.39460       -2.39000
H         -7.06460       -2.72780       -2.13960
H         -5.80870       -4.68680       -2.07760
H         -1.46040       -6.54450       -3.41760
H         -0.38120       -5.14640       -3.36630
H          0.43520       -8.07920       -3.12430
H          1.52530       -6.72180       -2.81770
H          0.82080       -6.95110       -4.41990
H         -0.21700       -8.03180       -0.94750
H         -1.93670       -7.80700       -1.31020
H         -2.22590       -6.64680        0.89310
H         -0.50730       -6.88280        1.23430
H         -1.57750       -8.27350        1.09370
H         -3.44380       -5.71140       -2.57080
H          2.68830       -4.69060        0.44660
H          0.77500       -0.76820        1.66310
H          1.88870        1.41110        3.47720
H         -1.72110       -0.29870        0.10730
H          0.10420       -0.05810       -1.39800
H         -0.84220        3.04530        0.34160
H         -1.04500        5.27930       -0.33770
H          0.80270        8.73760        0.43930
H          0.15440        6.00490        1.66370
H         -0.13460        7.65840        2.39470
