
  xtb     03012209103D
 energy: -194.486099966557 gnorm: 0.000760942296 xtb: 6.4.1 (unknown)
114127  0     0  0            999 V2000
   12.2042    7.0185   -0.1510 C   0  0  0  0  0  0  0  0  0  0  0  0
   10.8033    7.2968   -1.1183 S   0  0  0  0  0  0  0  0  0  0  0  0
    9.8065    6.1662   -0.2283 C   0  0  0  0  0  0  0  0  0  0  0  0
   10.5688    5.6005    0.7903 C   0  0  0  0  0  0  0  0  0  0  0  0
   11.9145    6.0949    0.8138 C   0  0  0  0  0  0  0  0  0  0  0  0
   12.5334    5.4587    1.8443 N   0  0  0  0  0  0  0  0  0  0  0  0
   11.6911    4.6097    2.4651 N   0  0  0  0  0  0  0  0  0  0  0  0
   10.5314    4.6744    1.8654 C   0  0  0  0  0  0  0  0  0  0  0  0
    8.4660    5.9745   -0.6199 C   0  0  0  0  0  0  0  0  0  0  0  0
    7.5938    5.1337    0.0034 C   0  0  0  0  0  0  0  0  0  0  0  0
    6.2595    4.9119   -0.3790 C   0  0  0  0  0  0  0  0  0  0  0  0
    5.2612    3.7950    0.5338 S   0  0  0  0  0  0  0  0  0  0  0  0
    3.8490    4.0017   -0.4749 C   0  0  0  0  0  0  0  0  0  0  0  0
    4.1509    4.9196   -1.4877 C   0  0  0  0  0  0  0  0  0  0  0  0
    5.4839    5.4156   -1.4218 C   0  0  0  0  0  0  0  0  0  0  0  0
    5.6145    6.2811   -2.4579 N   0  0  0  0  0  0  0  0  0  0  0  0
    4.4761    6.3710   -3.1661 N   0  0  0  0  0  0  0  0  0  0  0  0
    3.5949    5.5761   -2.6138 C   0  0  0  0  0  0  0  0  0  0  0  0
    2.6801    3.2818   -0.1849 C   0  0  0  0  0  0  0  0  0  0  0  0
    1.5321    3.3156   -0.9191 C   0  0  0  0  0  0  0  0  0  0  0  0
    0.3752    2.5708   -0.6182 C   0  0  0  0  0  0  0  0  0  0  0  0
    0.2676    1.5370    0.7919 S   0  0  0  0  0  0  0  0  0  0  0  0
   -1.3345    1.0668    0.3594 C   0  0  0  0  0  0  0  0  0  0  0  0
   -2.1757    0.1349    0.9898 C   0  0  0  0  0  0  0  0  0  0  0  0
   -3.2949   -0.3250    0.2967 C   0  0  0  0  0  0  0  0  0  0  0  0
   -3.6219    0.1135   -0.9355 O   0  0  0  0  0  0  0  0  0  0  0  0
   -3.1704    1.4273   -1.3099 C   0  0  0  0  0  0  0  0  0  0  0  0
   -4.0649    2.4829   -0.6133 C   0  0  0  0  0  0  0  0  0  0  0  0
   -5.5456    2.3794   -0.9533 C   0  0  0  0  0  0  0  0  0  0  0  0
   -3.2383    1.5113   -2.8510 C   0  0  0  0  0  0  0  0  0  0  0  0
   -4.2337    0.5522   -3.4959 C   0  0  0  0  0  0  0  0  0  0  0  0
   -1.7600    1.6708   -0.8199 C   0  0  0  0  0  0  0  0  0  0  0  0
   -0.7998    2.5212   -1.3551 C   0  0  0  0  0  0  0  0  0  0  0  0
   -3.9849   -1.3317    0.9702 C   0  0  0  0  0  0  0  0  0  0  0  0
   -3.4253   -1.6393    2.1987 C   0  0  0  0  0  0  0  0  0  0  0  0
   -2.0203   -0.6482    2.5257 S   0  0  0  0  0  0  0  0  0  0  0  0
   -3.8448   -2.6323    3.0982 C   0  0  0  0  0  0  0  0  0  0  0  0
   -5.2343   -3.6358    2.7256 S   0  0  0  0  0  0  0  0  0  0  0  0
   -4.9831   -4.7283    4.0662 C   0  0  0  0  0  0  0  0  0  0  0  0
   -3.9245   -4.2417    4.8361 C   0  0  0  0  0  0  0  0  0  0  0  0
   -3.2880   -3.0944    4.2814 C   0  0  0  0  0  0  0  0  0  0  0  0
   -2.2566   -2.7944    5.1065 N   0  0  0  0  0  0  0  0  0  0  0  0
   -2.1871   -3.6624    6.1308 N   0  0  0  0  0  0  0  0  0  0  0  0
   -3.1589   -4.5285    5.9949 C   0  0  0  0  0  0  0  0  0  0  0  0
   -5.8066   -5.8443    4.3497 C   0  0  0  0  0  0  0  0  0  0  0  0
   -6.5348   -6.6181    3.4927 C   0  0  0  0  0  0  0  0  0  0  0  0
   -6.4600   -6.6845    2.0827 C   0  0  0  0  0  0  0  0  0  0  0  0
   -5.0828   -6.1320    1.1582 S   0  0  0  0  0  0  0  0  0  0  0  0
   -5.7430   -6.5639   -0.3933 C   0  0  0  0  0  0  0  0  0  0  0  0
   -6.9681   -7.2109   -0.1808 C   0  0  0  0  0  0  0  0  0  0  0  0
   -7.3459   -7.2812    1.1887 C   0  0  0  0  0  0  0  0  0  0  0  0
   -8.5534   -7.8957    1.2158 N   0  0  0  0  0  0  0  0  0  0  0  0
   -8.9627   -8.2230   -0.0245 N   0  0  0  0  0  0  0  0  0  0  0  0
   -8.0445   -7.8239   -0.8684 C   0  0  0  0  0  0  0  0  0  0  0  0
   -5.2049   -6.2287   -1.6494 C   0  0  0  0  0  0  0  0  0  0  0  0
   -4.1605   -5.4409   -2.0465 C   0  0  0  0  0  0  0  0  0  0  0  0
   -3.1364   -4.7216   -1.3830 C   0  0  0  0  0  0  0  0  0  0  0  0
   -2.6766   -4.8365    0.2993 S   0  0  0  0  0  0  0  0  0  0  0  0
   -1.3786   -3.7326    0.0656 C   0  0  0  0  0  0  0  0  0  0  0  0
   -0.4612   -3.2474    1.0255 C   0  0  0  0  0  0  0  0  0  0  0  0
    0.3559   -2.1864    0.6763 C   0  0  0  0  0  0  0  0  0  0  0  0
    0.3146   -1.5897   -0.5308 O   0  0  0  0  0  0  0  0  0  0  0  0
   -0.1664   -2.3592   -1.6466 C   0  0  0  0  0  0  0  0  0  0  0  0
   -0.6589   -1.3228   -2.6693 C   0  0  0  0  0  0  0  0  0  0  0  0
    0.4125   -0.3347   -3.1117 C   0  0  0  0  0  0  0  0  0  0  0  0
    0.9741   -3.2606   -2.2081 C   0  0  0  0  0  0  0  0  0  0  0  0
    2.3807   -2.8149   -1.8193 C   0  0  0  0  0  0  0  0  0  0  0  0
   -1.3073   -3.2679   -1.2395 C   0  0  0  0  0  0  0  0  0  0  0  0
   -2.2875   -3.8393   -2.0451 C   0  0  0  0  0  0  0  0  0  0  0  0
    1.1817   -1.7626    1.7404 C   0  0  0  0  0  0  0  0  0  0  0  0
    0.9915   -2.5108    2.8603 C   0  0  0  0  0  0  0  0  0  0  0  0
   -0.1930   -3.7437    2.6603 S   0  0  0  0  0  0  0  0  0  0  0  0
   13.1138    7.5416   -0.3588 H   0  0  0  0  0  0  0  0  0  0  0  0
   13.4812    5.5482    2.1659 H   0  0  0  0  0  0  0  0  0  0  0  0
    9.7202    4.0676    2.2133 H   0  0  0  0  0  0  0  0  0  0  0  0
    8.1425    6.5485   -1.4765 H   0  0  0  0  0  0  0  0  0  0  0  0
    7.9346    4.5774    0.8636 H   0  0  0  0  0  0  0  0  0  0  0  0
    6.4110    6.8276   -2.7365 H   0  0  0  0  0  0  0  0  0  0  0  0
    2.6108    5.5024   -3.0294 H   0  0  0  0  0  0  0  0  0  0  0  0
    2.7139    2.6469    0.6915 H   0  0  0  0  0  0  0  0  0  0  0  0
    1.4809    3.9314   -1.8049 H   0  0  0  0  0  0  0  0  0  0  0  0
   -3.9392    2.3535    0.4658 H   0  0  0  0  0  0  0  0  0  0  0  0
   -3.6844    3.4726   -0.8737 H   0  0  0  0  0  0  0  0  0  0  0  0
   -6.1167    3.0454   -0.3100 H   0  0  0  0  0  0  0  0  0  0  0  0
   -5.8968    1.3626   -0.7951 H   0  0  0  0  0  0  0  0  0  0  0  0
   -5.7319    2.6624   -1.9857 H   0  0  0  0  0  0  0  0  0  0  0  0
   -3.4820    2.5386   -3.1259 H   0  0  0  0  0  0  0  0  0  0  0  0
   -2.2486    1.2858   -3.2524 H   0  0  0  0  0  0  0  0  0  0  0  0
   -5.2451    0.7305   -3.1473 H   0  0  0  0  0  0  0  0  0  0  0  0
   -3.9722   -0.4762   -3.2640 H   0  0  0  0  0  0  0  0  0  0  0  0
   -4.2090    0.6830   -4.5758 H   0  0  0  0  0  0  0  0  0  0  0  0
   -0.9330    3.0990   -2.2520 H   0  0  0  0  0  0  0  0  0  0  0  0
   -4.8493   -1.8346    0.5780 H   0  0  0  0  0  0  0  0  0  0  0  0
   -1.5746   -2.0606    5.0150 H   0  0  0  0  0  0  0  0  0  0  0  0
   -3.2919   -5.3132    6.7117 H   0  0  0  0  0  0  0  0  0  0  0  0
   -5.8554   -6.0988    5.4020 H   0  0  0  0  0  0  0  0  0  0  0  0
   -7.2293   -7.3219    3.9379 H   0  0  0  0  0  0  0  0  0  0  0  0
   -9.1295   -8.1220    2.0082 H   0  0  0  0  0  0  0  0  0  0  0  0
   -8.1703   -7.9858   -1.9197 H   0  0  0  0  0  0  0  0  0  0  0  0
   -5.8002   -6.6345   -2.4604 H   0  0  0  0  0  0  0  0  0  0  0  0
   -4.0950   -5.3047   -3.1212 H   0  0  0  0  0  0  0  0  0  0  0  0
   -1.0510   -1.8502   -3.5395 H   0  0  0  0  0  0  0  0  0  0  0  0
   -1.4828   -0.7798   -2.2032 H   0  0  0  0  0  0  0  0  0  0  0  0
    1.1865   -0.8307   -3.6910 H   0  0  0  0  0  0  0  0  0  0  0  0
    0.8666    0.1422   -2.2478 H   0  0  0  0  0  0  0  0  0  0  0  0
   -0.0322    0.4374   -3.7362 H   0  0  0  0  0  0  0  0  0  0  0  0
    0.8809   -3.2858   -3.2947 H   0  0  0  0  0  0  0  0  0  0  0  0
    0.8239   -4.2805   -1.8438 H   0  0  0  0  0  0  0  0  0  0  0  0
    2.5453   -2.9431   -0.7521 H   0  0  0  0  0  0  0  0  0  0  0  0
    3.1106   -3.4220   -2.3505 H   0  0  0  0  0  0  0  0  0  0  0  0
    2.5486   -1.7714   -2.0655 H   0  0  0  0  0  0  0  0  0  0  0  0
   -2.3986   -3.6360   -3.0951 H   0  0  0  0  0  0  0  0  0  0  0  0
    1.8704   -0.9426    1.6641 H   0  0  0  0  0  0  0  0  0  0  0  0
    1.4904   -2.4192    3.8040 H   0  0  0  0  0  0  0  0  0  0  0  0
  1  2  1  0  0  0  0
  2  3  1  0  0  0  0
  3  4  2  0  0  0  0
  4  5  1  0  0  0  0
  5  6  1  0  0  0  0
  6  7  1  0  0  0  0
  7  8  2  0  0  0  0
  3  9  1  0  0  0  0
  9 10  2  0  0  0  0
 10 11  1  0  0  0  0
 11 12  1  0  0  0  0
 12 13  1  0  0  0  0
 13 14  2  0  0  0  0
 14 15  1  0  0  0  0
 15 16  1  0  0  0  0
 16 17  1  0  0  0  0
 17 18  2  0  0  0  0
 13 19  1  0  0  0  0
 19 20  2  0  0  0  0
 20 21  1  0  0  0  0
 21 22  1  0  0  0  0
 22 23  1  0  0  0  0
 23 24  1  0  0  0  0
 24 25  2  0  0  0  0
 25 26  1  0  0  0  0
 26 27  1  0  0  0  0
 27 28  1  0  0  0  0
 28 29  1  0  0  0  0
 27 30  1  0  0  0  0
 30 31  1  0  0  0  0
 27 32  1  0  0  0  0
 32 33  1  0  0  0  0
 25 34  1  0  0  0  0
 34 35  2  0  0  0  0
 35 36  1  0  0  0  0
 35 37  1  0  0  0  0
 37 38  1  0  0  0  0
 38 39  1  0  0  0  0
 39 40  2  0  0  0  0
 40 41  1  0  0  0  0
 41 42  1  0  0  0  0
 42 43  1  0  0  0  0
 43 44  2  0  0  0  0
 39 45  1  0  0  0  0
 45 46  2  0  0  0  0
 46 47  1  0  0  0  0
 47 48  1  0  0  0  0
 48 49  1  0  0  0  0
 49 50  2  0  0  0  0
 50 51  1  0  0  0  0
 51 52  1  0  0  0  0
 52 53  1  0  0  0  0
 53 54  2  0  0  0  0
 49 55  1  0  0  0  0
 55 56  2  0  0  0  0
 56 57  1  0  0  0  0
 57 58  1  0  0  0  0
 58 59  1  0  0  0  0
 59 60  1  0  0  0  0
 60 61  2  0  0  0  0
 61 62  1  0  0  0  0
 62 63  1  0  0  0  0
 63 64  1  0  0  0  0
 64 65  1  0  0  0  0
 63 66  1  0  0  0  0
 66 67  1  0  0  0  0
 63 68  1  0  0  0  0
 68 69  1  0  0  0  0
 61 70  1  0  0  0  0
 70 71  2  0  0  0  0
 71 72  1  0  0  0  0
  5  1  2  0  0  0  0
 15 11  2  0  0  0  0
 33 21  2  0  0  0  0
 41 37  2  0  0  0  0
 51 47  2  0  0  0  0
 69 57  2  0  0  0  0
  8  4  1  0  0  0  0
 18 14  1  0  0  0  0
 32 23  2  0  0  0  0
 44 40  1  0  0  0  0
 54 50  1  0  0  0  0
 68 59  2  0  0  0  0
 36 24  1  0  0  0  0
 72 60  1  0  0  0  0
  1 73  1  0  0  0  0
  6 74  1  0  0  0  0
  8 75  1  0  0  0  0
  9 76  1  0  0  0  0
 10 77  1  0  0  0  0
 16 78  1  0  0  0  0
 18 79  1  0  0  0  0
 19 80  1  0  0  0  0
 20 81  1  0  0  0  0
 28 82  1  0  0  0  0
 28 83  1  0  0  0  0
 29 84  1  0  0  0  0
 29 85  1  0  0  0  0
 29 86  1  0  0  0  0
 30 87  1  0  0  0  0
 30 88  1  0  0  0  0
 31 89  1  0  0  0  0
 31 90  1  0  0  0  0
 31 91  1  0  0  0  0
 33 92  1  0  0  0  0
 34 93  1  0  0  0  0
 42 94  1  0  0  0  0
 44 95  1  0  0  0  0
 45 96  1  0  0  0  0
 46 97  1  0  0  0  0
 52 98  1  0  0  0  0
 54 99  1  0  0  0  0
 55100  1  0  0  0  0
 56101  1  0  0  0  0
 64102  1  0  0  0  0
 64103  1  0  0  0  0
 65104  1  0  0  0  0
 65105  1  0  0  0  0
 65106  1  0  0  0  0
 66107  1  0  0  0  0
 66108  1  0  0  0  0
 67109  1  0  0  0  0
 67110  1  0  0  0  0
 67111  1  0  0  0  0
 69112  1  0  0  0  0
 70113  1  0  0  0  0
 71114  1  0  0  0  0
M  END
