125

C          2.21630        4.12680       -6.63540
C          1.01110        3.49680       -6.78220
C          0.43230        2.80720       -5.71370
C          1.04160        2.73600       -4.47590
C          2.29430        3.39780       -4.30190
C          2.88330        4.08660       -5.39650
C          4.13280        4.70570       -5.18680
C          4.72340        4.62720       -3.95600
C          4.05330        3.92520       -2.94190
N          2.89860        3.33920       -3.09900
C          0.45000        2.04400       -3.35030
C         -0.43160        1.03610       -3.45350
C         -1.09230        0.36540       -2.35620
C         -1.25680        0.97980       -1.12680
C         -2.06220        0.43000       -0.13930
C         -2.77960       -0.74030       -0.33290
C         -2.53000       -1.47400       -1.53220
C         -1.67380       -0.92720       -2.53210
C         -1.41490       -1.73340       -3.65830
C         -1.99850       -2.96730       -3.76980
C         -2.83760       -3.39770       -2.73450
N         -3.08660       -2.69040       -1.66850
C         -3.74140       -1.12320        0.67390
C         -4.77860       -1.96840        0.53930
C         -5.68060       -2.28790        1.62670
C         -6.18260       -3.57130        1.74980
C         -6.74250       -4.02670        2.94540
C         -6.79570       -3.20940        4.05290
C         -6.52640       -1.81950        3.88440
C         -6.00370       -1.34710        2.65010
C         -5.86620        0.04700        2.51190
C         -6.13950        0.86580        3.57710
C         -6.56240        0.27960        4.77850
N         -6.77060       -0.99950        4.92190
C         -6.97380       -3.70390        5.42280
C         -5.96990       -3.62220        6.30670
C         -4.63830       -3.18100        5.97400
S         -4.01070       -3.39750        4.36080
C         -2.54130       -2.62350        4.80040
C         -1.49900       -2.23920        3.92800
C         -0.52980       -1.36900        4.39490
O         -0.50840       -0.90340        5.66140
C         -1.25200       -1.61650        6.68180
C         -1.59470       -0.55750        7.74120
C         -0.37320        0.13440        8.33440
C         -0.32040       -2.73610        7.20110
C         -0.87850       -3.53150        8.37240
C         -2.51210       -2.24260        6.12700
C         -3.70580       -2.58040        6.78770
C          0.35720       -0.96490        3.38530
C          0.08230       -1.52490        2.15360
S         -1.30950       -2.57470        2.25110
C          0.75580       -1.22290        0.91070
C          1.36510        0.01830        0.79150
C          2.00860        0.41380       -0.36920
C          2.05660       -0.38420       -1.50170
C          1.44060       -1.66950       -1.42530
C          0.81700       -2.10190       -0.21440
C          0.32930       -3.42360       -0.19960
C          0.38660       -4.20140       -1.32530
C          0.96400       -3.65360       -2.47490
N          1.48440       -2.45970       -2.51200
C          2.72280        0.15110       -2.66360
C          2.75910       -0.35570       -3.90700
C          3.39240        0.30910       -5.02870
C          2.74820        0.30420       -6.25270
C          3.22420        1.02860       -7.33940
C          4.37820        1.78260       -7.25870
C          5.11870        1.74340       -6.04090
C          4.63800        0.99260       -4.93080
C          5.47840        0.91330       -3.80200
C          6.65580        1.61230       -3.77770
C          6.99740        2.37930       -4.90050
N          6.27830        2.42740       -5.98550
C          4.88360        2.59780       -8.34970
C          4.23150        2.91050       -9.46490
H          2.67510        4.65560       -7.45780
H          0.49210        3.53180       -7.72910
H         -0.53060        2.34040       -5.85860
H          4.60770        5.22510       -6.00700
H          5.68060        5.08390       -3.75770
H          4.49220        3.84250       -1.95410
H          0.81110        2.36320       -2.38480
H         -0.69800        0.68770       -4.44160
H         -0.79710        1.93980       -0.94920
H         -2.18670        0.97000        0.78960
H         -0.72760       -1.39100       -4.41700
H         -1.80810       -3.60470       -4.61960
H         -3.31410       -4.36970       -2.77640
H         -3.60090       -0.62200        1.62510
H         -4.89340       -2.52290       -0.37970
H         -6.02910       -4.27350        0.94350
H         -7.02010       -5.06680        3.03690
H         -5.58210        0.46180        1.55530
H         -6.05390        1.93870        3.49630
H         -6.77190        0.89030        5.64800
H         -7.93250       -4.11040        5.70950
H         -6.12770       -3.90230        7.33990
H         -2.22810        0.18790        7.25460
H         -2.17660       -1.02630        8.53350
H          0.26360        0.51270        7.53990
H          0.20430       -0.54790        8.95260
H         -0.69000        0.96980        8.95470
H          0.63290       -2.28140        7.47440
H         -0.13310       -3.41280        6.36220
H         -0.19320       -4.33650        8.62690
H         -1.00400       -2.90310        9.25000
H         -1.84010       -3.96970        8.11580
H         -3.90940       -2.36420        7.82100
H          1.18160       -0.30320        3.57410
H          1.31620        0.71000        1.61800
H          2.46670        1.39220       -0.40380
H         -0.07420       -3.84350        0.70690
H          0.01390       -5.21360       -1.32450
H          1.02920       -4.22550       -3.39270
H          3.17850        1.11900       -2.49290
H          2.21730       -1.26470       -4.12230
H          1.82320       -0.24580       -6.35240
H          2.66610        1.00370       -8.26310
H          5.20010        0.27540       -2.97670
H          7.32080        1.56350       -2.92900
H          7.91570        2.95400       -4.91820
H          5.88020        2.98100       -8.18030
H          3.22800        2.57570       -9.66850
H          4.68450        3.52600      -10.22330
