
  xtb     03012222073D
 energy: -204.226828904507 gnorm: 0.000392490694 xtb: 6.4.1 (unknown)
114127  0     0  0            999 V2000
    8.4282   -0.9017   -1.6853 C   0  0  0  0  0  0  0  0  0  0  0  0
    9.0341   -2.1238   -1.5248 C   0  0  0  0  0  0  0  0  0  0  0  0
    8.4237   -3.2354   -1.1110 N   0  0  0  0  0  0  0  0  0  0  0  0
    7.1375   -3.2472   -0.8114 C   0  0  0  0  0  0  0  0  0  0  0  0
    6.3837   -2.0391   -0.9366 C   0  0  0  0  0  0  0  0  0  0  0  0
    7.0593   -0.8487   -1.3848 C   0  0  0  0  0  0  0  0  0  0  0  0
    6.2368    0.2006   -1.4556 N   0  0  0  0  0  0  0  0  0  0  0  0
    4.7684   -0.2663   -1.0044 S   0  0  0  0  0  0  0  0  0  0  0  0
    5.0942   -1.8130   -0.6972 N   0  0  0  0  0  0  0  0  0  0  0  0
    6.5918   -4.5020   -0.3727 C   0  0  0  0  0  0  0  0  0  0  0  0
    5.3036   -4.6917   -0.0206 C   0  0  0  0  0  0  0  0  0  0  0  0
    4.7385   -5.9294    0.4252 C   0  0  0  0  0  0  0  0  0  0  0  0
    3.3900   -5.9987    0.7657 C   0  0  0  0  0  0  0  0  0  0  0  0
    2.7524   -7.0733    1.1962 N   0  0  0  0  0  0  0  0  0  0  0  0
    3.3585   -8.2416    1.3538 C   0  0  0  0  0  0  0  0  0  0  0  0
    4.7483   -8.3239    1.0358 C   0  0  0  0  0  0  0  0  0  0  0  0
    5.4463   -7.1559    0.5677 C   0  0  0  0  0  0  0  0  0  0  0  0
    6.7280   -7.4169    0.3246 N   0  0  0  0  0  0  0  0  0  0  0  0
    7.0207   -8.9672    0.6505 S   0  0  0  0  0  0  0  0  0  0  0  0
    5.5375   -9.3884    1.1174 N   0  0  0  0  0  0  0  0  0  0  0  0
    2.6425   -9.3687    1.8284 C   0  0  0  0  0  0  0  0  0  0  0  0
    1.3286   -9.4203    2.1917 C   0  0  0  0  0  0  0  0  0  0  0  0
    0.3222   -8.4330    2.2153 C   0  0  0  0  0  0  0  0  0  0  0  0
    0.4726   -6.7593    1.7334 S   0  0  0  0  0  0  0  0  0  0  0  0
   -1.1892   -6.4897    2.1299 C   0  0  0  0  0  0  0  0  0  0  0  0
   -1.8963   -5.2747    2.0962 C   0  0  0  0  0  0  0  0  0  0  0  0
   -3.1451   -5.1986    2.7092 C   0  0  0  0  0  0  0  0  0  0  0  0
   -3.7415   -6.2500    3.2974 O   0  0  0  0  0  0  0  0  0  0  0  0
   -3.3076   -7.5807    2.9291 C   0  0  0  0  0  0  0  0  0  0  0  0
   -3.6763   -8.4624    4.1293 C   0  0  0  0  0  0  0  0  0  0  0  0
   -2.9258   -8.0557    5.3921 C   0  0  0  0  0  0  0  0  0  0  0  0
   -4.1170   -7.9582    1.6633 C   0  0  0  0  0  0  0  0  0  0  0  0
   -3.8219   -9.3381    1.0938 C   0  0  0  0  0  0  0  0  0  0  0  0
   -1.8348   -7.6253    2.6141 C   0  0  0  0  0  0  0  0  0  0  0  0
   -0.9737   -8.7098    2.6555 C   0  0  0  0  0  0  0  0  0  0  0  0
   -3.6784   -3.9052    2.7025 C   0  0  0  0  0  0  0  0  0  0  0  0
   -2.8564   -2.9920    2.0687 C   0  0  0  0  0  0  0  0  0  0  0  0
   -1.3956   -3.7410    1.4802 S   0  0  0  0  0  0  0  0  0  0  0  0
   -3.0859   -1.6093    1.8564 C   0  0  0  0  0  0  0  0  0  0  0  0
   -1.9961   -0.6687    0.8692 S   0  0  0  0  0  0  0  0  0  0  0  0
   -2.9487    0.7482    1.1271 C   0  0  0  0  0  0  0  0  0  0  0  0
   -2.7567    2.0348    0.5855 C   0  0  0  0  0  0  0  0  0  0  0  0
   -3.7529    2.9896    0.7786 C   0  0  0  0  0  0  0  0  0  0  0  0
   -4.8876    2.7610    1.4644 O   0  0  0  0  0  0  0  0  0  0  0  0
   -4.9580    1.6300    2.3545 C   0  0  0  0  0  0  0  0  0  0  0  0
   -4.4907    2.0885    3.7583 C   0  0  0  0  0  0  0  0  0  0  0  0
   -5.2996    3.2487    4.3248 C   0  0  0  0  0  0  0  0  0  0  0  0
   -6.4343    1.2046    2.3466 C   0  0  0  0  0  0  0  0  0  0  0  0
   -6.8561    0.6111    1.0074 C   0  0  0  0  0  0  0  0  0  0  0  0
   -4.0494    0.5008    1.9335 C   0  0  0  0  0  0  0  0  0  0  0  0
   -4.1191   -0.8303    2.3447 C   0  0  0  0  0  0  0  0  0  0  0  0
   -3.4806    4.1906    0.1192 C   0  0  0  0  0  0  0  0  0  0  0  0
   -2.2809    4.1665   -0.5678 C   0  0  0  0  0  0  0  0  0  0  0  0
   -1.4671    2.6360   -0.3933 S   0  0  0  0  0  0  0  0  0  0  0  0
   -1.6978    5.1945   -1.3652 C   0  0  0  0  0  0  0  0  0  0  0  0
   -2.2878    6.4367   -1.6081 C   0  0  0  0  0  0  0  0  0  0  0  0
   -1.7889    7.3864   -2.3774 N   0  0  0  0  0  0  0  0  0  0  0  0
   -0.6325    7.2498   -3.0151 C   0  0  0  0  0  0  0  0  0  0  0  0
    0.1038    6.0393   -2.8421 C   0  0  0  0  0  0  0  0  0  0  0  0
   -0.4474    5.0087   -2.0067 C   0  0  0  0  0  0  0  0  0  0  0  0
    0.3390    3.9384   -1.9380 N   0  0  0  0  0  0  0  0  0  0  0  0
    1.6489    4.1990   -2.8345 S   0  0  0  0  0  0  0  0  0  0  0  0
    1.2792    5.6777   -3.3526 N   0  0  0  0  0  0  0  0  0  0  0  0
   -0.2261    8.3427   -3.8451 C   0  0  0  0  0  0  0  0  0  0  0  0
    0.9009    8.3650   -4.5893 C   0  0  0  0  0  0  0  0  0  0  0  0
    1.3029    9.4450   -5.4393 C   0  0  0  0  0  0  0  0  0  0  0  0
    2.4800    9.3598   -6.1825 C   0  0  0  0  0  0  0  0  0  0  0  0
    2.9596   10.2773   -7.0110 N   0  0  0  0  0  0  0  0  0  0  0  0
    2.3207   11.4154   -7.2075 C   0  0  0  0  0  0  0  0  0  0  0  0
    1.1027   11.6540   -6.5149 C   0  0  0  0  0  0  0  0  0  0  0  0
    0.5829   10.6570   -5.6176 C   0  0  0  0  0  0  0  0  0  0  0  0
   -0.5620   11.0488   -5.0597 N   0  0  0  0  0  0  0  0  0  0  0  0
   -0.9377   12.5122   -5.6080 S   0  0  0  0  0  0  0  0  0  0  0  0
    0.3223   12.7319   -6.5791 N   0  0  0  0  0  0  0  0  0  0  0  0
    2.8564   12.4046   -8.1190 C   0  0  0  0  0  0  0  0  0  0  0  0
    3.9903   12.2331   -8.7939 C   0  0  0  0  0  0  0  0  0  0  0  0
    8.9578   -0.0263   -2.0209 H   0  0  0  0  0  0  0  0  0  0  0  0
   10.0881   -2.2477   -1.7367 H   0  0  0  0  0  0  0  0  0  0  0  0
    7.2988   -5.3179   -0.3359 H   0  0  0  0  0  0  0  0  0  0  0  0
    4.6159   -3.8578   -0.0660 H   0  0  0  0  0  0  0  0  0  0  0  0
    2.7696   -5.1147    0.6878 H   0  0  0  0  0  0  0  0  0  0  0  0
    3.2284  -10.2732    1.9078 H   0  0  0  0  0  0  0  0  0  0  0  0
    0.9741  -10.3863    2.5364 H   0  0  0  0  0  0  0  0  0  0  0  0
   -4.7499   -8.3633    4.2977 H   0  0  0  0  0  0  0  0  0  0  0  0
   -3.4602   -9.5018    3.8866 H   0  0  0  0  0  0  0  0  0  0  0  0
   -3.1423   -7.0190    5.6366 H   0  0  0  0  0  0  0  0  0  0  0  0
   -1.8520   -8.1611    5.2542 H   0  0  0  0  0  0  0  0  0  0  0  0
   -3.2322   -8.6810    6.2269 H   0  0  0  0  0  0  0  0  0  0  0  0
   -3.8977   -7.2031    0.9029 H   0  0  0  0  0  0  0  0  0  0  0  0
   -5.1769   -7.8781    1.9147 H   0  0  0  0  0  0  0  0  0  0  0  0
   -4.3972   -9.4841    0.1828 H   0  0  0  0  0  0  0  0  0  0  0  0
   -4.0963  -10.1212    1.7955 H   0  0  0  0  0  0  0  0  0  0  0  0
   -2.7670   -9.4386    0.8505 H   0  0  0  0  0  0  0  0  0  0  0  0
   -1.2531   -9.6918    2.9950 H   0  0  0  0  0  0  0  0  0  0  0  0
   -4.6274   -3.6572    3.1381 H   0  0  0  0  0  0  0  0  0  0  0  0
   -3.4438    2.3916    3.6676 H   0  0  0  0  0  0  0  0  0  0  0  0
   -4.5323    1.2312    4.4323 H   0  0  0  0  0  0  0  0  0  0  0  0
   -5.3702    4.0476    3.5910 H   0  0  0  0  0  0  0  0  0  0  0  0
   -4.8121    3.6377    5.2155 H   0  0  0  0  0  0  0  0  0  0  0  0
   -6.3031    2.9324    4.5959 H   0  0  0  0  0  0  0  0  0  0  0  0
   -6.6017    0.4870    3.1501 H   0  0  0  0  0  0  0  0  0  0  0  0
   -7.0340    2.0927    2.5438 H   0  0  0  0  0  0  0  0  0  0  0  0
   -7.9199    0.3875    1.0172 H   0  0  0  0  0  0  0  0  0  0  0  0
   -6.6594    1.3215    0.2082 H   0  0  0  0  0  0  0  0  0  0  0  0
   -6.3114   -0.3063    0.7963 H   0  0  0  0  0  0  0  0  0  0  0  0
   -4.8863   -1.2258    2.9839 H   0  0  0  0  0  0  0  0  0  0  0  0
   -4.1431    5.0349    0.1434 H   0  0  0  0  0  0  0  0  0  0  0  0
   -3.2385    6.6812   -1.1555 H   0  0  0  0  0  0  0  0  0  0  0  0
   -0.9055    9.1825   -3.8553 H   0  0  0  0  0  0  0  0  0  0  0  0
    1.5668    7.5127   -4.5665 H   0  0  0  0  0  0  0  0  0  0  0  0
    3.0890    8.4680   -6.1023 H   0  0  0  0  0  0  0  0  0  0  0  0
    2.2633   13.3033   -8.2151 H   0  0  0  0  0  0  0  0  0  0  0  0
    4.5594   11.3267   -8.6779 H   0  0  0  0  0  0  0  0  0  0  0  0
    4.3708   12.9811   -9.4675 H   0  0  0  0  0  0  0  0  0  0  0  0
  1  2  2  0  0  0  0
  2  3  1  0  0  0  0
  3  4  2  0  0  0  0
  4  5  1  0  0  0  0
  5  6  1  0  0  0  0
  6  7  2  0  0  0  0
  7  8  1  0  0  0  0
  8  9  1  0  0  0  0
  4 10  1  0  0  0  0
 10 11  2  0  0  0  0
 11 12  1  0  0  0  0
 12 13  2  0  0  0  0
 13 14  1  0  0  0  0
 14 15  2  0  0  0  0
 15 16  1  0  0  0  0
 16 17  1  0  0  0  0
 17 18  2  0  0  0  0
 18 19  1  0  0  0  0
 19 20  1  0  0  0  0
 15 21  1  0  0  0  0
 21 22  2  0  0  0  0
 22 23  1  0  0  0  0
 23 24  1  0  0  0  0
 24 25  1  0  0  0  0
 25 26  1  0  0  0  0
 26 27  2  0  0  0  0
 27 28  1  0  0  0  0
 28 29  1  0  0  0  0
 29 30  1  0  0  0  0
 30 31  1  0  0  0  0
 29 32  1  0  0  0  0
 32 33  1  0  0  0  0
 29 34  1  0  0  0  0
 34 35  1  0  0  0  0
 27 36  1  0  0  0  0
 36 37  2  0  0  0  0
 37 38  1  0  0  0  0
 37 39  1  0  0  0  0
 39 40  1  0  0  0  0
 40 41  1  0  0  0  0
 41 42  1  0  0  0  0
 42 43  2  0  0  0  0
 43 44  1  0  0  0  0
 44 45  1  0  0  0  0
 45 46  1  0  0  0  0
 46 47  1  0  0  0  0
 45 48  1  0  0  0  0
 48 49  1  0  0  0  0
 45 50  1  0  0  0  0
 50 51  1  0  0  0  0
 43 52  1  0  0  0  0
 52 53  2  0  0  0  0
 53 54  1  0  0  0  0
 53 55  1  0  0  0  0
 55 56  2  0  0  0  0
 56 57  1  0  0  0  0
 57 58  2  0  0  0  0
 58 59  1  0  0  0  0
 59 60  1  0  0  0  0
 60 61  2  0  0  0  0
 61 62  1  0  0  0  0
 62 63  1  0  0  0  0
 58 64  1  0  0  0  0
 64 65  2  0  0  0  0
 65 66  1  0  0  0  0
 66 67  2  0  0  0  0
 67 68  1  0  0  0  0
 68 69  2  0  0  0  0
 69 70  1  0  0  0  0
 70 71  1  0  0  0  0
 71 72  2  0  0  0  0
 72 73  1  0  0  0  0
 73 74  1  0  0  0  0
 69 75  1  0  0  0  0
 75 76  2  0  0  0  0
  6  1  1  0  0  0  0
 17 12  1  0  0  0  0
 35 23  2  0  0  0  0
 51 39  2  0  0  0  0
 60 55  1  0  0  0  0
 71 66  1  0  0  0  0
  9  5  2  0  0  0  0
 20 16  2  0  0  0  0
 34 25  2  0  0  0  0
 50 41  2  0  0  0  0
 63 59  2  0  0  0  0
 74 70  2  0  0  0  0
 38 26  1  0  0  0  0
 54 42  1  0  0  0  0
  1 77  1  0  0  0  0
  2 78  1  0  0  0  0
 10 79  1  0  0  0  0
 11 80  1  0  0  0  0
 13 81  1  0  0  0  0
 21 82  1  0  0  0  0
 22 83  1  0  0  0  0
 30 84  1  0  0  0  0
 30 85  1  0  0  0  0
 31 86  1  0  0  0  0
 31 87  1  0  0  0  0
 31 88  1  0  0  0  0
 32 89  1  0  0  0  0
 32 90  1  0  0  0  0
 33 91  1  0  0  0  0
 33 92  1  0  0  0  0
 33 93  1  0  0  0  0
 35 94  1  0  0  0  0
 36 95  1  0  0  0  0
 46 96  1  0  0  0  0
 46 97  1  0  0  0  0
 47 98  1  0  0  0  0
 47 99  1  0  0  0  0
 47100  1  0  0  0  0
 48101  1  0  0  0  0
 48102  1  0  0  0  0
 49103  1  0  0  0  0
 49104  1  0  0  0  0
 49105  1  0  0  0  0
 51106  1  0  0  0  0
 52107  1  0  0  0  0
 56108  1  0  0  0  0
 64109  1  0  0  0  0
 65110  1  0  0  0  0
 67111  1  0  0  0  0
 75112  1  0  0  0  0
 76113  1  0  0  0  0
 76114  1  0  0  0  0
M  END
