
  xtb     03012213023D
 energy: -348.201198463828 gnorm: 0.000507159842 xtb: 6.4.1 (unknown)
198219  0     0  0            999 V2000
   11.7855   -6.6905   16.8178 C   0  0  0  0  0  0  0  0  0  0  0  0
   11.0112   -7.0911   15.3329 S   0  0  0  0  0  0  0  0  0  0  0  0
   11.0941   -5.4394   14.8287 C   0  0  0  0  0  0  0  0  0  0  0  0
   10.6020   -4.8525   13.6354 C   0  0  0  0  0  0  0  0  0  0  0  0
   10.6021   -3.4693   13.5353 C   0  0  0  0  0  0  0  0  0  0  0  0
   11.0345   -2.6469   14.5094 O   0  0  0  0  0  0  0  0  0  0  0  0
   11.9228   -3.1655   15.5153 C   0  0  0  0  0  0  0  0  0  0  0  0
   11.6673   -2.3572   16.8091 C   0  0  0  0  0  0  0  0  0  0  0  0
   11.1161   -0.9528   16.5866 C   0  0  0  0  0  0  0  0  0  0  0  0
   13.3765   -3.0451   14.9947 C   0  0  0  0  0  0  0  0  0  0  0  0
   13.8132   -1.6267   14.6542 C   0  0  0  0  0  0  0  0  0  0  0  0
   11.6840   -4.6354   15.7792 C   0  0  0  0  0  0  0  0  0  0  0  0
   12.0824   -5.3666   16.9163 C   0  0  0  0  0  0  0  0  0  0  0  0
   10.0356   -3.0111   12.3365 C   0  0  0  0  0  0  0  0  0  0  0  0
    9.6148   -4.0366   11.5209 C   0  0  0  0  0  0  0  0  0  0  0  0
    9.9189   -5.5978   12.2365 S   0  0  0  0  0  0  0  0  0  0  0  0
    8.9908   -3.9417   10.2476 C   0  0  0  0  0  0  0  0  0  0  0  0
    8.5598   -4.9635    9.4516 C   0  0  0  0  0  0  0  0  0  0  0  0
    7.9423   -4.5290    8.2556 C   0  0  0  0  0  0  0  0  0  0  0  0
    7.3547   -5.3129    7.2459 C   0  0  0  0  0  0  0  0  0  0  0  0
    7.2397   -6.7541    7.3900 C   0  0  0  0  0  0  0  0  0  0  0  0
    7.8003   -7.8455    6.1591 S   0  0  0  0  0  0  0  0  0  0  0  0
    7.3110   -9.2388    7.0621 C   0  0  0  0  0  0  0  0  0  0  0  0
    7.4736  -10.6114    6.5091 C   0  0  0  0  0  0  0  0  0  0  0  0
    6.3377  -10.9452    5.5392 C   0  0  0  0  0  0  0  0  0  0  0  0
    6.7365   -8.8629    8.2392 C   0  0  0  0  0  0  0  0  0  0  0  0
    6.1145   -9.9658    9.3974 Cl  0  0  0  0  0  0  0  0  0  0  0  0
    6.6990   -7.4559    8.4318 C   0  0  0  0  0  0  0  0  0  0  0  0
    5.9667   -6.7329    9.8057 Cl  0  0  0  0  0  0  0  0  0  0  0  0
    6.8673   -4.6449    6.1327 C   0  0  0  0  0  0  0  0  0  0  0  0
    6.8922   -3.2343    6.0049 C   0  0  0  0  0  0  0  0  0  0  0  0
    7.4213   -2.4472    7.0441 C   0  0  0  0  0  0  0  0  0  0  0  0
    7.3869   -0.9960    6.9772 C   0  0  0  0  0  0  0  0  0  0  0  0
    8.8195   -0.0388    7.2072 S   0  0  0  0  0  0  0  0  0  0  0  0
    7.9568    1.4452    6.9927 C   0  0  0  0  0  0  0  0  0  0  0  0
    8.6559    2.7597    7.0194 C   0  0  0  0  0  0  0  0  0  0  0  0
    9.0926    3.1766    5.6126 C   0  0  0  0  0  0  0  0  0  0  0  0
    6.6383    1.1968    6.7526 C   0  0  0  0  0  0  0  0  0  0  0  0
    6.3101   -0.1850    6.7469 C   0  0  0  0  0  0  0  0  0  0  0  0
    4.7012   -0.7505    6.5508 Cl  0  0  0  0  0  0  0  0  0  0  0  0
    5.4676    2.4241    6.4935 Cl  0  0  0  0  0  0  0  0  0  0  0  0
    7.9548   -3.1179    8.1352 C   0  0  0  0  0  0  0  0  0  0  0  0
    8.6737   -2.3702    9.5344 S   0  0  0  0  0  0  0  0  0  0  0  0
    6.3393   -2.8043    4.7758 C   0  0  0  0  0  0  0  0  0  0  0  0
    5.8684   -3.8244    4.0001 C   0  0  0  0  0  0  0  0  0  0  0  0
    6.1160   -5.3922    4.7508 S   0  0  0  0  0  0  0  0  0  0  0  0
    5.2088   -3.7338    2.7463 C   0  0  0  0  0  0  0  0  0  0  0  0
    4.8104   -2.1792    2.0597 S   0  0  0  0  0  0  0  0  0  0  0  0
    4.0553   -2.9499    0.7105 C   0  0  0  0  0  0  0  0  0  0  0  0
    3.3070   -2.3509   -0.3261 C   0  0  0  0  0  0  0  0  0  0  0  0
    2.5073   -3.1680   -1.1177 C   0  0  0  0  0  0  0  0  0  0  0  0
    2.4700   -4.5066   -0.9971 O   0  0  0  0  0  0  0  0  0  0  0  0
    3.5849   -5.1643   -0.3548 C   0  0  0  0  0  0  0  0  0  0  0  0
    4.6915   -5.3216   -1.4234 C   0  0  0  0  0  0  0  0  0  0  0  0
    5.9118   -6.1016   -0.9560 C   0  0  0  0  0  0  0  0  0  0  0  0
    3.0254   -6.5012    0.1543 C   0  0  0  0  0  0  0  0  0  0  0  0
    2.4341   -7.3725   -0.9475 C   0  0  0  0  0  0  0  0  0  0  0  0
    4.1209   -4.3330    0.7868 C   0  0  0  0  0  0  0  0  0  0  0  0
    4.7701   -4.7663    1.9450 C   0  0  0  0  0  0  0  0  0  0  0  0
    1.6865   -2.4458   -1.9926 C   0  0  0  0  0  0  0  0  0  0  0  0
    1.8628   -1.0826   -1.8891 C   0  0  0  0  0  0  0  0  0  0  0  0
    3.0698   -0.6778   -0.6945 S   0  0  0  0  0  0  0  0  0  0  0  0
    1.1713   -0.0602   -2.5847 C   0  0  0  0  0  0  0  0  0  0  0  0
   -0.1575   -0.4494   -3.6494 S   0  0  0  0  0  0  0  0  0  0  0  0
   -0.4295    1.2304   -3.9541 C   0  0  0  0  0  0  0  0  0  0  0  0
   -1.4701    1.8248   -4.7008 C   0  0  0  0  0  0  0  0  0  0  0  0
   -1.6446    3.2013   -4.6144 C   0  0  0  0  0  0  0  0  0  0  0  0
   -0.8495    4.0130   -3.8976 O   0  0  0  0  0  0  0  0  0  0  0  0
    0.4428    3.5355   -3.4719 C   0  0  0  0  0  0  0  0  0  0  0  0
    0.7356    4.2857   -2.1642 C   0  0  0  0  0  0  0  0  0  0  0  0
   -0.1982    3.8636   -1.0355 C   0  0  0  0  0  0  0  0  0  0  0  0
    1.4725    3.8656   -4.5801 C   0  0  0  0  0  0  0  0  0  0  0  0
    1.5521    5.3484   -4.9213 C   0  0  0  0  0  0  0  0  0  0  0  0
    0.4658    2.0394   -3.2751 C   0  0  0  0  0  0  0  0  0  0  0  0
    1.3706    1.3030   -2.5080 C   0  0  0  0  0  0  0  0  0  0  0  0
   -2.7903    3.6460   -5.2878 C   0  0  0  0  0  0  0  0  0  0  0  0
   -3.4828    2.6230   -5.8963 C   0  0  0  0  0  0  0  0  0  0  0  0
   -2.7071    1.0804   -5.6503 S   0  0  0  0  0  0  0  0  0  0  0  0
   -4.7035    2.7042   -6.6178 C   0  0  0  0  0  0  0  0  0  0  0  0
   -5.3758    1.6915   -7.2404 C   0  0  0  0  0  0  0  0  0  0  0  0
   -6.5995    2.0967   -7.8212 C   0  0  0  0  0  0  0  0  0  0  0  0
   -7.5500    1.2996   -8.4855 C   0  0  0  0  0  0  0  0  0  0  0  0
   -7.2631   -0.0853   -8.8127 C   0  0  0  0  0  0  0  0  0  0  0  0
   -8.3636   -1.3728   -8.4219 S   0  0  0  0  0  0  0  0  0  0  0  0
   -7.3344   -2.5711   -9.1259 C   0  0  0  0  0  0  0  0  0  0  0  0
   -7.6851   -4.0176   -9.0878 C   0  0  0  0  0  0  0  0  0  0  0  0
   -7.0893   -4.6932   -7.8502 C   0  0  0  0  0  0  0  0  0  0  0  0
   -6.2055   -1.9932   -9.6264 C   0  0  0  0  0  0  0  0  0  0  0  0
   -4.9522   -2.8666  -10.4077 Cl  0  0  0  0  0  0  0  0  0  0  0  0
   -6.1621   -0.5848   -9.4543 C   0  0  0  0  0  0  0  0  0  0  0  0
   -4.8854    0.3808  -10.0735 Cl  0  0  0  0  0  0  0  0  0  0  0  0
   -8.7564    1.9014   -8.8135 C   0  0  0  0  0  0  0  0  0  0  0  0
   -9.0311    3.2696   -8.5682 C   0  0  0  0  0  0  0  0  0  0  0  0
   -8.0476    4.0859   -7.9792 C   0  0  0  0  0  0  0  0  0  0  0  0
   -8.2690    5.5031   -7.7440 C   0  0  0  0  0  0  0  0  0  0  0  0
   -9.6469    6.0768   -6.8501 S   0  0  0  0  0  0  0  0  0  0  0  0
   -9.1496    7.7291   -6.9855 C   0  0  0  0  0  0  0  0  0  0  0  0
   -9.9193    8.8276   -6.3391 C   0  0  0  0  0  0  0  0  0  0  0  0
   -9.4177    9.0784   -4.9148 C   0  0  0  0  0  0  0  0  0  0  0  0
   -7.9806    7.8140   -7.6800 C   0  0  0  0  0  0  0  0  0  0  0  0
   -7.4801    6.5569   -8.1136 C   0  0  0  0  0  0  0  0  0  0  0  0
   -6.0692    6.4128   -9.0751 Cl  0  0  0  0  0  0  0  0  0  0  0  0
   -7.1795    9.2921   -8.0216 Cl  0  0  0  0  0  0  0  0  0  0  0  0
   -6.8594    3.4726   -7.6051 C   0  0  0  0  0  0  0  0  0  0  0  0
   -5.5572    4.2310   -6.7337 S   0  0  0  0  0  0  0  0  0  0  0  0
  -10.3240    3.6369   -9.0084 C   0  0  0  0  0  0  0  0  0  0  0  0
  -11.0293    2.6037   -9.5600 C   0  0  0  0  0  0  0  0  0  0  0  0
  -10.1021    1.1168   -9.5884 S   0  0  0  0  0  0  0  0  0  0  0  0
  -12.3632    2.6280  -10.0552 C   0  0  0  0  0  0  0  0  0  0  0  0
  -13.0700    1.2207  -10.8043 S   0  0  0  0  0  0  0  0  0  0  0  0
  -14.5598    2.0608  -11.0301 C   0  0  0  0  0  0  0  0  0  0  0  0
  -15.7487    1.5977  -11.6463 C   0  0  0  0  0  0  0  0  0  0  0  0
  -16.7702    2.5023  -11.8745 C   0  0  0  0  0  0  0  0  0  0  0  0
  -16.7090    3.8069  -11.5508 O   0  0  0  0  0  0  0  0  0  0  0  0
  -15.7309    4.2432  -10.5855 C   0  0  0  0  0  0  0  0  0  0  0  0
  -15.3815    5.6836  -10.9897 C   0  0  0  0  0  0  0  0  0  0  0  0
  -14.6188    5.7423  -12.3081 C   0  0  0  0  0  0  0  0  0  0  0  0
  -16.3743    4.1718   -9.1787 C   0  0  0  0  0  0  0  0  0  0  0  0
  -17.6478    4.9975   -9.0447 C   0  0  0  0  0  0  0  0  0  0  0  0
  -14.5059    3.3602  -10.5610 C   0  0  0  0  0  0  0  0  0  0  0  0
  -13.2615    3.6733  -10.0056 C   0  0  0  0  0  0  0  0  0  0  0  0
  -17.8704    1.9204  -12.5431 C   0  0  0  0  0  0  0  0  0  0  0  0
  -17.6724    0.5991  -12.7971 C   0  0  0  0  0  0  0  0  0  0  0  0
  -16.1516    0.0230  -12.2385 S   0  0  0  0  0  0  0  0  0  0  0  0
   11.9774   -7.4665   17.5310 H   0  0  0  0  0  0  0  0  0  0  0  0
   10.9441   -2.9088   17.4149 H   0  0  0  0  0  0  0  0  0  0  0  0
   12.6017   -2.3048   17.3696 H   0  0  0  0  0  0  0  0  0  0  0  0
   11.7938   -0.3443   15.9979 H   0  0  0  0  0  0  0  0  0  0  0  0
   10.1637   -1.0000   16.0669 H   0  0  0  0  0  0  0  0  0  0  0  0
   10.9627   -0.4717   17.5502 H   0  0  0  0  0  0  0  0  0  0  0  0
   13.4449   -3.6638   14.0947 H   0  0  0  0  0  0  0  0  0  0  0  0
   14.0434   -3.4763   15.7438 H   0  0  0  0  0  0  0  0  0  0  0  0
   13.0836   -1.1583   13.9984 H   0  0  0  0  0  0  0  0  0  0  0  0
   14.7729   -1.6509   14.1426 H   0  0  0  0  0  0  0  0  0  0  0  0
   13.9222   -1.0248   15.5522 H   0  0  0  0  0  0  0  0  0  0  0  0
   12.5708   -4.9332   17.7699 H   0  0  0  0  0  0  0  0  0  0  0  0
    9.9331   -1.9726   12.0808 H   0  0  0  0  0  0  0  0  0  0  0  0
    8.6923   -5.9965    9.7179 H   0  0  0  0  0  0  0  0  0  0  0  0
    7.4722  -11.3239    7.3357 H   0  0  0  0  0  0  0  0  0  0  0  0
    8.4291  -10.6818    5.9865 H   0  0  0  0  0  0  0  0  0  0  0  0
    5.3795  -10.8934    6.0499 H   0  0  0  0  0  0  0  0  0  0  0  0
    6.3297  -10.2387    4.7127 H   0  0  0  0  0  0  0  0  0  0  0  0
    6.4675  -11.9483    5.1422 H   0  0  0  0  0  0  0  0  0  0  0  0
    9.5307    2.6889    7.6674 H   0  0  0  0  0  0  0  0  0  0  0  0
    7.9765    3.5115    7.4264 H   0  0  0  0  0  0  0  0  0  0  0  0
    9.7721    2.4379    5.1943 H   0  0  0  0  0  0  0  0  0  0  0  0
    8.2273    3.2627    4.9602 H   0  0  0  0  0  0  0  0  0  0  0  0
    9.5992    4.1373    5.6484 H   0  0  0  0  0  0  0  0  0  0  0  0
    6.2941   -1.7765    4.4649 H   0  0  0  0  0  0  0  0  0  0  0  0
    4.2498   -5.8008   -2.2982 H   0  0  0  0  0  0  0  0  0  0  0  0
    4.9992   -4.3149   -1.7214 H   0  0  0  0  0  0  0  0  0  0  0  0
    5.6586   -7.1362   -0.7415 H   0  0  0  0  0  0  0  0  0  0  0  0
    6.6707   -6.0928   -1.7348 H   0  0  0  0  0  0  0  0  0  0  0  0
    6.3369   -5.6541   -0.0605 H   0  0  0  0  0  0  0  0  0  0  0  0
    3.8165   -7.0433    0.6704 H   0  0  0  0  0  0  0  0  0  0  0  0
    2.2454   -6.2665    0.8819 H   0  0  0  0  0  0  0  0  0  0  0  0
    1.9277   -8.2274   -0.5055 H   0  0  0  0  0  0  0  0  0  0  0  0
    3.2079   -7.7438   -1.6142 H   0  0  0  0  0  0  0  0  0  0  0  0
    1.7135   -6.8036   -1.5277 H   0  0  0  0  0  0  0  0  0  0  0  0
    4.9272   -5.7944    2.2170 H   0  0  0  0  0  0  0  0  0  0  0  0
    0.9842   -2.9009   -2.6662 H   0  0  0  0  0  0  0  0  0  0  0  0
    0.5976    5.3493   -2.3565 H   0  0  0  0  0  0  0  0  0  0  0  0
    1.7746    4.1153   -1.8819 H   0  0  0  0  0  0  0  0  0  0  0  0
   -0.0047    4.4616   -0.1487 H   0  0  0  0  0  0  0  0  0  0  0  0
   -0.0585    2.8153   -0.7817 H   0  0  0  0  0  0  0  0  0  0  0  0
   -1.2330    4.0125   -1.3344 H   0  0  0  0  0  0  0  0  0  0  0  0
    1.1770    3.3078   -5.4734 H   0  0  0  0  0  0  0  0  0  0  0  0
    2.4489    3.4950   -4.2634 H   0  0  0  0  0  0  0  0  0  0  0  0
    0.5554    5.7446   -5.0994 H   0  0  0  0  0  0  0  0  0  0  0  0
    2.1465    5.4881   -5.8210 H   0  0  0  0  0  0  0  0  0  0  0  0
    2.0147    5.9122   -4.1159 H   0  0  0  0  0  0  0  0  0  0  0  0
    2.1513    1.7289   -1.9038 H   0  0  0  0  0  0  0  0  0  0  0  0
   -3.1048    4.6729   -5.3197 H   0  0  0  0  0  0  0  0  0  0  0  0
   -5.0122    0.6800   -7.2507 H   0  0  0  0  0  0  0  0  0  0  0  0
   -7.2931   -4.4975   -9.9870 H   0  0  0  0  0  0  0  0  0  0  0  0
   -8.7707   -4.1254   -9.0772 H   0  0  0  0  0  0  0  0  0  0  0  0
   -7.4702   -4.2268   -6.9449 H   0  0  0  0  0  0  0  0  0  0  0  0
   -7.3524   -5.7474   -7.8379 H   0  0  0  0  0  0  0  0  0  0  0  0
   -6.0060   -4.6042   -7.8581 H   0  0  0  0  0  0  0  0  0  0  0  0
   -9.7996    9.7366   -6.9321 H   0  0  0  0  0  0  0  0  0  0  0  0
  -10.9773    8.5623   -6.3119 H   0  0  0  0  0  0  0  0  0  0  0  0
   -8.3670    9.3562   -4.9303 H   0  0  0  0  0  0  0  0  0  0  0  0
   -9.9847    9.8833   -4.4552 H   0  0  0  0  0  0  0  0  0  0  0  0
   -9.5312    8.1810   -4.3113 H   0  0  0  0  0  0  0  0  0  0  0  0
  -10.7168    4.6321   -8.9182 H   0  0  0  0  0  0  0  0  0  0  0  0
  -16.3166    6.2326  -11.0976 H   0  0  0  0  0  0  0  0  0  0  0  0
  -14.7980    6.1444  -10.1924 H   0  0  0  0  0  0  0  0  0  0  0  0
  -14.4452    6.7770  -12.5932 H   0  0  0  0  0  0  0  0  0  0  0  0
  -15.1961    5.2595  -13.0928 H   0  0  0  0  0  0  0  0  0  0  0  0
  -13.6576    5.2398  -12.2269 H   0  0  0  0  0  0  0  0  0  0  0  0
  -16.6058    3.1212   -8.9819 H   0  0  0  0  0  0  0  0  0  0  0  0
  -15.6337    4.4926   -8.4443 H   0  0  0  0  0  0  0  0  0  0  0  0
  -18.1449    4.7603   -8.1072 H   0  0  0  0  0  0  0  0  0  0  0  0
  -17.4285    6.0616   -9.0547 H   0  0  0  0  0  0  0  0  0  0  0  0
  -18.3262    4.7721   -9.8637 H   0  0  0  0  0  0  0  0  0  0  0  0
  -13.0184    4.6247   -9.5703 H   0  0  0  0  0  0  0  0  0  0  0  0
  -18.7534    2.4678  -12.8148 H   0  0  0  0  0  0  0  0  0  0  0  0
  -18.3414   -0.0842  -13.2803 H   0  0  0  0  0  0  0  0  0  0  0  0
  1  2  1  0  0  0  0
  2  3  1  0  0  0  0
  3  4  1  0  0  0  0
  4  5  2  0  0  0  0
  5  6  1  0  0  0  0
  6  7  1  0  0  0  0
  7  8  1  0  0  0  0
  8  9  1  0  0  0  0
  7 10  1  0  0  0  0
 10 11  1  0  0  0  0
  7 12  1  0  0  0  0
 12 13  1  0  0  0  0
  5 14  1  0  0  0  0
 14 15  2  0  0  0  0
 15 16  1  0  0  0  0
 15 17  1  0  0  0  0
 17 18  2  0  0  0  0
 18 19  1  0  0  0  0
 19 20  2  0  0  0  0
 20 21  1  0  0  0  0
 21 22  1  0  0  0  0
 22 23  1  0  0  0  0
 23 24  1  0  0  0  0
 24 25  1  0  0  0  0
 23 26  2  0  0  0  0
 26 27  1  0  0  0  0
 26 28  1  0  0  0  0
 28 29  1  0  0  0  0
 20 30  1  0  0  0  0
 30 31  2  0  0  0  0
 31 32  1  0  0  0  0
 32 33  1  0  0  0  0
 33 34  1  0  0  0  0
 34 35  1  0  0  0  0
 35 36  1  0  0  0  0
 36 37  1  0  0  0  0
 35 38  2  0  0  0  0
 38 39  1  0  0  0  0
 39 40  1  0  0  0  0
 38 41  1  0  0  0  0
 32 42  2  0  0  0  0
 42 43  1  0  0  0  0
 31 44  1  0  0  0  0
 44 45  2  0  0  0  0
 45 46  1  0  0  0  0
 45 47  1  0  0  0  0
 47 48  1  0  0  0  0
 48 49  1  0  0  0  0
 49 50  1  0  0  0  0
 50 51  2  0  0  0  0
 51 52  1  0  0  0  0
 52 53  1  0  0  0  0
 53 54  1  0  0  0  0
 54 55  1  0  0  0  0
 53 56  1  0  0  0  0
 56 57  1  0  0  0  0
 53 58  1  0  0  0  0
 58 59  1  0  0  0  0
 51 60  1  0  0  0  0
 60 61  2  0  0  0  0
 61 62  1  0  0  0  0
 61 63  1  0  0  0  0
 63 64  1  0  0  0  0
 64 65  1  0  0  0  0
 65 66  1  0  0  0  0
 66 67  2  0  0  0  0
 67 68  1  0  0  0  0
 68 69  1  0  0  0  0
 69 70  1  0  0  0  0
 70 71  1  0  0  0  0
 69 72  1  0  0  0  0
 72 73  1  0  0  0  0
 69 74  1  0  0  0  0
 74 75  1  0  0  0  0
 67 76  1  0  0  0  0
 76 77  2  0  0  0  0
 77 78  1  0  0  0  0
 77 79  1  0  0  0  0
 79 80  2  0  0  0  0
 80 81  1  0  0  0  0
 81 82  2  0  0  0  0
 82 83  1  0  0  0  0
 83 84  1  0  0  0  0
 84 85  1  0  0  0  0
 85 86  1  0  0  0  0
 86 87  1  0  0  0  0
 85 88  2  0  0  0  0
 88 89  1  0  0  0  0
 88 90  1  0  0  0  0
 90 91  1  0  0  0  0
 82 92  1  0  0  0  0
 92 93  2  0  0  0  0
 93 94  1  0  0  0  0
 94 95  1  0  0  0  0
 95 96  1  0  0  0  0
 96 97  1  0  0  0  0
 97 98  1  0  0  0  0
 98 99  1  0  0  0  0
 97100  2  0  0  0  0
100101  1  0  0  0  0
101102  1  0  0  0  0
100103  1  0  0  0  0
 94104  2  0  0  0  0
104105  1  0  0  0  0
 93106  1  0  0  0  0
106107  2  0  0  0  0
107108  1  0  0  0  0
107109  1  0  0  0  0
109110  1  0  0  0  0
110111  1  0  0  0  0
111112  1  0  0  0  0
112113  2  0  0  0  0
113114  1  0  0  0  0
114115  1  0  0  0  0
115116  1  0  0  0  0
116117  1  0  0  0  0
115118  1  0  0  0  0
118119  1  0  0  0  0
115120  1  0  0  0  0
120121  1  0  0  0  0
113122  1  0  0  0  0
122123  2  0  0  0  0
123124  1  0  0  0  0
 13  1  2  0  0  0  0
 43 17  1  0  0  0  0
 59 47  2  0  0  0  0
 75 63  2  0  0  0  0
105 79  1  0  0  0  0
121109  2  0  0  0  0
 12  3  2  0  0  0  0
 42 19  1  0  0  0  0
 58 49  2  0  0  0  0
 74 65  2  0  0  0  0
104 81  1  0  0  0  0
120111  2  0  0  0  0
 16  4  1  0  0  0  0
 28 21  2  0  0  0  0
 46 30  1  0  0  0  0
 62 50  1  0  0  0  0
 78 66  1  0  0  0  0
 90 83  2  0  0  0  0
108 92  1  0  0  0  0
124112  1  0  0  0  0
 39 33  2  0  0  0  0
101 95  2  0  0  0  0
  1125  1  0  0  0  0
  8126  1  0  0  0  0
  8127  1  0  0  0  0
  9128  1  0  0  0  0
  9129  1  0  0  0  0
  9130  1  0  0  0  0
 10131  1  0  0  0  0
 10132  1  0  0  0  0
 11133  1  0  0  0  0
 11134  1  0  0  0  0
 11135  1  0  0  0  0
 13136  1  0  0  0  0
 14137  1  0  0  0  0
 18138  1  0  0  0  0
 24139  1  0  0  0  0
 24140  1  0  0  0  0
 25141  1  0  0  0  0
 25142  1  0  0  0  0
 25143  1  0  0  0  0
 36144  1  0  0  0  0
 36145  1  0  0  0  0
 37146  1  0  0  0  0
 37147  1  0  0  0  0
 37148  1  0  0  0  0
 44149  1  0  0  0  0
 54150  1  0  0  0  0
 54151  1  0  0  0  0
 55152  1  0  0  0  0
 55153  1  0  0  0  0
 55154  1  0  0  0  0
 56155  1  0  0  0  0
 56156  1  0  0  0  0
 57157  1  0  0  0  0
 57158  1  0  0  0  0
 57159  1  0  0  0  0
 59160  1  0  0  0  0
 60161  1  0  0  0  0
 70162  1  0  0  0  0
 70163  1  0  0  0  0
 71164  1  0  0  0  0
 71165  1  0  0  0  0
 71166  1  0  0  0  0
 72167  1  0  0  0  0
 72168  1  0  0  0  0
 73169  1  0  0  0  0
 73170  1  0  0  0  0
 73171  1  0  0  0  0
 75172  1  0  0  0  0
 76173  1  0  0  0  0
 80174  1  0  0  0  0
 86175  1  0  0  0  0
 86176  1  0  0  0  0
 87177  1  0  0  0  0
 87178  1  0  0  0  0
 87179  1  0  0  0  0
 98180  1  0  0  0  0
 98181  1  0  0  0  0
 99182  1  0  0  0  0
 99183  1  0  0  0  0
 99184  1  0  0  0  0
106185  1  0  0  0  0
116186  1  0  0  0  0
116187  1  0  0  0  0
117188  1  0  0  0  0
117189  1  0  0  0  0
117190  1  0  0  0  0
118191  1  0  0  0  0
118192  1  0  0  0  0
119193  1  0  0  0  0
119194  1  0  0  0  0
119195  1  0  0  0  0
121196  1  0  0  0  0
122197  1  0  0  0  0
123198  1  0  0  0  0
M  END
