154

C         -0.50950       13.25180        9.44110
S         -0.13260       11.57550        9.35880
C         -1.74590       11.23030        8.84520
C         -2.27610        9.96020        8.51180
C         -3.63260        9.85640        8.26250
O         -4.47320       10.90410        8.35720
C         -3.94860       12.25470        8.23470
C         -5.03970       13.05280        8.98650
C         -4.71420       14.41850        9.57400
C         -3.92610       12.54230        6.71250
C         -3.54190       13.95560        6.30290
C         -2.53770       12.36080        8.77250
C         -1.79880       13.51900        9.10050
C         -4.03980        8.54760        7.96290
C         -2.99220        7.65460        7.95540
S         -1.47880        8.43630        8.34510
C         -3.01020        6.27600        7.61930
S         -4.53690        5.46500        7.27940
C         -3.68870        4.01030        6.89490
C         -3.89220        2.71310        6.42140
C         -2.61530        2.12920        6.28410
N         -1.65110        3.02500        6.66090
C         -0.23900        2.76550        6.75810
C          0.13010        2.18210        8.12100
C         -2.29440        4.17220        7.04250
C         -1.91870        5.45090        7.46120
C         -2.64250        0.84080        5.74380
C         -3.92830        0.42610        5.47840
S         -5.13970        1.62840        5.91730
C         -4.30610       -0.77860        4.82870
S         -3.08730       -1.69960        3.97830
C         -4.28690       -2.81400        3.43150
C         -4.12980       -3.83190        2.46740
C         -5.26900       -4.40410        1.91640
O         -6.51680       -4.10890        2.32860
C         -6.69100       -3.45450        3.60790
C         -6.70950       -4.57080        4.67810
C         -7.00020       -4.08450        6.09060
C         -8.01880       -2.69050        3.49200
C         -9.20810       -3.58180        3.15440
C         -5.55020       -2.50990        3.90860
C         -5.55380       -1.34660        4.68780
C         -4.98790       -5.23120        0.81990
C         -3.64160       -5.27990        0.51930
S         -2.69950       -4.32890        1.63710
C         -2.99790       -5.90620       -0.58030
S         -1.35510       -5.46450       -0.97730
C         -1.40880       -6.45070       -2.39190
C         -0.41290       -6.61820       -3.37600
C         -0.61410       -7.56240       -4.37390
O         -1.68580       -8.37950       -4.41190
C         -2.89250       -7.97230       -3.74130
C         -3.71820       -7.09410       -4.71420
C         -4.08970       -7.77720       -6.02340
C         -3.63030       -9.26070       -3.30660
C         -3.30630      -10.49400       -4.14270
C         -2.61600       -7.11360       -2.52570
C         -3.51380       -6.79520       -1.50230
C          0.43720       -7.61120       -5.29850
C          1.43210       -6.69290       -5.02440
S          1.07410       -5.76820       -3.58940
C          2.60580       -6.41310       -5.77110
S          3.66060       -5.10390       -5.29720
C          4.69140       -5.41530       -6.64670
C          5.81530       -4.67570       -7.07270
C          6.34030       -4.93060       -8.33280
O          5.85730       -5.87900       -9.15730
C          5.06560       -6.94700       -8.59070
C          6.07100       -8.02780       -8.12200
C          5.44600       -9.26350       -7.49060
C          4.18860       -7.44250       -9.74860
C          3.23000       -6.36580      -10.24380
C          4.24530       -6.47870       -7.41480
C          3.06550       -7.03640       -6.91490
C          7.37370       -4.05060       -8.68270
C          7.65090       -3.13090       -7.69540
S          6.62060       -3.35250       -6.30300
C          8.62350       -2.09770       -7.70650
S          9.64930       -1.87580       -9.12150
C         10.42460       -0.53740       -8.35840
C         11.41570        0.42540       -8.57200
C         11.46410        1.21910       -7.41190
N         10.55280        0.76200       -6.49650
C         10.23000        1.37160       -5.23350
C          9.13480        2.42650       -5.38170
C          9.90100       -0.29730       -7.07230
C          8.88140       -1.18390       -6.70900
C         12.42590        2.24640       -7.48270
C         13.08140        2.21770       -8.67360
S         12.56470        0.95540       -9.74630
H          0.25220       13.94630        9.73300
H         -5.36700       12.40590        9.80420
H         -5.88360       13.14880        8.30030
H         -4.34890       15.11200        8.82260
H         -3.98380       14.33660       10.37400
H         -5.62650       14.83500        9.99750
H         -4.91930       12.30330        6.32460
H         -3.22050       11.83550        6.26460
H         -2.56450       14.22210        6.69690
H         -4.27540       14.67710        6.65100
H         -3.49810       14.01660        5.21760
H         -2.18100       14.52040        9.07780
H         -5.05510        8.26990        7.74870
H          0.29310        3.70650        6.59550
H          0.03610        2.06710        5.96320
H         -0.14460        2.87470        8.91310
H          1.19950        1.99750        8.17170
H         -0.39590        1.24410        8.28310
H         -0.91150        5.78740        7.62880
H         -1.78350        0.22780        5.53850
H         -5.72830       -5.05400        4.65720
H         -7.44740       -5.31550        4.37630
H         -6.91290       -4.91450        6.78790
H         -8.00620       -3.68110        6.16840
H         -6.29220       -3.31390        6.38650
H         -7.89350       -1.94680        2.70190
H         -8.20560       -2.16200        4.42570
H         -9.45350       -4.24170        3.98230
H         -8.98580       -4.18480        2.27870
H        -10.07850       -2.96580        2.94130
H         -6.42510       -0.91110        5.14230
H         -5.74620       -5.73320        0.24970
H         -3.11470       -6.20820       -4.93380
H         -4.61750       -6.76070       -4.19320
H         -4.51770       -7.04900       -6.70880
H         -3.20450       -8.20770       -6.48470
H         -4.82260       -8.56250       -5.86060
H         -4.70320       -9.06550       -3.33350
H         -3.35600       -9.47390       -2.27050
H         -3.86460      -11.34490       -3.75810
H         -2.24570      -10.71990       -4.08500
H         -3.56620      -10.35000       -5.18580
H         -4.51020       -7.19050       -1.42990
H          0.45640       -8.28410       -6.13450
H          6.67230       -8.31490       -8.98730
H          6.73870       -7.55400       -7.39670
H          6.23190       -9.93040       -7.14440
H          4.83470       -9.80560       -8.20710
H          4.82850       -8.99240       -6.63760
H          4.85240       -7.73840      -10.56240
H          3.62940       -8.31870       -9.42380
H          2.65040       -6.73900      -11.08450
H          3.78820       -5.49110      -10.56750
H          2.54410       -6.06570       -9.45460
H          2.55170       -7.86690       -7.36170
H          7.89250       -4.08180       -9.62280
H         11.13920        1.82720       -4.83170
H          9.90260        0.58530       -4.54770
H          9.45610        3.20940       -6.06490
H          8.91210        2.87260       -4.41640
H          8.22830        1.97380       -5.77640
H          8.34300       -1.17730       -5.77840
H         12.62500        2.96560       -6.70910
H         13.85890        2.87680       -9.00500
