
  xtb     03032208083D
 energy: -213.596572322137 gnorm: 0.000460966916 xtb: 6.4.1 (unknown)
138151  0     0  0            999 V2000
    1.9340   -7.4916    3.3180 C   0  0  0  0  0  0  0  0  0  0  0  0
    2.0851   -6.8179    4.8774 S   0  0  0  0  0  0  0  0  0  0  0  0
    0.9438   -7.9259    5.5648 C   0  0  0  0  0  0  0  0  0  0  0  0
    0.4802   -8.8045    4.5798 C   0  0  0  0  0  0  0  0  0  0  0  0
    1.0402   -8.5395    3.2871 C   0  0  0  0  0  0  0  0  0  0  0  0
    0.6501   -9.3212    2.1740 C   0  0  0  0  0  0  0  0  0  0  0  0
   -0.2598  -10.3250    2.3312 C   0  0  0  0  0  0  0  0  0  0  0  0
   -0.7039  -11.1745    1.1801 C   0  0  0  0  0  0  0  0  0  0  0  0
   -0.8094  -10.5799    3.6156 C   0  0  0  0  0  0  0  0  0  0  0  0
   -0.4612   -9.8476    4.7099 C   0  0  0  0  0  0  0  0  0  0  0  0
    0.6655   -8.0253    6.9591 C   0  0  0  0  0  0  0  0  0  0  0  0
    0.7218   -7.1004    7.9465 C   0  0  0  0  0  0  0  0  0  0  0  0
    0.8594   -5.6831    7.9007 C   0  0  0  0  0  0  0  0  0  0  0  0
    0.5717   -4.6966    6.4905 S   0  0  0  0  0  0  0  0  0  0  0  0
    0.7780   -3.2540    7.4176 C   0  0  0  0  0  0  0  0  0  0  0  0
    0.7860   -1.9207    6.9587 C   0  0  0  0  0  0  0  0  0  0  0  0
    1.2415   -0.9266    7.8175 C   0  0  0  0  0  0  0  0  0  0  0  0
    1.6571   -1.1745    9.0762 O   0  0  0  0  0  0  0  0  0  0  0  0
    1.1752   -2.3715    9.7265 C   0  0  0  0  0  0  0  0  0  0  0  0
   -0.2259   -2.0365   10.2901 C   0  0  0  0  0  0  0  0  0  0  0  0
   -0.8636   -3.1469   11.1121 C   0  0  0  0  0  0  0  0  0  0  0  0
    2.2179   -2.6890   10.8093 C   0  0  0  0  0  0  0  0  0  0  0  0
    2.4287   -1.5556   11.8060 C   0  0  0  0  0  0  0  0  0  0  0  0
    1.0512   -3.5180    8.7501 C   0  0  0  0  0  0  0  0  0  0  0  0
    1.0846   -4.8887    9.0117 C   0  0  0  0  0  0  0  0  0  0  0  0
    1.2973    0.3345    7.2146 C   0  0  0  0  0  0  0  0  0  0  0  0
    0.8775    0.3172    5.8980 C   0  0  0  0  0  0  0  0  0  0  0  0
    0.4031   -1.2860    5.3987 S   0  0  0  0  0  0  0  0  0  0  0  0
    0.8068    1.4012    4.9879 C   0  0  0  0  0  0  0  0  0  0  0  0
    0.2777    1.1493    3.3428 S   0  0  0  0  0  0  0  0  0  0  0  0
    0.5201    2.8221    2.9857 C   0  0  0  0  0  0  0  0  0  0  0  0
    0.2524    3.5006    1.7822 C   0  0  0  0  0  0  0  0  0  0  0  0
    0.3096    4.8911    1.7700 C   0  0  0  0  0  0  0  0  0  0  0  0
    0.6155    5.6251    2.8588 O   0  0  0  0  0  0  0  0  0  0  0  0
    1.3422    4.9905    3.9345 C   0  0  0  0  0  0  0  0  0  0  0  0
    2.8427    5.1157    3.5698 C   0  0  0  0  0  0  0  0  0  0  0  0
    3.8123    4.5382    4.5907 C   0  0  0  0  0  0  0  0  0  0  0  0
    0.9841    5.8048    5.1853 C   0  0  0  0  0  0  0  0  0  0  0  0
   -0.5015    5.7219    5.5159 C   0  0  0  0  0  0  0  0  0  0  0  0
    0.9812    3.5338    4.0839 C   0  0  0  0  0  0  0  0  0  0  0  0
    1.1372    2.7257    5.2108 C   0  0  0  0  0  0  0  0  0  0  0  0
   -0.0423    5.4467    0.5375 C   0  0  0  0  0  0  0  0  0  0  0  0
   -0.3672    4.4948   -0.4152 C   0  0  0  0  0  0  0  0  0  0  0  0
   -0.2218    2.8757    0.2447 S   0  0  0  0  0  0  0  0  0  0  0  0
   -0.7354    4.6299   -1.7717 C   0  0  0  0  0  0  0  0  0  0  0  0
   -0.6292    3.2363   -2.7972 S   0  0  0  0  0  0  0  0  0  0  0  0
   -1.1800    4.0905   -4.2109 C   0  0  0  0  0  0  0  0  0  0  0  0
   -1.4252    5.4427   -3.8862 C   0  0  0  0  0  0  0  0  0  0  0  0
   -1.1987    5.7389   -2.5056 C   0  0  0  0  0  0  0  0  0  0  0  0
   -1.4843    7.0275   -2.0176 C   0  0  0  0  0  0  0  0  0  0  0  0
   -1.9144    8.0165   -2.8627 C   0  0  0  0  0  0  0  0  0  0  0  0
   -2.2250    9.3937   -2.3633 C   0  0  0  0  0  0  0  0  0  0  0  0
   -2.0619    7.7347   -4.2363 C   0  0  0  0  0  0  0  0  0  0  0  0
   -1.8349    6.4843   -4.7378 C   0  0  0  0  0  0  0  0  0  0  0  0
   -1.3059    3.3208   -5.3758 C   0  0  0  0  0  0  0  0  0  0  0  0
   -1.8173    3.6560   -6.6011 C   0  0  0  0  0  0  0  0  0  0  0  0
   -1.8933    2.7579   -7.6719 C   0  0  0  0  0  0  0  0  0  0  0  0
   -1.3089    1.1221   -7.5429 S   0  0  0  0  0  0  0  0  0  0  0  0
   -1.7625    0.7237   -9.1747 C   0  0  0  0  0  0  0  0  0  0  0  0
   -2.3504    1.8412   -9.8035 C   0  0  0  0  0  0  0  0  0  0  0  0
   -2.4250    2.9847   -8.9600 C   0  0  0  0  0  0  0  0  0  0  0  0
   -2.9924    4.1727   -9.4504 C   0  0  0  0  0  0  0  0  0  0  0  0
   -3.4718    4.2332  -10.7343 C   0  0  0  0  0  0  0  0  0  0  0  0
   -4.0849    5.4850  -11.2821 C   0  0  0  0  0  0  0  0  0  0  0  0
   -3.3909    3.0925  -11.5614 C   0  0  0  0  0  0  0  0  0  0  0  0
   -2.8459    1.9211  -11.1163 C   0  0  0  0  0  0  0  0  0  0  0  0
   -1.5457   -0.5506   -9.7098 C   0  0  0  0  0  0  0  0  0  0  0  0
   -0.9830   -1.5904   -9.0212 C   0  0  0  0  0  0  0  0  0  0  0  0
   -0.7612   -2.8749   -9.5326 C   0  0  0  0  0  0  0  0  0  0  0  0
   -1.1789   -3.3107  -11.1639 S   0  0  0  0  0  0  0  0  0  0  0  0
   -0.6205   -4.9401  -10.9757 C   0  0  0  0  0  0  0  0  0  0  0  0
   -0.1225   -5.1439   -9.6833 C   0  0  0  0  0  0  0  0  0  0  0  0
   -0.1994   -3.9793   -8.8626 C   0  0  0  0  0  0  0  0  0  0  0  0
    0.2608   -4.0279   -7.5353 C   0  0  0  0  0  0  0  0  0  0  0  0
    0.7828   -5.1882   -7.0269 C   0  0  0  0  0  0  0  0  0  0  0  0
    1.2823   -5.2710   -5.6178 C   0  0  0  0  0  0  0  0  0  0  0  0
    0.8561   -6.3376   -7.8479 C   0  0  0  0  0  0  0  0  0  0  0  0
    0.4195   -6.3277   -9.1395 C   0  0  0  0  0  0  0  0  0  0  0  0
   -0.6951   -5.8861  -12.0403 C   0  0  0  0  0  0  0  0  0  0  0  0
   -1.1851   -5.6386  -13.2581 C   0  0  0  0  0  0  0  0  0  0  0  0
    2.5027   -7.0833    2.5067 H   0  0  0  0  0  0  0  0  0  0  0  0
    1.0811   -9.1037    1.2075 H   0  0  0  0  0  0  0  0  0  0  0  0
   -1.7844  -11.1088    1.0565 H   0  0  0  0  0  0  0  0  0  0  0  0
   -0.4534  -12.2193    1.3623 H   0  0  0  0  0  0  0  0  0  0  0  0
   -0.2274  -10.8585    0.2555 H   0  0  0  0  0  0  0  0  0  0  0  0
   -1.5288  -11.3807    3.7111 H   0  0  0  0  0  0  0  0  0  0  0  0
   -0.9024  -10.0549    5.6733 H   0  0  0  0  0  0  0  0  0  0  0  0
    0.3902   -9.0280    7.2663 H   0  0  0  0  0  0  0  0  0  0  0  0
    0.5934   -7.4721    8.9570 H   0  0  0  0  0  0  0  0  0  0  0  0
   -0.8693   -1.8065    9.4357 H   0  0  0  0  0  0  0  0  0  0  0  0
   -0.1391   -1.1280   10.8881 H   0  0  0  0  0  0  0  0  0  0  0  0
   -0.2894   -3.3499   12.0121 H   0  0  0  0  0  0  0  0  0  0  0  0
   -1.8667   -2.8503   11.4095 H   0  0  0  0  0  0  0  0  0  0  0  0
   -0.9376   -4.0625   10.5300 H   0  0  0  0  0  0  0  0  0  0  0  0
    3.1601   -2.8940   10.2961 H   0  0  0  0  0  0  0  0  0  0  0  0
    1.9174   -3.5937   11.3359 H   0  0  0  0  0  0  0  0  0  0  0  0
    3.2743   -1.7864   12.4498 H   0  0  0  0  0  0  0  0  0  0  0  0
    2.6359   -0.6292   11.2781 H   0  0  0  0  0  0  0  0  0  0  0  0
    1.5525   -1.4144   12.4332 H   0  0  0  0  0  0  0  0  0  0  0  0
    1.2780   -5.3171    9.9788 H   0  0  0  0  0  0  0  0  0  0  0  0
    1.6391    1.2154    7.7237 H   0  0  0  0  0  0  0  0  0  0  0  0
    3.0541    6.1760    3.4147 H   0  0  0  0  0  0  0  0  0  0  0  0
    2.9848    4.6058    2.6125 H   0  0  0  0  0  0  0  0  0  0  0  0
    3.7538    5.0716    5.5358 H   0  0  0  0  0  0  0  0  0  0  0  0
    3.6066    3.4855    4.7684 H   0  0  0  0  0  0  0  0  0  0  0  0
    4.8288    4.6279    4.2150 H   0  0  0  0  0  0  0  0  0  0  0  0
    1.5726    5.4434    6.0271 H   0  0  0  0  0  0  0  0  0  0  0  0
    1.2565    6.8439    4.9938 H   0  0  0  0  0  0  0  0  0  0  0  0
   -0.7904    4.6970    5.7381 H   0  0  0  0  0  0  0  0  0  0  0  0
   -1.0905    6.0717    4.6720 H   0  0  0  0  0  0  0  0  0  0  0  0
   -0.7285    6.3421    6.3796 H   0  0  0  0  0  0  0  0  0  0  0  0
    1.4795    3.0774    6.1660 H   0  0  0  0  0  0  0  0  0  0  0  0
   -0.0120    6.5028    0.3549 H   0  0  0  0  0  0  0  0  0  0  0  0
   -1.3835    7.2304   -0.9643 H   0  0  0  0  0  0  0  0  0  0  0  0
   -3.2537    9.6601   -2.6035 H   0  0  0  0  0  0  0  0  0  0  0  0
   -1.5730   10.1242   -2.8417 H   0  0  0  0  0  0  0  0  0  0  0  0
   -2.0903    9.4595   -1.2868 H   0  0  0  0  0  0  0  0  0  0  0  0
   -2.3739    8.5302   -4.8976 H   0  0  0  0  0  0  0  0  0  0  0  0
   -1.9600    6.3040   -5.7919 H   0  0  0  0  0  0  0  0  0  0  0  0
   -0.9671    2.2960   -5.2649 H   0  0  0  0  0  0  0  0  0  0  0  0
   -2.2112    4.6424   -6.7837 H   0  0  0  0  0  0  0  0  0  0  0  0
   -3.0517    5.0408   -8.8107 H   0  0  0  0  0  0  0  0  0  0  0  0
   -5.1223    5.3051  -11.5629 H   0  0  0  0  0  0  0  0  0  0  0  0
   -4.0577    6.2878  -10.5497 H   0  0  0  0  0  0  0  0  0  0  0  0
   -3.5513    5.8084  -12.1752 H   0  0  0  0  0  0  0  0  0  0  0  0
   -3.7733    3.1591  -12.5698 H   0  0  0  0  0  0  0  0  0  0  0  0
   -2.7937    1.0596  -11.7642 H   0  0  0  0  0  0  0  0  0  0  0  0
   -1.8513   -0.7117  -10.7350 H   0  0  0  0  0  0  0  0  0  0  0  0
   -0.6832   -1.4209   -7.9954 H   0  0  0  0  0  0  0  0  0  0  0  0
    0.1996   -3.1447   -6.9172 H   0  0  0  0  0  0  0  0  0  0  0  0
    1.1410   -4.3277   -5.0967 H   0  0  0  0  0  0  0  0  0  0  0  0
    0.7537   -6.0532   -5.0739 H   0  0  0  0  0  0  0  0  0  0  0  0
    2.3434   -5.5193   -5.6075 H   0  0  0  0  0  0  0  0  0  0  0  0
    1.2717   -7.2425   -7.4278 H   0  0  0  0  0  0  0  0  0  0  0  0
    0.4856   -7.2175   -9.7469 H   0  0  0  0  0  0  0  0  0  0  0  0
   -0.3165   -6.8725  -11.8068 H   0  0  0  0  0  0  0  0  0  0  0  0
   -1.2142   -6.3978  -14.0187 H   0  0  0  0  0  0  0  0  0  0  0  0
   -1.5700   -4.6677  -13.5221 H   0  0  0  0  0  0  0  0  0  0  0  0
  1  2  1  0  0  0  0
  2  3  1  0  0  0  0
  3  4  2  0  0  0  0
  4  5  1  0  0  0  0
  5  6  1  0  0  0  0
  6  7  2  0  0  0  0
  7  8  1  0  0  0  0
  7  9  1  0  0  0  0
  9 10  2  0  0  0  0
  3 11  1  0  0  0  0
 11 12  2  0  0  0  0
 12 13  1  0  0  0  0
 13 14  1  0  0  0  0
 14 15  1  0  0  0  0
 15 16  1  0  0  0  0
 16 17  2  0  0  0  0
 17 18  1  0  0  0  0
 18 19  1  0  0  0  0
 19 20  1  0  0  0  0
 20 21  1  0  0  0  0
 19 22  1  0  0  0  0
 22 23  1  0  0  0  0
 19 24  1  0  0  0  0
 24 25  1  0  0  0  0
 17 26  1  0  0  0  0
 26 27  2  0  0  0  0
 27 28  1  0  0  0  0
 27 29  1  0  0  0  0
 29 30  1  0  0  0  0
 30 31  1  0  0  0  0
 31 32  1  0  0  0  0
 32 33  2  0  0  0  0
 33 34  1  0  0  0  0
 34 35  1  0  0  0  0
 35 36  1  0  0  0  0
 36 37  1  0  0  0  0
 35 38  1  0  0  0  0
 38 39  1  0  0  0  0
 35 40  1  0  0  0  0
 40 41  1  0  0  0  0
 33 42  1  0  0  0  0
 42 43  2  0  0  0  0
 43 44  1  0  0  0  0
 43 45  1  0  0  0  0
 45 46  1  0  0  0  0
 46 47  1  0  0  0  0
 47 48  2  0  0  0  0
 48 49  1  0  0  0  0
 49 50  1  0  0  0  0
 50 51  2  0  0  0  0
 51 52  1  0  0  0  0
 51 53  1  0  0  0  0
 53 54  2  0  0  0  0
 47 55  1  0  0  0  0
 55 56  2  0  0  0  0
 56 57  1  0  0  0  0
 57 58  1  0  0  0  0
 58 59  1  0  0  0  0
 59 60  2  0  0  0  0
 60 61  1  0  0  0  0
 61 62  1  0  0  0  0
 62 63  2  0  0  0  0
 63 64  1  0  0  0  0
 63 65  1  0  0  0  0
 65 66  2  0  0  0  0
 59 67  1  0  0  0  0
 67 68  2  0  0  0  0
 68 69  1  0  0  0  0
 69 70  1  0  0  0  0
 70 71  1  0  0  0  0
 71 72  2  0  0  0  0
 72 73  1  0  0  0  0
 73 74  1  0  0  0  0
 74 75  2  0  0  0  0
 75 76  1  0  0  0  0
 75 77  1  0  0  0  0
 77 78  2  0  0  0  0
 71 79  1  0  0  0  0
 79 80  2  0  0  0  0
  5  1  2  0  0  0  0
 25 13  2  0  0  0  0
 41 29  2  0  0  0  0
 49 45  2  0  0  0  0
 61 57  2  0  0  0  0
 73 69  2  0  0  0  0
 10  4  1  0  0  0  0
 24 15  2  0  0  0  0
 40 31  2  0  0  0  0
 54 48  1  0  0  0  0
 66 60  1  0  0  0  0
 78 72  1  0  0  0  0
 28 16  1  0  0  0  0
 44 32  1  0  0  0  0
  1 81  1  0  0  0  0
  6 82  1  0  0  0  0
  8 83  1  0  0  0  0
  8 84  1  0  0  0  0
  8 85  1  0  0  0  0
  9 86  1  0  0  0  0
 10 87  1  0  0  0  0
 11 88  1  0  0  0  0
 12 89  1  0  0  0  0
 20 90  1  0  0  0  0
 20 91  1  0  0  0  0
 21 92  1  0  0  0  0
 21 93  1  0  0  0  0
 21 94  1  0  0  0  0
 22 95  1  0  0  0  0
 22 96  1  0  0  0  0
 23 97  1  0  0  0  0
 23 98  1  0  0  0  0
 23 99  1  0  0  0  0
 25100  1  0  0  0  0
 26101  1  0  0  0  0
 36102  1  0  0  0  0
 36103  1  0  0  0  0
 37104  1  0  0  0  0
 37105  1  0  0  0  0
 37106  1  0  0  0  0
 38107  1  0  0  0  0
 38108  1  0  0  0  0
 39109  1  0  0  0  0
 39110  1  0  0  0  0
 39111  1  0  0  0  0
 41112  1  0  0  0  0
 42113  1  0  0  0  0
 50114  1  0  0  0  0
 52115  1  0  0  0  0
 52116  1  0  0  0  0
 52117  1  0  0  0  0
 53118  1  0  0  0  0
 54119  1  0  0  0  0
 55120  1  0  0  0  0
 56121  1  0  0  0  0
 62122  1  0  0  0  0
 64123  1  0  0  0  0
 64124  1  0  0  0  0
 64125  1  0  0  0  0
 65126  1  0  0  0  0
 66127  1  0  0  0  0
 67128  1  0  0  0  0
 68129  1  0  0  0  0
 74130  1  0  0  0  0
 76131  1  0  0  0  0
 76132  1  0  0  0  0
 76133  1  0  0  0  0
 77134  1  0  0  0  0
 78135  1  0  0  0  0
 79136  1  0  0  0  0
 80137  1  0  0  0  0
 80138  1  0  0  0  0
M  END
