165

C         -0.94930       10.77850       13.23470
S         -1.57240        9.20690       13.57090
C         -1.10520        8.67330       11.99790
C         -1.25690        7.39770       11.38940
C         -0.78670        7.23920       10.09600
Ge        -0.01280        8.94820        9.49550
C          1.97160        8.84120        9.21070
C          2.35120        8.05550        7.96550
C         -1.03870        9.74440        7.96070
C         -1.40910        8.70820        6.91000
C         -0.49840        9.67550       11.26280
C         -0.41610       10.87780       11.98650
C         -0.99470        5.94650        9.61420
C         -1.61610        5.11560       10.52270
S         -1.95840        5.95290       12.01900
C         -1.96460        3.74950       10.36360
S         -1.63150        2.91550        8.86500
C         -2.31550        1.45990        9.50070
C         -2.35500        0.18260        8.90030
C         -2.68370       -0.90930        9.69390
O         -2.99880       -0.80430       11.00110
C         -3.48020        0.47010       11.48230
C         -4.98860        0.53550       11.14660
C         -5.70330        1.76940       11.67830
C         -3.18360        0.46930       12.98990
C         -3.83370       -0.68790       13.73880
C         -2.77420        1.61700       10.79780
C         -2.56940        2.91400       11.27820
C         -2.57580       -2.13000        9.01790
C         -2.17730       -1.98200        7.70400
S         -1.93750       -0.30320        7.29510
C         -1.94660       -3.00380        6.74610
S         -1.48630       -2.61250        5.10730
C         -1.36620       -4.28730        4.71820
C         -0.97490       -4.90950        3.50770
C         -0.90760       -6.29680        3.48200
Ge        -1.46660       -6.98230        5.24190
C         -3.20000       -7.99100        5.17220
C         -3.76920       -8.26590        6.55510
C         -0.01140       -7.94750        6.23060
C          0.32020       -9.29330        5.60520
C         -1.67450       -5.10450        5.79940
C         -2.00350       -4.37250        6.93670
C         -0.46870       -6.78070        2.25180
C         -0.20330       -5.78430        1.33150
S         -0.51230       -4.20310        2.00410
C          0.29110       -5.93640        0.00720
S          0.29500       -4.60040       -1.11720
C          1.02920       -5.58950       -2.32350
C          1.42600       -5.26450       -3.64410
C          2.06220       -6.24700       -4.39160
Ge         2.16180       -7.88910       -3.30970
C          1.06200       -9.39500       -4.05160
C          1.65760       -9.97400       -5.32510
C          4.03810       -8.42540       -2.84280
C          4.08370       -9.52140       -1.79000
C          1.26100       -6.88380       -1.87560
C          0.83410       -7.07200       -0.56300
C          2.40880       -5.79990       -5.66480
C          2.03440       -4.49270       -5.90910
S          1.23980       -3.79170       -4.52130
C          2.22390       -3.74690       -7.10490
S          1.33950       -2.26980       -7.39660
C          2.09560       -2.09760       -8.93660
C          1.91690       -1.10190       -9.92820
C          2.66540       -1.20220      -11.09250
Ge         3.83230       -2.78270      -10.95360
C          5.76560       -2.28320      -10.76220
C          5.95970       -1.15940       -9.75630
C          3.47490       -4.20310      -12.32700
C          4.17240       -5.51480      -12.00350
C          2.99380       -3.12260       -9.20290
C          3.05630       -4.05020       -8.16510
C          2.38110       -0.17700      -11.99280
C          1.41910        0.70150      -11.53880
S          0.85380        0.25730       -9.94530
C          0.88030        1.83360      -12.20480
S          1.48980        2.31460      -13.77090
C          0.36790        3.62340      -13.82340
C          0.16320        4.60390      -14.83210
C         -0.82390        5.55070      -14.62730
Ge        -1.68090        5.19300      -12.88770
C         -1.37590        6.64190      -11.53240
C         -1.83000        6.24590      -10.13640
C         -3.58930        4.57440      -13.02840
C         -3.91680        3.46420      -12.04090
C         -0.43160        3.68280      -12.69360
C         -0.13320        2.66820      -11.78330
C         -0.91350        6.45300      -15.70150
C         -0.01380        6.18880      -16.68770
S          0.97780        4.82280      -16.33740
H         -1.01930       11.53490       13.99180
H          2.36560        9.85570        9.14980
H          2.40670        8.37530       10.09490
H          1.94830        7.04610        8.01270
H          3.43390        7.98790        7.87110
H          1.96250        8.53910        7.07170
H         -0.43810       10.53710        7.51540
H         -1.94150       10.20490        8.36120
H         -1.97050        9.17040        6.09950
H         -0.51970        8.24540        6.48860
H         -2.02270        7.92470        7.34950
H          0.02020       11.78200       11.59890
H         -0.70640        5.60750        8.63360
H         -5.45920       -0.36890       11.53510
H         -5.07750        0.50890       10.05650
H         -6.73540        1.76930       11.33550
H         -5.70700        1.78440       12.76480
H         -5.22490        2.67750       11.31890
H         -2.09910        0.40430       13.10320
H         -3.51070        1.41640       13.41650
H         -3.58930       -1.62920       13.25510
H         -3.46490       -0.71560       14.76150
H         -4.91460       -0.57890       13.77040
H         -2.84340        3.25790       12.25920
H         -2.77680       -3.07740        9.48040
H         -3.03550       -8.92690        4.63850
H         -3.90560       -7.40290        4.58590
H         -3.08100       -8.87040        7.14280
H         -4.71530       -8.79990        6.48200
H         -3.94260       -7.33290        7.08710
H         -0.32400       -8.07900        7.26630
H          0.87100       -7.30810        6.23650
H         -0.54910       -9.94790        5.61470
H          1.12320       -9.78430        6.15250
H          0.63810       -9.16430        4.57280
H         -2.26330       -4.81710        7.88090
H         -0.35430       -7.82620        2.02550
H          0.05920       -9.01500       -4.24520
H          0.97440      -10.16910       -3.28960
H          1.73460       -9.20600       -6.09170
H          1.03500      -10.78050       -5.70920
H          2.65370      -10.37120       -5.13940
H          4.54080       -8.75410       -3.75220
H          4.56140       -7.53900       -2.48500
H          3.57370      -10.41610       -2.14180
H          5.11320       -9.78590       -1.55420
H          3.59720       -9.18940       -0.87530
H          0.92940       -8.00150       -0.03000
H          2.90410       -6.40940       -6.40000
H          6.14480       -1.98520      -11.73950
H          6.32380       -3.16600      -10.45120
H          5.41740       -0.26910      -10.06910
H          5.58750       -1.45490       -8.77710
H          7.01390       -0.90450       -9.66130
H          3.80050       -3.83270      -13.29870
H          2.39700       -4.35430      -12.38000
H          5.25160       -5.37920      -11.97120
H          3.84640       -5.89040      -11.03600
H          3.94520       -6.26650      -12.75760
H          3.69810       -4.91380       -8.17060
H          2.84900       -0.06770      -12.95630
H         -0.31100        6.87410      -11.52890
H         -1.90390        7.53750      -11.85980
H         -1.61510        7.04050       -9.42360
H         -1.31630        5.34450       -9.80890
H         -2.90120        6.05570      -10.11970
H         -3.75600        4.22460      -14.04700
H         -4.24420        5.43020      -12.86640
H         -3.27400        2.60320      -12.21050
H         -3.77150        3.79870      -11.01630
H         -4.95250        3.14730      -12.15330
H         -0.63440        2.52870      -10.84040
H         -1.61710        7.26640      -15.74370
H          0.13650        6.71260      -17.61140
