226

C         -3.07060      -11.23450        9.33150
C         -3.28220       -9.94450        9.66240
C         -3.86690       -9.19180        8.60290
C         -4.17970       -7.82490        8.57440
C         -3.81650       -6.92370        9.65590
S         -4.96350       -5.81260       10.34140
C         -3.77280       -5.09560       11.37200
C         -4.10920       -3.92930       12.23330
C         -4.10840       -2.63760       11.41120
C         -2.56260       -5.69370       11.18500
Cl        -1.13250       -5.24750       12.02270
C         -2.58340       -6.73260       10.21580
Cl        -1.16650       -7.57860        9.74370
C         -4.79390       -7.34320        7.42520
C         -5.04570       -8.14550        6.28680
C         -4.69720       -9.50640        6.30100
C         -4.89310      -10.34860        5.13190
S         -4.21100       -9.91100        3.59210
C         -4.81240      -11.34330        2.82930
C         -4.51340      -11.63740        1.40090
C         -3.11260      -12.23450        1.24680
C         -5.49630      -12.10560        3.72810
C         -5.54730      -11.54440        5.03300
Cl        -6.42250      -12.27390        6.31260
Cl        -6.24360      -13.60140        3.34300
C         -4.12470       -9.99950        7.46830
S         -3.57670      -11.63100        7.72670
C         -5.63510       -7.39880        5.23450
C         -5.81790       -6.08400        5.54080
S         -5.27710       -5.69400        7.16160
C         -6.29360       -5.03130        4.70560
C         -6.49050       -3.73250        5.06950
C         -6.79620       -2.87850        3.98330
C         -6.95920       -1.48140        4.00140
C         -6.82610       -0.72180        5.23380
S         -8.06730        0.38550        5.73810
C         -7.20700        0.81780        7.17540
C         -7.73840        1.84560        8.11200
C         -7.38130        3.25410        7.63080
C         -6.02230        0.14690        7.23800
Cl        -4.89270        0.31400        8.51940
C         -5.80170       -0.72740        6.14010
Cl        -4.34340       -1.61630        5.95520
C         -7.19010       -0.85930        2.78220
C         -7.28090       -1.58000        1.56810
C         -7.16180       -2.98200        1.55320
C         -7.25510       -3.69050        0.28810
S         -5.97970       -4.71970       -0.29160
C         -6.77510       -4.97980       -1.80630
C         -6.13460       -5.76090       -2.90040
C         -5.41270       -4.82830       -3.87750
C         -7.96460       -4.31380       -1.84110
C         -8.24040       -3.58290       -0.65580
Cl        -9.69550       -2.70090       -0.42850
Cl        -9.03090       -4.33240       -3.18520
C         -6.88280       -3.59630        2.76320
S         -6.56730       -5.29300        2.99460
C         -7.32610       -0.72210        0.44750
C         -7.25450        0.60350        0.76590
S         -7.22310        0.86150        2.49770
C         -7.01260        1.64780       -0.17780
C         -6.61190        1.42880       -1.46420
C         -6.19120        2.59560       -2.13630
C         -5.59310        2.65940       -3.40970
C         -5.57070        1.48480       -4.25920
S         -4.10740        0.92510       -5.01620
C         -4.88610       -0.47590       -5.66750
C         -4.14620       -1.43950       -6.52780
C         -4.11830       -0.95870       -7.98080
C         -6.20680       -0.48570       -5.32970
Cl        -7.30480       -1.72390       -5.78680
C         -6.59960        0.62130       -4.53240
Cl        -8.22980        0.86370       -4.04770
C         -4.94850        3.84620       -3.72190
C         -5.00050        4.99480       -2.89290
C         -5.75580        4.97530       -1.70170
C         -5.91800        6.17530       -0.90670
S         -5.72660        6.17460        0.82210
C         -6.07740        7.86470        0.94150
C         -6.13580        8.54440        2.26460
C         -7.48170        8.28840        2.94720
C         -6.33850        8.38370       -0.29170
C         -6.24330        7.43330       -1.34190
Cl        -6.59850        7.83260       -2.97300
Cl        -6.74320       10.02810       -0.57320
C         -6.27170        3.74270       -1.31300
S         -6.96500        3.34710        0.23970
C         -4.09170        5.99460       -3.32260
C         -3.36130        5.63050       -4.41790
S         -3.86780        4.08010       -5.06290
C         -2.14970        6.20730       -4.90030
S         -0.98170        5.12920       -5.62270
C          0.21660        6.36470       -5.56560
C          1.61320        6.18600       -5.67910
C          2.43910        7.15590       -5.12390
O          1.98970        8.34270       -4.68610
C          0.65410        8.75660       -5.04300
C          0.22240        9.73360       -3.93670
C          1.15490       10.92580       -3.76450
C          0.65720        9.41830       -6.45300
C          2.03110        9.88010       -6.92930
C         -0.27910        7.56580       -5.08270
C         -1.62130        7.46420       -4.69740
C          3.75780        6.70750       -4.94620
C          3.93450        5.40200       -5.34700
S          2.47330        4.72720       -6.02170
C          5.04830        4.54600       -5.12840
C          5.07540        3.19340       -5.31790
C          6.23490        2.57100       -4.80380
C          6.51930        1.19420       -4.75330
C          5.62010        0.22730       -5.36340
S          5.19970        0.33570       -7.04800
C          4.17260       -1.05450       -6.96340
C          3.47430       -1.57540       -8.17080
C          4.38500       -2.50940       -8.97120
C          4.17390       -1.56570       -5.70060
Cl         3.26900       -2.94430       -5.22680
C          4.98810       -0.83990       -4.78950
Cl         5.07490       -1.23360       -3.12400
C          7.66530        0.81390       -4.07290
C          8.54910        1.74440       -3.46900
C          8.29260        3.12440       -3.57090
C          9.21790        4.09750       -3.01780
S          8.68520        5.36400       -1.95300
C         10.28490        6.00270       -1.78540
C         10.54210        7.22600       -0.97700
C         10.18760        8.48590       -1.77020
C         11.16650        5.27470       -2.52710
C         10.56730        4.19010       -3.22180
Cl        11.45650        3.16470       -4.27220
Cl        12.84610        5.61320       -2.62500
C          7.11790        3.50270       -4.20720
S          6.50890        5.13030       -4.35280
C          9.59010        1.09850       -2.76080
C          9.54020       -0.26410       -2.83540
S          8.20090       -0.82170       -3.82050
C         10.37440       -1.21260       -2.18560
S         11.75240       -0.70410       -1.24190
C         12.08880       -2.34380       -0.81620
C         13.10150       -2.84430        0.03880
C         13.04930       -4.17720        0.40740
O         12.09490       -5.03580        0.00750
C         11.31780       -4.71990       -1.16170
C          9.91620       -5.34400       -0.96310
C          9.87970       -6.54910       -0.02930
C         12.06140       -5.26790       -2.40430
C         12.30110       -6.77140       -2.38640
C         11.18030       -3.22740       -1.36780
C         10.21860       -2.58060       -2.14960
C         14.07650       -4.52960        1.31150
C         14.88650       -3.47600        1.59960
S         14.42900       -2.02900        0.79090
H         -2.64540      -12.00910        9.93920
H         -3.04810       -9.52830       10.62460
H         -5.09540       -4.07580       12.67720
H         -3.37070       -3.85730       13.03350
H         -4.35850       -1.79050       12.04420
H         -3.12730       -2.46830       10.97480
H         -4.83810       -2.70130       10.60730
H         -4.58060      -10.71620        0.81910
H         -5.25660      -12.34390        1.02710
H         -2.91000      -12.44680        0.20050
H         -3.03290      -13.15950        1.81210
H         -2.36330      -11.53700        1.61370
H         -5.91040       -7.81500        4.28240
H         -6.40340       -3.40200        6.08810
H         -7.30840        1.67540        9.10070
H         -8.82330        1.74930        8.17930
H         -7.77870        3.99550        8.31860
H         -6.30200        3.37120        7.57650
H         -7.79990        3.43190        6.64310
H         -6.90580       -6.31850       -3.43610
H         -5.42270       -6.46760       -2.47230
H         -4.63700       -4.26670       -3.36210
H         -4.95420       -5.40690       -4.67500
H         -6.11640       -4.12560       -4.31630
H         -7.35670       -1.08160       -0.56290
H         -6.52850        0.44900       -1.89310
H         -4.64020       -2.41120       -6.47140
H         -3.12410       -1.54280       -6.16020
H         -5.13050       -0.86520       -8.36600
H         -3.57440       -1.66780       -8.59870
H         -3.62990        0.01060       -8.04680
H         -5.99680        9.61650        2.11520
H         -5.33110        8.17090        2.90030
H         -8.29400        8.66920        2.33330
H         -7.51150        8.78610        3.91260
H         -7.62990        7.22170        3.09760
H         -3.90550        6.89910       -2.77370
H         -0.78410       10.08670       -4.16330
H          0.18540        9.17200       -3.00030
H          0.84920       11.50480       -2.89610
H          2.17470       10.58470       -3.61220
H          1.12370       11.57640       -4.63410
H          0.26420        8.70120       -7.17820
H         -0.02830       10.26630       -6.42970
H          2.68480        9.02980       -7.10930
H          1.92290       10.42840       -7.86240
H          2.50680       10.52560       -6.19780
H         -2.19860        8.26600       -4.27620
H          4.53440        7.29650       -4.49430
H          4.25900        2.65780       -5.76790
H          2.58320       -2.11900       -7.85120
H          3.16780       -0.73850       -8.80060
H          5.27610       -1.97860       -9.29750
H          4.68840       -3.35490       -8.35910
H          3.86020       -2.88270       -9.84640
H          9.94280        7.19150       -0.06540
H         11.59800        7.24870       -0.70210
H         10.37560        9.37140       -1.16900
H         10.78900        8.54360       -2.67390
H          9.13750        8.46940       -2.05190
H         10.33230        1.61610       -2.18080
H          9.25980       -4.57670       -0.54560
H          9.52360       -5.62120       -1.94230
H         10.50650       -7.35690       -0.39110
H          8.85630       -6.90980        0.04820
H         10.22410       -6.26920        0.96200
H         13.02620       -4.75380       -2.45180
H         11.49210       -4.98660       -3.29230
H         12.76520       -7.06570       -1.44840
H         12.96570       -7.04680       -3.20230
H         11.36960       -7.31710       -2.50830
H          9.42280       -3.07890       -2.67370
H         14.19240       -5.51700        1.71740
H         15.74300       -3.46280        2.24310
