
  xtb     02282221453D
 energy: -410.757683069372 gnorm: 0.000409302344 xtb: 6.4.1 (unknown)
254283  0     0  0            999 V2000
    4.0936   -8.4957    9.2920 C   0  0  0  0  0  0  0  0  0  0  0  0
    3.9934   -9.2662    8.1902 C   0  0  0  0  0  0  0  0  0  0  0  0
    3.0144   -8.7945    7.2662 C   0  0  0  0  0  0  0  0  0  0  0  0
    2.6312   -9.3489    6.0309 C   0  0  0  0  0  0  0  0  0  0  0  0
    3.2755  -10.5130    5.4555 C   0  0  0  0  0  0  0  0  0  0  0  0
    2.6924  -11.5373    4.7642 C   0  0  0  0  0  0  0  0  0  0  0  0
    3.6161  -12.4885    4.2878 C   0  0  0  0  0  0  0  0  0  0  0  0
    4.9073  -12.1955    4.6002 C   0  0  0  0  0  0  0  0  0  0  0  0
    6.1459  -12.9382    4.2341 C   0  0  0  0  0  0  0  0  0  0  0  0
    6.9245  -12.2112    3.1355 C   0  0  0  0  0  0  0  0  0  0  0  0
    5.0044  -10.7217    5.5067 S   0  0  0  0  0  0  0  0  0  0  0  0
    1.5997   -8.7023    5.3559 C   0  0  0  0  0  0  0  0  0  0  0  0
    0.9397   -7.5541    5.8547 C   0  0  0  0  0  0  0  0  0  0  0  0
    1.3348   -6.9919    7.0800 C   0  0  0  0  0  0  0  0  0  0  0  0
    0.7240   -5.7935    7.6260 C   0  0  0  0  0  0  0  0  0  0  0  0
    1.3514   -4.6769    8.0975 C   0  0  0  0  0  0  0  0  0  0  0  0
    0.4596   -3.6999    8.5845 C   0  0  0  0  0  0  0  0  0  0  0  0
   -0.8461   -4.0712    8.5015 C   0  0  0  0  0  0  0  0  0  0  0  0
   -2.0507   -3.3292    8.9679 C   0  0  0  0  0  0  0  0  0  0  0  0
   -2.4891   -3.8106   10.3530 C   0  0  0  0  0  0  0  0  0  0  0  0
   -1.0023   -5.6525    7.8050 S   0  0  0  0  0  0  0  0  0  0  0  0
    2.3722   -7.6309    7.7482 C   0  0  0  0  0  0  0  0  0  0  0  0
    3.0144   -7.1441    9.2942 S   0  0  0  0  0  0  0  0  0  0  0  0
   -0.0188   -7.0515    4.9388 C   0  0  0  0  0  0  0  0  0  0  0  0
   -0.0829   -7.7536    3.7739 C   0  0  0  0  0  0  0  0  0  0  0  0
    1.0130   -9.1219    3.7664 S   0  0  0  0  0  0  0  0  0  0  0  0
   -0.8514   -7.4363    2.6147 C   0  0  0  0  0  0  0  0  0  0  0  0
   -0.7036   -7.9230    1.3511 C   0  0  0  0  0  0  0  0  0  0  0  0
   -1.5273   -7.2814    0.3909 C   0  0  0  0  0  0  0  0  0  0  0  0
   -1.5481   -7.4891   -1.0034 C   0  0  0  0  0  0  0  0  0  0  0  0
   -0.7979   -8.5717   -1.6031 C   0  0  0  0  0  0  0  0  0  0  0  0
   -0.6571   -9.8503   -1.1385 C   0  0  0  0  0  0  0  0  0  0  0  0
    0.1368  -10.6620   -1.9717 C   0  0  0  0  0  0  0  0  0  0  0  0
    0.6144  -10.0095   -3.0665 C   0  0  0  0  0  0  0  0  0  0  0  0
    1.4549  -10.5428   -4.1748 C   0  0  0  0  0  0  0  0  0  0  0  0
    0.6445  -10.6831   -5.4649 C   0  0  0  0  0  0  0  0  0  0  0  0
    0.0708   -8.3645   -3.0976 S   0  0  0  0  0  0  0  0  0  0  0  0
   -2.3029   -6.5890   -1.7485 C   0  0  0  0  0  0  0  0  0  0  0  0
   -3.1192   -5.5921   -1.1615 C   0  0  0  0  0  0  0  0  0  0  0  0
   -3.1699   -5.4425    0.2392 C   0  0  0  0  0  0  0  0  0  0  0  0
   -4.0270   -4.4653    0.8781 C   0  0  0  0  0  0  0  0  0  0  0  0
   -3.7656   -3.6859    1.9702 C   0  0  0  0  0  0  0  0  0  0  0  0
   -4.8469   -2.8640    2.3429 C   0  0  0  0  0  0  0  0  0  0  0  0
   -5.9441   -3.0190    1.5532 C   0  0  0  0  0  0  0  0  0  0  0  0
   -7.2411   -2.2885    1.6057 C   0  0  0  0  0  0  0  0  0  0  0  0
   -7.2966   -1.1989    0.5328 C   0  0  0  0  0  0  0  0  0  0  0  0
   -5.6519   -4.1890    0.3104 S   0  0  0  0  0  0  0  0  0  0  0  0
   -2.3249   -6.2677    0.9741 C   0  0  0  0  0  0  0  0  0  0  0  0
   -2.0711   -6.1816    2.6974 S   0  0  0  0  0  0  0  0  0  0  0  0
   -3.7170   -4.7602   -2.1390 C   0  0  0  0  0  0  0  0  0  0  0  0
   -3.3758   -5.0842   -3.4193 C   0  0  0  0  0  0  0  0  0  0  0  0
   -2.3436   -6.4928   -3.4898 S   0  0  0  0  0  0  0  0  0  0  0  0
   -3.6263   -4.2664   -4.5662 C   0  0  0  0  0  0  0  0  0  0  0  0
   -4.5855   -3.3063   -4.6951 C   0  0  0  0  0  0  0  0  0  0  0  0
   -4.3603   -2.4184   -5.7755 C   0  0  0  0  0  0  0  0  0  0  0  0
   -5.0903   -1.2604   -6.1076 C   0  0  0  0  0  0  0  0  0  0  0  0
   -6.3314   -0.8551   -5.4799 C   0  0  0  0  0  0  0  0  0  0  0  0
   -7.3751   -0.2228   -6.0972 C   0  0  0  0  0  0  0  0  0  0  0  0
   -8.4068    0.1529   -5.2159 C   0  0  0  0  0  0  0  0  0  0  0  0
   -8.1592   -0.1776   -3.9201 C   0  0  0  0  0  0  0  0  0  0  0  0
   -8.9834    0.1251   -2.7169 C   0  0  0  0  0  0  0  0  0  0  0  0
   -8.4209    1.3322   -1.9624 C   0  0  0  0  0  0  0  0  0  0  0  0
   -6.6318   -0.9844   -3.7688 S   0  0  0  0  0  0  0  0  0  0  0  0
   -4.4927   -0.4119   -7.0335 C   0  0  0  0  0  0  0  0  0  0  0  0
   -3.2742   -0.6959   -7.6907 C   0  0  0  0  0  0  0  0  0  0  0  0
   -2.6465   -1.9460   -7.5014 C   0  0  0  0  0  0  0  0  0  0  0  0
   -1.4757   -2.3187   -8.2632 C   0  0  0  0  0  0  0  0  0  0  0  0
   -0.3862   -3.0569   -7.8907 C   0  0  0  0  0  0  0  0  0  0  0  0
    0.5505   -3.2328   -8.9269 C   0  0  0  0  0  0  0  0  0  0  0  0
    0.1819   -2.6493  -10.1003 C   0  0  0  0  0  0  0  0  0  0  0  0
    0.9364   -2.5824  -11.3830 C   0  0  0  0  0  0  0  0  0  0  0  0
    1.5578   -1.1977  -11.5816 C   0  0  0  0  0  0  0  0  0  0  0  0
   -1.3456   -1.8512   -9.9400 S   0  0  0  0  0  0  0  0  0  0  0  0
   -3.1863   -2.7496   -6.4991 C   0  0  0  0  0  0  0  0  0  0  0  0
   -2.4577   -4.2033   -5.8678 S   0  0  0  0  0  0  0  0  0  0  0  0
   -2.7153    0.4648   -8.2866 C   0  0  0  0  0  0  0  0  0  0  0  0
   -3.4525    1.5940   -8.0812 C   0  0  0  0  0  0  0  0  0  0  0  0
   -4.9874    1.2391   -7.3025 S   0  0  0  0  0  0  0  0  0  0  0  0
   -2.9868    2.9416   -8.0669 C   0  0  0  0  0  0  0  0  0  0  0  0
   -3.5857    3.9598   -7.3838 C   0  0  0  0  0  0  0  0  0  0  0  0
   -2.6992    4.9977   -7.0174 C   0  0  0  0  0  0  0  0  0  0  0  0
   -2.9408    6.0216   -6.0830 C   0  0  0  0  0  0  0  0  0  0  0  0
   -4.2207    6.2594   -5.4447 C   0  0  0  0  0  0  0  0  0  0  0  0
   -4.7439    7.4657   -5.0719 C   0  0  0  0  0  0  0  0  0  0  0  0
   -5.9550    7.3560   -4.3595 C   0  0  0  0  0  0  0  0  0  0  0  0
   -6.3521    6.0702   -4.1608 C   0  0  0  0  0  0  0  0  0  0  0  0
   -7.5672    5.5634   -3.4620 C   0  0  0  0  0  0  0  0  0  0  0  0
   -8.4761    4.7767   -4.4077 C   0  0  0  0  0  0  0  0  0  0  0  0
   -5.2328    4.9590   -4.8780 S   0  0  0  0  0  0  0  0  0  0  0  0
   -1.8153    6.6966   -5.6253 C   0  0  0  0  0  0  0  0  0  0  0  0
   -0.5072    6.4730   -6.1102 C   0  0  0  0  0  0  0  0  0  0  0  0
   -0.2991    5.5778   -7.1866 C   0  0  0  0  0  0  0  0  0  0  0  0
    1.0044    5.4588   -7.7921 C   0  0  0  0  0  0  0  0  0  0  0  0
    1.9334    6.4564   -7.9388 C   0  0  0  0  0  0  0  0  0  0  0  0
    3.1021    6.0402   -8.6012 C   0  0  0  0  0  0  0  0  0  0  0  0
    3.0781    4.7289   -8.9678 C   0  0  0  0  0  0  0  0  0  0  0  0
    4.1363    3.9347   -9.6524 C   0  0  0  0  0  0  0  0  0  0  0  0
    4.7832    2.9288   -8.6981 C   0  0  0  0  0  0  0  0  0  0  0  0
    1.5890    3.9777   -8.4966 S   0  0  0  0  0  0  0  0  0  0  0  0
   -1.3973    4.7970   -7.5421 C   0  0  0  0  0  0  0  0  0  0  0  0
   -1.3329    3.3359   -8.5000 S   0  0  0  0  0  0  0  0  0  0  0  0
    0.4760    6.9831   -5.2186 C   0  0  0  0  0  0  0  0  0  0  0  0
   -0.0498    7.5335   -4.0867 C   0  0  0  0  0  0  0  0  0  0  0  0
   -1.8006    7.6543   -4.1692 S   0  0  0  0  0  0  0  0  0  0  0  0
    0.5575    7.6661   -2.8003 C   0  0  0  0  0  0  0  0  0  0  0  0
   -0.1315    7.4776   -1.6391 C   0  0  0  0  0  0  0  0  0  0  0  0
    0.6880    7.2119   -0.5187 C   0  0  0  0  0  0  0  0  0  0  0  0
    0.2632    6.6932    0.7200 C   0  0  0  0  0  0  0  0  0  0  0  0
   -1.1434    6.5962    1.0528 C   0  0  0  0  0  0  0  0  0  0  0  0
   -1.8143    5.5663    1.6508 C   0  0  0  0  0  0  0  0  0  0  0  0
   -3.1988    5.7964    1.7728 C   0  0  0  0  0  0  0  0  0  0  0  0
   -3.5942    7.0050    1.2881 C   0  0  0  0  0  0  0  0  0  0  0  0
   -4.9736    7.5540    1.1646 C   0  0  0  0  0  0  0  0  0  0  0  0
   -5.4857    7.4133   -0.2721 C   0  0  0  0  0  0  0  0  0  0  0  0
   -2.2437    7.8937    0.6689 S   0  0  0  0  0  0  0  0  0  0  0  0
    1.2657    6.1882    1.5387 C   0  0  0  0  0  0  0  0  0  0  0  0
    2.6494    6.2956    1.2480 C   0  0  0  0  0  0  0  0  0  0  0  0
    3.0717    6.8901    0.0395 C   0  0  0  0  0  0  0  0  0  0  0  0
    4.4593    7.0478   -0.3423 C   0  0  0  0  0  0  0  0  0  0  0  0
    4.9941    8.0847   -1.0571 C   0  0  0  0  0  0  0  0  0  0  0  0
    6.3687    7.9348   -1.3216 C   0  0  0  0  0  0  0  0  0  0  0  0
    6.8939    6.7825   -0.8238 C   0  0  0  0  0  0  0  0  0  0  0  0
    8.2862    6.2665   -0.9428 C   0  0  0  0  0  0  0  0  0  0  0  0
    8.3723    5.1381   -1.9730 C   0  0  0  0  0  0  0  0  0  0  0  0
    5.6829    5.8558   -0.0018 S   0  0  0  0  0  0  0  0  0  0  0  0
    2.0620    7.2746   -0.8413 C   0  0  0  0  0  0  0  0  0  0  0  0
    2.2886    7.6834   -2.5306 S   0  0  0  0  0  0  0  0  0  0  0  0
    3.4409    5.6621    2.2437 C   0  0  0  0  0  0  0  0  0  0  0  0
    2.7104    5.0264    3.2005 C   0  0  0  0  0  0  0  0  0  0  0  0
    0.9902    5.2826    2.9992 S   0  0  0  0  0  0  0  0  0  0  0  0
    3.1430    4.0832    4.1854 C   0  0  0  0  0  0  0  0  0  0  0  0
    2.4108    3.0196    4.6182 C   0  0  0  0  0  0  0  0  0  0  0  0
    3.1210    2.1470    5.4787 C   0  0  0  0  0  0  0  0  0  0  0  0
    2.6918    0.9075    5.9929 C   0  0  0  0  0  0  0  0  0  0  0  0
    1.4887    0.2820    5.4897 C   0  0  0  0  0  0  0  0  0  0  0  0
    1.0425    0.2979    4.1947 C   0  0  0  0  0  0  0  0  0  0  0  0
   -0.1292   -0.4539    3.9971 C   0  0  0  0  0  0  0  0  0  0  0  0
   -0.5886   -1.0456    5.1337 C   0  0  0  0  0  0  0  0  0  0  0  0
   -1.7394   -1.9790    5.2754 C   0  0  0  0  0  0  0  0  0  0  0  0
   -1.2798   -3.4165    5.0245 C   0  0  0  0  0  0  0  0  0  0  0  0
    0.4385   -0.6897    6.4819 S   0  0  0  0  0  0  0  0  0  0  0  0
    3.5395    0.3023    6.9165 C   0  0  0  0  0  0  0  0  0  0  0  0
    4.8069    0.8269    7.2599 C   0  0  0  0  0  0  0  0  0  0  0  0
    5.2891    1.9942    6.6379 C   0  0  0  0  0  0  0  0  0  0  0  0
    6.6385    2.4664    6.8756 C   0  0  0  0  0  0  0  0  0  0  0  0
    7.7862    1.7284    6.9489 C   0  0  0  0  0  0  0  0  0  0  0  0
    8.9355    2.5077    7.1876 C   0  0  0  0  0  0  0  0  0  0  0  0
    8.6732    3.8382    7.2996 C   0  0  0  0  0  0  0  0  0  0  0  0
    9.6208    4.9498    7.5932 C   0  0  0  0  0  0  0  0  0  0  0  0
    9.4594    5.4516    9.0297 C   0  0  0  0  0  0  0  0  0  0  0  0
    6.9810    4.1577    7.1036 S   0  0  0  0  0  0  0  0  0  0  0  0
    4.4126    2.6419    5.7740 C   0  0  0  0  0  0  0  0  0  0  0  0
    4.7532    4.0980    4.8686 S   0  0  0  0  0  0  0  0  0  0  0  0
    5.4550    0.0251    8.2460 C   0  0  0  0  0  0  0  0  0  0  0  0
    4.7358   -1.0584    8.6004 C   0  0  0  0  0  0  0  0  0  0  0  0
    3.2255   -1.1868    7.7675 S   0  0  0  0  0  0  0  0  0  0  0  0
    4.7473   -8.6309   10.1314 H   0  0  0  0  0  0  0  0  0  0  0  0
    4.5837  -10.1500    8.0348 H   0  0  0  0  0  0  0  0  0  0  0  0
    1.6296  -11.6260    4.6291 H   0  0  0  0  0  0  0  0  0  0  0  0
    3.3292  -13.3645    3.7332 H   0  0  0  0  0  0  0  0  0  0  0  0
    6.7853  -13.0456    5.1140 H   0  0  0  0  0  0  0  0  0  0  0  0
    5.8672  -13.9362    3.8890 H   0  0  0  0  0  0  0  0  0  0  0  0
    7.8206  -12.7691    2.8753 H   0  0  0  0  0  0  0  0  0  0  0  0
    7.2171  -11.2201    3.4751 H   0  0  0  0  0  0  0  0  0  0  0  0
    6.3096  -12.1031    2.2448 H   0  0  0  0  0  0  0  0  0  0  0  0
    2.4178   -4.5438    8.0661 H   0  0  0  0  0  0  0  0  0  0  0  0
    0.7805   -2.7482    8.9684 H   0  0  0  0  0  0  0  0  0  0  0  0
   -2.8722   -3.4767    8.2629 H   0  0  0  0  0  0  0  0  0  0  0  0
   -1.8119   -2.2640    9.0090 H   0  0  0  0  0  0  0  0  0  0  0  0
   -1.6879   -3.6649   11.0736 H   0  0  0  0  0  0  0  0  0  0  0  0
   -3.3637   -3.2576   10.6867 H   0  0  0  0  0  0  0  0  0  0  0  0
   -2.7373   -4.8693   10.3219 H   0  0  0  0  0  0  0  0  0  0  0  0
   -0.6150   -6.1759    5.1180 H   0  0  0  0  0  0  0  0  0  0  0  0
    0.0226   -8.6769    1.1060 H   0  0  0  0  0  0  0  0  0  0  0  0
   -1.1436  -10.2093   -0.2490 H   0  0  0  0  0  0  0  0  0  0  0  0
    0.3473  -11.6963   -1.7630 H   0  0  0  0  0  0  0  0  0  0  0  0
    2.2974   -9.8700   -4.3539 H   0  0  0  0  0  0  0  0  0  0  0  0
    1.8512  -11.5166   -3.8789 H   0  0  0  0  0  0  0  0  0  0  0  0
    1.2694  -11.0759   -6.2631 H   0  0  0  0  0  0  0  0  0  0  0  0
    0.2549   -9.7147   -5.7703 H   0  0  0  0  0  0  0  0  0  0  0  0
   -0.1935  -11.3597   -5.3131 H   0  0  0  0  0  0  0  0  0  0  0  0
   -2.8154   -3.6718    2.4705 H   0  0  0  0  0  0  0  0  0  0  0  0
   -4.8135   -2.1812    3.1740 H   0  0  0  0  0  0  0  0  0  0  0  0
   -7.3550   -1.8381    2.5942 H   0  0  0  0  0  0  0  0  0  0  0  0
   -8.0654   -2.9884    1.4496 H   0  0  0  0  0  0  0  0  0  0  0  0
   -7.1776   -1.6380   -0.4556 H   0  0  0  0  0  0  0  0  0  0  0  0
   -8.2491   -0.6768    0.5746 H   0  0  0  0  0  0  0  0  0  0  0  0
   -6.4968   -0.4778    0.6852 H   0  0  0  0  0  0  0  0  0  0  0  0
   -4.3118   -3.8971   -1.9053 H   0  0  0  0  0  0  0  0  0  0  0  0
   -5.4064   -3.2143   -4.0092 H   0  0  0  0  0  0  0  0  0  0  0  0
   -7.4151   -0.0580   -7.1589 H   0  0  0  0  0  0  0  0  0  0  0  0
   -9.3040    0.6537   -5.5345 H   0  0  0  0  0  0  0  0  0  0  0  0
   -9.0031   -0.7404   -2.0514 H   0  0  0  0  0  0  0  0  0  0  0  0
  -10.0063    0.3364   -3.0362 H   0  0  0  0  0  0  0  0  0  0  0  0
   -8.4014    2.2042   -2.6116 H   0  0  0  0  0  0  0  0  0  0  0  0
   -7.4065    1.1269   -1.6289 H   0  0  0  0  0  0  0  0  0  0  0  0
   -9.0354    1.5568   -1.0940 H   0  0  0  0  0  0  0  0  0  0  0  0
   -0.2344   -3.4315   -6.8953 H   0  0  0  0  0  0  0  0  0  0  0  0
    1.4694   -3.7788   -8.8045 H   0  0  0  0  0  0  0  0  0  0  0  0
    0.2658   -2.7970  -12.2186 H   0  0  0  0  0  0  0  0  0  0  0  0
    1.7224   -3.3405  -11.3696 H   0  0  0  0  0  0  0  0  0  0  0  0
    2.2384   -0.9684  -10.7646 H   0  0  0  0  0  0  0  0  0  0  0  0
    0.7809   -0.4368  -11.6067 H   0  0  0  0  0  0  0  0  0  0  0  0
    2.1107   -1.1623  -12.5170 H   0  0  0  0  0  0  0  0  0  0  0  0
   -1.7380    0.4962   -8.7336 H   0  0  0  0  0  0  0  0  0  0  0  0
   -4.6086    3.9032   -7.0611 H   0  0  0  0  0  0  0  0  0  0  0  0
   -4.2889    8.4060   -5.3275 H   0  0  0  0  0  0  0  0  0  0  0  0
   -6.5086    8.2058   -4.0010 H   0  0  0  0  0  0  0  0  0  0  0  0
   -7.2686    4.9147   -2.6329 H   0  0  0  0  0  0  0  0  0  0  0  0
   -8.1100    6.4152   -3.0467 H   0  0  0  0  0  0  0  0  0  0  0  0
   -8.7860    5.4025   -5.2415 H   0  0  0  0  0  0  0  0  0  0  0  0
   -7.9494    3.9108   -4.8041 H   0  0  0  0  0  0  0  0  0  0  0  0
   -9.3650    4.4360   -3.8816 H   0  0  0  0  0  0  0  0  0  0  0  0
    1.7636    7.4679   -7.6157 H   0  0  0  0  0  0  0  0  0  0  0  0
    3.9307    6.6950   -8.8068 H   0  0  0  0  0  0  0  0  0  0  0  0
    3.7004    3.3951  -10.4971 H   0  0  0  0  0  0  0  0  0  0  0  0
    4.8953    4.6189  -10.0377 H   0  0  0  0  0  0  0  0  0  0  0  0
    5.5557    2.3628   -9.2125 H   0  0  0  0  0  0  0  0  0  0  0  0
    5.2333    3.4446   -7.8529 H   0  0  0  0  0  0  0  0  0  0  0  0
    4.0349    2.2357   -8.3206 H   0  0  0  0  0  0  0  0  0  0  0  0
    1.5308    6.8092   -5.3363 H   0  0  0  0  0  0  0  0  0  0  0  0
   -1.2034    7.4128   -1.6210 H   0  0  0  0  0  0  0  0  0  0  0  0
   -1.3420    4.6495    1.9529 H   0  0  0  0  0  0  0  0  0  0  0  0
   -3.8797    5.0829    2.2026 H   0  0  0  0  0  0  0  0  0  0  0  0
   -5.6334    7.0115    1.8451 H   0  0  0  0  0  0  0  0  0  0  0  0
   -4.9805    8.6094    1.4460 H   0  0  0  0  0  0  0  0  0  0  0  0
   -6.4974    7.8030   -0.3529 H   0  0  0  0  0  0  0  0  0  0  0  0
   -5.4902    6.3679   -0.5725 H   0  0  0  0  0  0  0  0  0  0  0  0
   -4.8451    7.9628   -0.9582 H   0  0  0  0  0  0  0  0  0  0  0  0
    4.4260    8.9472   -1.3559 H   0  0  0  0  0  0  0  0  0  0  0  0
    6.9496    8.6617   -1.8613 H   0  0  0  0  0  0  0  0  0  0  0  0
    8.6250    5.8926    0.0265 H   0  0  0  0  0  0  0  0  0  0  0  0
    8.9408    7.0881   -1.2419 H   0  0  0  0  0  0  0  0  0  0  0  0
    9.3951    4.7789   -2.0550 H   0  0  0  0  0  0  0  0  0  0  0  0
    8.0471    5.4917   -2.9488 H   0  0  0  0  0  0  0  0  0  0  0  0
    7.7344    4.3086   -1.6762 H   0  0  0  0  0  0  0  0  0  0  0  0
    4.5143    5.6210    2.2284 H   0  0  0  0  0  0  0  0  0  0  0  0
    1.3877    2.8679    4.3264 H   0  0  0  0  0  0  0  0  0  0  0  0
    1.5690    0.7916    3.3978 H   0  0  0  0  0  0  0  0  0  0  0  0
   -0.6143   -0.5559    3.0421 H   0  0  0  0  0  0  0  0  0  0  0  0
   -2.1589   -1.9026    6.2797 H   0  0  0  0  0  0  0  0  0  0  0  0
   -2.5126   -1.7100    4.5522 H   0  0  0  0  0  0  0  0  0  0  0  0
   -2.1089   -4.1088    5.1526 H   0  0  0  0  0  0  0  0  0  0  0  0
   -0.4867   -3.6749    5.7219 H   0  0  0  0  0  0  0  0  0  0  0  0
   -0.8891   -3.5195    4.0143 H   0  0  0  0  0  0  0  0  0  0  0  0
    7.8106    0.6641    6.7953 H   0  0  0  0  0  0  0  0  0  0  0  0
    9.9253    2.0932    7.2670 H   0  0  0  0  0  0  0  0  0  0  0  0
    9.4410    5.7777    6.9030 H   0  0  0  0  0  0  0  0  0  0  0  0
   10.6412    4.5913    7.4409 H   0  0  0  0  0  0  0  0  0  0  0  0
    9.6465    4.6453    9.7353 H   0  0  0  0  0  0  0  0  0  0  0  0
   10.1600    6.2586    9.2291 H   0  0  0  0  0  0  0  0  0  0  0  0
    8.4484    5.8204    9.1866 H   0  0  0  0  0  0  0  0  0  0  0  0
    6.4060    0.2760    8.6787 H   0  0  0  0  0  0  0  0  0  0  0  0
    4.9896   -1.8127    9.3194 H   0  0  0  0  0  0  0  0  0  0  0  0
  1  2  2  0  0  0  0
  2  3  1  0  0  0  0
  3  4  2  0  0  0  0
  4  5  1  0  0  0  0
  5  6  2  0  0  0  0
  6  7  1  0  0  0  0
  7  8  2  0  0  0  0
  8  9  1  0  0  0  0
  9 10  1  0  0  0  0
  8 11  1  0  0  0  0
  4 12  1  0  0  0  0
 12 13  2  0  0  0  0
 13 14  1  0  0  0  0
 14 15  1  0  0  0  0
 15 16  2  0  0  0  0
 16 17  1  0  0  0  0
 17 18  2  0  0  0  0
 18 19  1  0  0  0  0
 19 20  1  0  0  0  0
 18 21  1  0  0  0  0
 14 22  2  0  0  0  0
 22 23  1  0  0  0  0
 13 24  1  0  0  0  0
 24 25  2  0  0  0  0
 25 26  1  0  0  0  0
 25 27  1  0  0  0  0
 27 28  2  0  0  0  0
 28 29  1  0  0  0  0
 29 30  2  0  0  0  0
 30 31  1  0  0  0  0
 31 32  2  0  0  0  0
 32 33  1  0  0  0  0
 33 34  2  0  0  0  0
 34 35  1  0  0  0  0
 35 36  1  0  0  0  0
 34 37  1  0  0  0  0
 30 38  1  0  0  0  0
 38 39  2  0  0  0  0
 39 40  1  0  0  0  0
 40 41  1  0  0  0  0
 41 42  2  0  0  0  0
 42 43  1  0  0  0  0
 43 44  2  0  0  0  0
 44 45  1  0  0  0  0
 45 46  1  0  0  0  0
 44 47  1  0  0  0  0
 40 48  2  0  0  0  0
 48 49  1  0  0  0  0
 39 50  1  0  0  0  0
 50 51  2  0  0  0  0
 51 52  1  0  0  0  0
 51 53  1  0  0  0  0
 53 54  2  0  0  0  0
 54 55  1  0  0  0  0
 55 56  2  0  0  0  0
 56 57  1  0  0  0  0
 57 58  2  0  0  0  0
 58 59  1  0  0  0  0
 59 60  2  0  0  0  0
 60 61  1  0  0  0  0
 61 62  1  0  0  0  0
 60 63  1  0  0  0  0
 56 64  1  0  0  0  0
 64 65  2  0  0  0  0
 65 66  1  0  0  0  0
 66 67  1  0  0  0  0
 67 68  2  0  0  0  0
 68 69  1  0  0  0  0
 69 70  2  0  0  0  0
 70 71  1  0  0  0  0
 71 72  1  0  0  0  0
 70 73  1  0  0  0  0
 66 74  2  0  0  0  0
 74 75  1  0  0  0  0
 65 76  1  0  0  0  0
 76 77  2  0  0  0  0
 77 78  1  0  0  0  0
 77 79  1  0  0  0  0
 79 80  2  0  0  0  0
 80 81  1  0  0  0  0
 81 82  2  0  0  0  0
 82 83  1  0  0  0  0
 83 84  2  0  0  0  0
 84 85  1  0  0  0  0
 85 86  2  0  0  0  0
 86 87  1  0  0  0  0
 87 88  1  0  0  0  0
 86 89  1  0  0  0  0
 82 90  1  0  0  0  0
 90 91  2  0  0  0  0
 91 92  1  0  0  0  0
 92 93  1  0  0  0  0
 93 94  2  0  0  0  0
 94 95  1  0  0  0  0
 95 96  2  0  0  0  0
 96 97  1  0  0  0  0
 97 98  1  0  0  0  0
 96 99  1  0  0  0  0
 92100  2  0  0  0  0
100101  1  0  0  0  0
 91102  1  0  0  0  0
102103  2  0  0  0  0
103104  1  0  0  0  0
103105  1  0  0  0  0
105106  2  0  0  0  0
106107  1  0  0  0  0
107108  2  0  0  0  0
108109  1  0  0  0  0
109110  2  0  0  0  0
110111  1  0  0  0  0
111112  2  0  0  0  0
112113  1  0  0  0  0
113114  1  0  0  0  0
112115  1  0  0  0  0
108116  1  0  0  0  0
116117  2  0  0  0  0
117118  1  0  0  0  0
118119  1  0  0  0  0
119120  2  0  0  0  0
120121  1  0  0  0  0
121122  2  0  0  0  0
122123  1  0  0  0  0
123124  1  0  0  0  0
122125  1  0  0  0  0
118126  2  0  0  0  0
126127  1  0  0  0  0
117128  1  0  0  0  0
128129  2  0  0  0  0
129130  1  0  0  0  0
129131  1  0  0  0  0
131132  2  0  0  0  0
132133  1  0  0  0  0
133134  2  0  0  0  0
134135  1  0  0  0  0
135136  2  0  0  0  0
136137  1  0  0  0  0
137138  2  0  0  0  0
138139  1  0  0  0  0
139140  1  0  0  0  0
138141  1  0  0  0  0
134142  1  0  0  0  0
142143  2  0  0  0  0
143144  1  0  0  0  0
144145  1  0  0  0  0
145146  2  0  0  0  0
146147  1  0  0  0  0
147148  2  0  0  0  0
148149  1  0  0  0  0
149150  1  0  0  0  0
148151  1  0  0  0  0
144152  2  0  0  0  0
152153  1  0  0  0  0
143154  1  0  0  0  0
154155  2  0  0  0  0
155156  1  0  0  0  0
 23  1  1  0  0  0  0
 49 27  1  0  0  0  0
 75 53  1  0  0  0  0
101 79  1  0  0  0  0
127105  1  0  0  0  0
153131  1  0  0  0  0
 22  3  1  0  0  0  0
 48 29  1  0  0  0  0
 74 55  1  0  0  0  0
100 81  1  0  0  0  0
126107  1  0  0  0  0
152133  1  0  0  0  0
 11  5  1  0  0  0  0
 26 12  1  0  0  0  0
 37 31  1  0  0  0  0
 52 38  1  0  0  0  0
 63 57  1  0  0  0  0
 78 64  1  0  0  0  0
 89 83  1  0  0  0  0
104 90  1  0  0  0  0
115109  1  0  0  0  0
130116  1  0  0  0  0
141135  1  0  0  0  0
156142  1  0  0  0  0
 21 15  1  0  0  0  0
 47 41  1  0  0  0  0
 73 67  1  0  0  0  0
 99 93  1  0  0  0  0
125119  1  0  0  0  0
151145  1  0  0  0  0
  1157  1  0  0  0  0
  2158  1  0  0  0  0
  6159  1  0  0  0  0
  7160  1  0  0  0  0
  9161  1  0  0  0  0
  9162  1  0  0  0  0
 10163  1  0  0  0  0
 10164  1  0  0  0  0
 10165  1  0  0  0  0
 16166  1  0  0  0  0
 17167  1  0  0  0  0
 19168  1  0  0  0  0
 19169  1  0  0  0  0
 20170  1  0  0  0  0
 20171  1  0  0  0  0
 20172  1  0  0  0  0
 24173  1  0  0  0  0
 28174  1  0  0  0  0
 32175  1  0  0  0  0
 33176  1  0  0  0  0
 35177  1  0  0  0  0
 35178  1  0  0  0  0
 36179  1  0  0  0  0
 36180  1  0  0  0  0
 36181  1  0  0  0  0
 42182  1  0  0  0  0
 43183  1  0  0  0  0
 45184  1  0  0  0  0
 45185  1  0  0  0  0
 46186  1  0  0  0  0
 46187  1  0  0  0  0
 46188  1  0  0  0  0
 50189  1  0  0  0  0
 54190  1  0  0  0  0
 58191  1  0  0  0  0
 59192  1  0  0  0  0
 61193  1  0  0  0  0
 61194  1  0  0  0  0
 62195  1  0  0  0  0
 62196  1  0  0  0  0
 62197  1  0  0  0  0
 68198  1  0  0  0  0
 69199  1  0  0  0  0
 71200  1  0  0  0  0
 71201  1  0  0  0  0
 72202  1  0  0  0  0
 72203  1  0  0  0  0
 72204  1  0  0  0  0
 76205  1  0  0  0  0
 80206  1  0  0  0  0
 84207  1  0  0  0  0
 85208  1  0  0  0  0
 87209  1  0  0  0  0
 87210  1  0  0  0  0
 88211  1  0  0  0  0
 88212  1  0  0  0  0
 88213  1  0  0  0  0
 94214  1  0  0  0  0
 95215  1  0  0  0  0
 97216  1  0  0  0  0
 97217  1  0  0  0  0
 98218  1  0  0  0  0
 98219  1  0  0  0  0
 98220  1  0  0  0  0
102221  1  0  0  0  0
106222  1  0  0  0  0
110223  1  0  0  0  0
111224  1  0  0  0  0
113225  1  0  0  0  0
113226  1  0  0  0  0
114227  1  0  0  0  0
114228  1  0  0  0  0
114229  1  0  0  0  0
120230  1  0  0  0  0
121231  1  0  0  0  0
123232  1  0  0  0  0
123233  1  0  0  0  0
124234  1  0  0  0  0
124235  1  0  0  0  0
124236  1  0  0  0  0
128237  1  0  0  0  0
132238  1  0  0  0  0
136239  1  0  0  0  0
137240  1  0  0  0  0
139241  1  0  0  0  0
139242  1  0  0  0  0
140243  1  0  0  0  0
140244  1  0  0  0  0
140245  1  0  0  0  0
146246  1  0  0  0  0
147247  1  0  0  0  0
149248  1  0  0  0  0
149249  1  0  0  0  0
150250  1  0  0  0  0
150251  1  0  0  0  0
150252  1  0  0  0  0
154253  1  0  0  0  0
155254  1  0  0  0  0
M  END
