106

C          3.38200        6.69090       12.58040
C          2.69020        5.60320       12.06490
C          2.66820        5.31360       10.64340
N          1.94760        4.22640       10.36810
S          1.35990        3.62980       11.73970
N          1.97640        4.70150       12.75670
C          3.34000        6.10400        9.68800
C          4.03800        7.20820       10.22650
N          4.74960        8.11020        9.54720
S          5.36260        9.18030       10.57880
N          4.77310        8.57820       11.93840
C          4.04960        7.48490       11.65580
C          3.30370        5.78270        8.30920
S          2.41420        4.39530        7.73950
C          2.89210        4.73970        6.11210
C          2.61480        4.01400        4.94610
C          3.30840        4.35110        3.77140
O          4.20500        5.34590        3.69880
C          4.15270        6.39160        4.68250
C          3.08090        7.42310        4.24590
C          3.32370        8.05030        2.87990
C          5.57190        6.99360        4.78850
C          6.42030        6.84690        3.52950
C          3.70560        5.87300        6.02830
C          3.92600        6.45670        7.26470
C          3.01700        3.49940        2.71290
C          2.07980        2.53010        3.04340
S          1.56250        2.66270        4.70520
C          1.52800        1.53990        2.19880
C          0.49200        0.68780        2.63890
C         -0.14880       -0.28990        1.78650
N         -1.07270       -0.98580        2.45370
S         -1.15180       -0.45360        3.96070
N         -0.01110        0.67800        3.87280
C          0.24300       -0.49130        0.44900
C          1.31400        0.31830        0.01710
N          1.82230        0.33430       -1.21660
S          2.96880        1.44630       -1.30250
N          2.87820        1.99950        0.20500
C          1.93340        1.32420        0.86100
C         -0.41810       -1.41220       -0.42800
C         -1.82240       -1.53480       -0.46940
C         -2.51270       -2.38540       -1.42210
N         -3.83730       -2.27820       -1.30550
S         -4.17790       -1.21980       -0.14150
N         -2.68200       -0.83380        0.27220
C         -1.81820       -3.18710       -2.35860
C         -0.41150       -3.10180       -2.26920
N          0.43960       -3.80700       -3.01350
S          1.94340       -3.42680       -2.58430
N          1.59960       -2.35780       -1.44390
C          0.27450       -2.22610       -1.34520
C         -2.44590       -3.99670       -3.33020
S         -1.50590       -4.99670       -4.40550
C         -2.95210       -5.53420       -5.18910
C         -3.08580       -6.48930       -6.20470
C         -4.37450       -6.93910       -6.53530
O         -5.48990       -6.47910       -5.94920
C         -5.44270       -5.19470       -5.29140
C         -5.65870       -4.12830       -6.39300
C         -5.76710       -2.69940       -5.88140
C         -6.56380       -5.23290       -4.24170
C         -7.94540       -5.47950       -4.83610
C         -4.10260       -4.95040       -4.64490
C         -3.80930       -4.09880       -3.59460
C         -4.36110       -7.95990       -7.47990
C         -3.08020       -8.29170       -7.89500
S         -1.86460       -7.32830       -7.09720
C         -2.70480       -9.27300       -8.84680
C         -1.35140       -9.50540       -9.16710
C         -0.92790      -10.50710      -10.12770
N          0.40840      -10.53120      -10.24940
S          1.04300       -9.43120       -9.27590
N         -0.31500       -8.85340       -8.64000
C         -1.84000      -11.30770      -10.80190
C         -3.18000      -11.09320      -10.50290
N         -4.21850      -11.75230      -11.03770
S         -5.57560      -11.18460      -10.41010
N         -4.95110      -10.07680       -9.42820
C         -3.62160      -10.09320       -9.54110
H          3.40240        6.90870       13.63320
H          2.12060        6.89910        4.22990
H          3.02420        8.19690        5.01350
H          3.49570        7.27620        2.13630
H          4.17960        8.71880        2.90250
H          2.45030        8.62670        2.58270
H          5.47660        8.04730        5.05310
H          6.09270        6.49050        5.60600
H          7.39460        7.29930        3.70060
H          5.95870        7.32960        2.67520
H          6.56200        5.79730        3.29030
H          4.50930        7.34100        7.44110
H          3.45440        3.56860        1.73530
H         -4.81370       -4.20200       -7.08380
H         -6.55880       -4.39900       -6.94660
H         -4.88580       -2.42550       -5.30660
H         -5.84990       -2.01770       -6.72470
H         -6.64490       -2.57120       -5.25430
H         -6.32390       -6.04010       -3.54640
H         -6.55910       -4.29720       -3.68510
H         -8.28050       -4.62790       -5.42210
H         -7.92700       -6.35910       -5.47310
H         -8.66330       -5.64420       -4.03630
H         -4.52290       -3.54550       -3.01380
H         -5.23640       -8.45280       -7.85780
H         -1.53060      -12.05160      -11.51430
