
  xtb     03012212143D
 energy: -189.647149316611 gnorm: 0.000686277334 xtb: 6.4.1 (unknown)
115127  0     0  0            999 V2000
    3.0297    0.6403   -3.3880 C   0  0  0  0  0  0  0  0  0  0  0  0
    1.3164    0.7751   -3.4511 S   0  0  0  0  0  0  0  0  0  0  0  0
    1.3652    2.2337   -4.4189 C   0  0  0  0  0  0  0  0  0  0  0  0
    2.6908    2.5500   -4.6383 C   0  0  0  0  0  0  0  0  0  0  0  0
    3.6413    1.6627   -4.0575 C   0  0  0  0  0  0  0  0  0  0  0  0
    4.9837    2.0645   -4.3361 C   0  0  0  0  0  0  0  0  0  0  0  0
    5.0530    3.1838   -5.0840 C   0  0  0  0  0  0  0  0  0  0  0  0
    6.2630    3.8976   -5.5649 C   0  0  0  0  0  0  0  0  0  0  0  0
    3.4662    3.8366   -5.5033 S   0  0  0  0  0  0  0  0  0  0  0  0
    0.2814    2.9263   -5.0278 C   0  0  0  0  0  0  0  0  0  0  0  0
   -1.0672    2.8348   -4.9307 C   0  0  0  0  0  0  0  0  0  0  0  0
   -1.9203    2.1187   -4.0461 C   0  0  0  0  0  0  0  0  0  0  0  0
   -1.4069    1.4051   -2.5444 S   0  0  0  0  0  0  0  0  0  0  0  0
   -3.0278    0.9629   -2.1671 C   0  0  0  0  0  0  0  0  0  0  0  0
   -3.4981    0.3779   -0.9761 C   0  0  0  0  0  0  0  0  0  0  0  0
   -4.8661    0.2927   -0.7583 C   0  0  0  0  0  0  0  0  0  0  0  0
   -5.7739    0.7302   -1.6536 O   0  0  0  0  0  0  0  0  0  0  0  0
   -5.3683    0.8813   -3.0362 C   0  0  0  0  0  0  0  0  0  0  0  0
   -5.5180   -0.5126   -3.6901 C   0  0  0  0  0  0  0  0  0  0  0  0
   -5.2555   -0.5443   -5.1886 C   0  0  0  0  0  0  0  0  0  0  0  0
   -6.3142    1.9418   -3.6192 C   0  0  0  0  0  0  0  0  0  0  0  0
   -7.7879    1.5652   -3.5266 C   0  0  0  0  0  0  0  0  0  0  0  0
   -3.9269    1.3222   -3.1571 C   0  0  0  0  0  0  0  0  0  0  0  0
   -3.2924    1.9934   -4.2042 C   0  0  0  0  0  0  0  0  0  0  0  0
   -5.1853   -0.2170    0.5093 C   0  0  0  0  0  0  0  0  0  0  0  0
   -4.0685   -0.4983    1.2675 C   0  0  0  0  0  0  0  0  0  0  0  0
   -2.5952   -0.1670    0.3862 S   0  0  0  0  0  0  0  0  0  0  0  0
   -3.9513   -1.0701    2.5572 C   0  0  0  0  0  0  0  0  0  0  0  0
   -5.1897   -2.1073    3.2300 S   0  0  0  0  0  0  0  0  0  0  0  0
   -4.1590   -2.6235    4.5525 C   0  0  0  0  0  0  0  0  0  0  0  0
   -2.9822   -1.9171    4.5029 C   0  0  0  0  0  0  0  0  0  0  0  0
   -2.8449   -1.0438    3.3916 C   0  0  0  0  0  0  0  0  0  0  0  0
   -1.6121   -0.3336    3.4278 C   0  0  0  0  0  0  0  0  0  0  0  0
   -0.8546   -0.6338    4.5055 C   0  0  0  0  0  0  0  0  0  0  0  0
    0.4632   -0.0695    4.8873 C   0  0  0  0  0  0  0  0  0  0  0  0
   -1.5971   -1.8395    5.5499 S   0  0  0  0  0  0  0  0  0  0  0  0
   -4.5175   -3.7071    5.4198 C   0  0  0  0  0  0  0  0  0  0  0  0
   -3.6409   -4.6648    5.7941 C   0  0  0  0  0  0  0  0  0  0  0  0
   -2.3328   -4.8314    5.2336 C   0  0  0  0  0  0  0  0  0  0  0  0
   -0.9865   -5.3026    6.2339 S   0  0  0  0  0  0  0  0  0  0  0  0
    0.1844   -5.1325    4.9328 C   0  0  0  0  0  0  0  0  0  0  0  0
   -0.4929   -4.7928    3.7786 C   0  0  0  0  0  0  0  0  0  0  0  0
   -1.8991   -4.6401    3.9312 C   0  0  0  0  0  0  0  0  0  0  0  0
   -2.5419   -4.3794    2.6864 C   0  0  0  0  0  0  0  0  0  0  0  0
   -1.6840   -4.3218    1.6460 C   0  0  0  0  0  0  0  0  0  0  0  0
   -1.9875   -4.0264    0.2233 C   0  0  0  0  0  0  0  0  0  0  0  0
   -0.0160   -4.6195    2.1195 S   0  0  0  0  0  0  0  0  0  0  0  0
    1.5276   -5.4727    5.2249 C   0  0  0  0  0  0  0  0  0  0  0  0
    2.6990   -5.1581    4.6081 C   0  0  0  0  0  0  0  0  0  0  0  0
    3.0582   -4.2085    3.6268 C   0  0  0  0  0  0  0  0  0  0  0  0
    2.1516   -2.7851    3.1548 S   0  0  0  0  0  0  0  0  0  0  0  0
    3.4266   -2.1801    2.1156 C   0  0  0  0  0  0  0  0  0  0  0  0
    4.4886   -3.0665    2.1662 C   0  0  0  0  0  0  0  0  0  0  0  0
    4.3075   -4.1872    3.0021 C   0  0  0  0  0  0  0  0  0  0  0  0
    5.4442   -5.0440    2.9914 C   0  0  0  0  0  0  0  0  0  0  0  0
    6.4377   -4.5951    2.1907 C   0  0  0  0  0  0  0  0  0  0  0  0
    7.7617   -5.2157    1.9313 C   0  0  0  0  0  0  0  0  0  0  0  0
    6.0377   -3.0805    1.3865 S   0  0  0  0  0  0  0  0  0  0  0  0
    3.3940   -0.9900    1.3621 C   0  0  0  0  0  0  0  0  0  0  0  0
    2.3566   -0.1298    1.1941 C   0  0  0  0  0  0  0  0  0  0  0  0
    2.4553    1.0489    0.4208 C   0  0  0  0  0  0  0  0  0  0  0  0
    3.9666    1.5540   -0.3091 S   0  0  0  0  0  0  0  0  0  0  0  0
    3.2699    2.9891   -1.0213 C   0  0  0  0  0  0  0  0  0  0  0  0
    1.9336    3.0414   -0.7019 C   0  0  0  0  0  0  0  0  0  0  0  0
    1.4656    1.9751    0.1136 C   0  0  0  0  0  0  0  0  0  0  0  0
    0.0910    2.1242    0.4396 C   0  0  0  0  0  0  0  0  0  0  0  0
   -0.4704    3.2303   -0.0971 C   0  0  0  0  0  0  0  0  0  0  0  0
   -1.8679    3.7118    0.0414 C   0  0  0  0  0  0  0  0  0  0  0  0
    0.6640    4.1726   -1.0591 S   0  0  0  0  0  0  0  0  0  0  0  0
    4.0971    3.8877   -1.7663 C   0  0  0  0  0  0  0  0  0  0  0  0
    3.6630    4.9848   -2.3874 C   0  0  0  0  0  0  0  0  0  0  0  0
    3.4718   -0.1785   -2.8575 H   0  0  0  0  0  0  0  0  0  0  0  0
    5.8447    1.5265   -3.9821 H   0  0  0  0  0  0  0  0  0  0  0  0
    6.2678    3.9512   -6.6534 H   0  0  0  0  0  0  0  0  0  0  0  0
    7.1600    3.3809   -5.2321 H   0  0  0  0  0  0  0  0  0  0  0  0
    6.2802    4.9183   -5.1832 H   0  0  0  0  0  0  0  0  0  0  0  0
    0.6472    3.6498   -5.7501 H   0  0  0  0  0  0  0  0  0  0  0  0
   -1.6250    3.4372   -5.6391 H   0  0  0  0  0  0  0  0  0  0  0  0
   -6.5240   -0.8768   -3.4762 H   0  0  0  0  0  0  0  0  0  0  0  0
   -4.8131   -1.1813   -3.1870 H   0  0  0  0  0  0  0  0  0  0  0  0
   -5.9889    0.0479   -5.7292 H   0  0  0  0  0  0  0  0  0  0  0  0
   -4.2625   -0.1626   -5.4142 H   0  0  0  0  0  0  0  0  0  0  0  0
   -5.3161   -1.5691   -5.5475 H   0  0  0  0  0  0  0  0  0  0  0  0
   -6.1448    2.8647   -3.0597 H   0  0  0  0  0  0  0  0  0  0  0  0
   -6.0425    2.1233   -4.6582 H   0  0  0  0  0  0  0  0  0  0  0  0
   -8.4023    2.4150   -3.8147 H   0  0  0  0  0  0  0  0  0  0  0  0
   -8.0378    1.2849   -2.5073 H   0  0  0  0  0  0  0  0  0  0  0  0
   -8.0246    0.7355   -4.1874 H   0  0  0  0  0  0  0  0  0  0  0  0
   -3.7961    2.3820   -5.0710 H   0  0  0  0  0  0  0  0  0  0  0  0
   -6.1890   -0.3528    0.8670 H   0  0  0  0  0  0  0  0  0  0  0  0
   -1.3237    0.3970    2.6958 H   0  0  0  0  0  0  0  0  0  0  0  0
    0.3976    0.4243    5.8567 H   0  0  0  0  0  0  0  0  0  0  0  0
    0.7955    0.6513    4.1440 H   0  0  0  0  0  0  0  0  0  0  0  0
    1.2063   -0.8622    4.9672 H   0  0  0  0  0  0  0  0  0  0  0  0
   -5.5389   -3.7449    5.7719 H   0  0  0  0  0  0  0  0  0  0  0  0
   -3.9216   -5.3610    6.5729 H   0  0  0  0  0  0  0  0  0  0  0  0
   -3.6044   -4.2674    2.5764 H   0  0  0  0  0  0  0  0  0  0  0  0
   -1.6489   -4.8375   -0.4207 H   0  0  0  0  0  0  0  0  0  0  0  0
   -3.0584   -3.8897    0.0914 H   0  0  0  0  0  0  0  0  0  0  0  0
   -1.4752   -3.1160   -0.0891 H   0  0  0  0  0  0  0  0  0  0  0  0
    1.6181   -6.1162    6.0925 H   0  0  0  0  0  0  0  0  0  0  0  0
    3.5618   -5.7107    4.9645 H   0  0  0  0  0  0  0  0  0  0  0  0
    5.5123   -5.9571    3.5552 H   0  0  0  0  0  0  0  0  0  0  0  0
    7.8836   -5.4264    0.8689 H   0  0  0  0  0  0  0  0  0  0  0  0
    8.5645   -4.5414    2.2294 H   0  0  0  0  0  0  0  0  0  0  0  0
    7.8560   -6.1446    2.4885 H   0  0  0  0  0  0  0  0  0  0  0  0
    4.3295   -0.7665    0.8591 H   0  0  0  0  0  0  0  0  0  0  0  0
    1.3988   -0.3392    1.6516 H   0  0  0  0  0  0  0  0  0  0  0  0
   -0.4512    1.4214    1.0427 H   0  0  0  0  0  0  0  0  0  0  0  0
   -2.3124    3.8830   -0.9387 H   0  0  0  0  0  0  0  0  0  0  0  0
   -2.4658    2.9786    0.5778 H   0  0  0  0  0  0  0  0  0  0  0  0
   -1.8941    4.6556    0.5869 H   0  0  0  0  0  0  0  0  0  0  0  0
    5.1454    3.6210   -1.7985 H   0  0  0  0  0  0  0  0  0  0  0  0
    4.3393    5.6283   -2.9211 H   0  0  0  0  0  0  0  0  0  0  0  0
    2.6251    5.2696   -2.3846 H   0  0  0  0  0  0  0  0  0  0  0  0
  1  2  1  0  0  0  0
  2  3  1  0  0  0  0
  3  4  2  0  0  0  0
  4  5  1  0  0  0  0
  5  6  1  0  0  0  0
  6  7  2  0  0  0  0
  7  8  1  0  0  0  0
  7  9  1  0  0  0  0
  3 10  1  0  0  0  0
 10 11  2  0  0  0  0
 11 12  1  0  0  0  0
 12 13  1  0  0  0  0
 13 14  1  0  0  0  0
 14 15  1  0  0  0  0
 15 16  2  0  0  0  0
 16 17  1  0  0  0  0
 17 18  1  0  0  0  0
 18 19  1  0  0  0  0
 19 20  1  0  0  0  0
 18 21  1  0  0  0  0
 21 22  1  0  0  0  0
 18 23  1  0  0  0  0
 23 24  1  0  0  0  0
 16 25  1  0  0  0  0
 25 26  2  0  0  0  0
 26 27  1  0  0  0  0
 26 28  1  0  0  0  0
 28 29  1  0  0  0  0
 29 30  1  0  0  0  0
 30 31  2  0  0  0  0
 31 32  1  0  0  0  0
 32 33  1  0  0  0  0
 33 34  2  0  0  0  0
 34 35  1  0  0  0  0
 34 36  1  0  0  0  0
 30 37  1  0  0  0  0
 37 38  2  0  0  0  0
 38 39  1  0  0  0  0
 39 40  1  0  0  0  0
 40 41  1  0  0  0  0
 41 42  2  0  0  0  0
 42 43  1  0  0  0  0
 43 44  1  0  0  0  0
 44 45  2  0  0  0  0
 45 46  1  0  0  0  0
 45 47  1  0  0  0  0
 41 48  1  0  0  0  0
 48 49  2  0  0  0  0
 49 50  1  0  0  0  0
 50 51  1  0  0  0  0
 51 52  1  0  0  0  0
 52 53  2  0  0  0  0
 53 54  1  0  0  0  0
 54 55  1  0  0  0  0
 55 56  2  0  0  0  0
 56 57  1  0  0  0  0
 56 58  1  0  0  0  0
 52 59  1  0  0  0  0
 59 60  2  0  0  0  0
 60 61  1  0  0  0  0
 61 62  1  0  0  0  0
 62 63  1  0  0  0  0
 63 64  2  0  0  0  0
 64 65  1  0  0  0  0
 65 66  1  0  0  0  0
 66 67  2  0  0  0  0
 67 68  1  0  0  0  0
 67 69  1  0  0  0  0
 63 70  1  0  0  0  0
 70 71  2  0  0  0  0
  5  1  2  0  0  0  0
 24 12  2  0  0  0  0
 32 28  2  0  0  0  0
 43 39  2  0  0  0  0
 54 50  2  0  0  0  0
 65 61  2  0  0  0  0
  9  4  1  0  0  0  0
 23 14  2  0  0  0  0
 36 31  1  0  0  0  0
 47 42  1  0  0  0  0
 58 53  1  0  0  0  0
 69 64  1  0  0  0  0
 27 15  1  0  0  0  0
  1 72  1  0  0  0  0
  6 73  1  0  0  0  0
  8 74  1  0  0  0  0
  8 75  1  0  0  0  0
  8 76  1  0  0  0  0
 10 77  1  0  0  0  0
 11 78  1  0  0  0  0
 19 79  1  0  0  0  0
 19 80  1  0  0  0  0
 20 81  1  0  0  0  0
 20 82  1  0  0  0  0
 20 83  1  0  0  0  0
 21 84  1  0  0  0  0
 21 85  1  0  0  0  0
 22 86  1  0  0  0  0
 22 87  1  0  0  0  0
 22 88  1  0  0  0  0
 24 89  1  0  0  0  0
 25 90  1  0  0  0  0
 33 91  1  0  0  0  0
 35 92  1  0  0  0  0
 35 93  1  0  0  0  0
 35 94  1  0  0  0  0
 37 95  1  0  0  0  0
 38 96  1  0  0  0  0
 44 97  1  0  0  0  0
 46 98  1  0  0  0  0
 46 99  1  0  0  0  0
 46100  1  0  0  0  0
 48101  1  0  0  0  0
 49102  1  0  0  0  0
 55103  1  0  0  0  0
 57104  1  0  0  0  0
 57105  1  0  0  0  0
 57106  1  0  0  0  0
 59107  1  0  0  0  0
 60108  1  0  0  0  0
 66109  1  0  0  0  0
 68110  1  0  0  0  0
 68111  1  0  0  0  0
 68112  1  0  0  0  0
 70113  1  0  0  0  0
 71114  1  0  0  0  0
 71115  1  0  0  0  0
M  END
