198

C         13.52030      -13.96880       10.02390
S         12.03690      -13.18510       10.41510
C         12.32210      -12.00200        9.18600
C         11.49830      -10.91590        8.79920
C         11.85170      -10.18540        7.67540
O         12.92990      -10.45080        6.91540
C         13.98760      -11.27440        7.44760
C         14.55530      -12.03060        6.23600
C         13.56500      -13.04650        5.67850
C         15.04050      -10.34460        8.09980
C         15.60730       -9.29880        7.14760
C         13.50380      -12.22600        8.51420
C         14.18670      -13.35550        9.00940
C         10.93010       -9.17360        7.36970
C          9.87860       -9.12190        8.25760
S         10.02570      -10.34130        9.49800
C          8.77440       -8.23230        8.24820
S          8.64660       -6.98770        7.03260
C          7.15270       -6.45130        7.71590
C          6.27460       -5.46970        7.20600
C          4.98180       -5.41870        7.71300
O          4.54840       -6.23040        8.69640
C          5.53340       -6.79870        9.58970
C          5.93120       -5.71620       10.61940
C          4.73580       -5.06710       11.30750
C          4.80340       -8.00870       10.20260
C          5.29700       -8.49370       11.56060
C          6.77940       -7.19300        8.82660
C          7.70280       -8.20020        9.11620
C          4.16850       -4.49930        7.03800
C          4.83500       -3.83840        6.02970
S          6.49860       -4.35140        5.90940
C          4.32250       -2.86630        5.13010
C          4.99220       -2.22710        4.12570
C          4.18020       -1.34910        3.37130
C          4.55090       -0.55790        2.26780
C          5.93010       -0.51640        1.80900
S          7.21960       -0.09840        2.89990
C          8.42180       -0.24890        1.66430
C          9.86740       -0.06380        1.96820
C         10.47200       -1.34860        2.54010
C          7.84340       -0.61170        0.48530
Cl         8.71700       -0.86940       -0.96920
C          6.43180       -0.75910        0.56110
Cl         5.49310       -1.28040       -0.77410
C          3.54650        0.17260        1.65010
C          2.19950        0.15690        2.09220
C          1.84080       -0.59240        3.22730
C          0.48410       -0.55310        3.74520
S         -0.42690       -2.00200        4.04780
C         -1.80590       -1.11260        4.59710
C         -3.06570       -1.80190        4.99010
C         -3.96830       -2.02620        3.77430
C         -1.56030        0.22700        4.54110
C         -0.26260        0.54820        4.06220
Cl         0.31590        2.16180        3.97450
Cl        -2.69260        1.42780        5.01110
C          2.83840       -1.34930        3.82420
S          2.63440       -2.39480        5.20220
C          1.35770        0.92210        1.25270
C          2.01940        1.54260        0.23220
S          3.74180        1.21310        0.26820
C          1.46180        2.31650       -0.81990
S         -0.26390        2.56260       -0.91840
C         -0.07240        3.42290       -2.40370
C         -1.08360        3.88540       -3.27580
C         -0.72240        4.25220       -4.56750
O          0.54800        4.26300       -5.00820
C          1.61350        4.29920       -4.03070
C          2.83100        3.70800       -4.75360
C          2.61610        2.25260       -5.15270
C          1.82310        5.78950       -3.66790
C          2.90850        6.05300       -2.63400
C          1.25410        3.52380       -2.78900
C          2.11620        2.89670       -1.88490
C         -1.82750        4.53280       -5.38170
C         -3.02720        4.40130       -4.71480
S         -2.79480        3.92950       -3.05490
C         -4.33950        4.57860       -5.23740
C         -4.70810        4.70660       -6.54760
C         -6.10590        4.82130       -6.73260
C         -6.81940        4.87720       -7.94360
C         -6.13850        4.87450       -9.22840
S         -4.92710        6.05990       -9.61850
C         -4.68980        5.41200      -11.20670
C         -3.67140        5.98210      -12.13100
C         -2.27740        5.43480      -11.81540
C         -5.49840        4.33300      -11.40130
Cl        -5.53780        3.41500      -12.85030
C         -6.32470        4.02840      -10.28590
Cl        -7.37540        2.67520      -10.26630
C         -8.20400        4.91710       -7.86020
C         -8.90670        4.89990       -6.62920
C         -8.19380        4.84260       -5.41850
C         -8.87360        4.81360       -4.13400
S        -10.09140        3.62260       -3.78000
C        -10.32060        4.21730       -2.17070
C        -11.26440        3.55520       -1.22850
C        -10.58600        2.38720       -0.50850
C         -9.49230        5.27320       -1.93560
C         -8.67400        5.61650       -3.04560
Cl        -7.61430        6.96270       -3.02160
Cl        -9.43510        6.13080       -0.45080
C         -6.80850        4.79560       -5.50210
S         -5.71880        4.61380       -4.15950
C        -10.30630        4.97510       -6.81690
C        -10.67970        5.04420       -8.13070
S         -9.29810        5.03690       -9.20640
C        -11.99990        5.08880       -8.65990
S        -12.27540        5.15290      -10.38070
C        -13.98130        5.15110      -10.13000
C        -15.01170        5.10600      -11.10190
C        -16.30310        4.84230      -10.68020
O        -16.64550        4.65300       -9.39190
C        -15.76400        5.16560       -8.36770
C        -16.17450        6.64230       -8.14480
C        -15.37720        7.38450       -7.08190
C        -16.04750        4.29810       -7.13370
C        -15.67860        2.83670       -7.36070
C        -14.31660        5.10200       -8.78820
C        -13.18930        5.06630       -7.96180
C        -17.21280        4.73150      -11.75500
C        -16.60700        4.92350      -12.95760
S        -14.92190        5.23830      -12.82430
H         13.81030      -14.84010       10.57560
H         15.48250      -12.52470        6.52730
H         14.78080      -11.29600        5.46330
H         13.97240      -13.51510        4.78610
H         12.63390      -12.55080        5.41460
H         13.34850      -13.82280        6.40900
H         14.55080       -9.83920        8.93720
H         15.84260      -10.96260        8.50670
H         16.19150       -8.56990        7.70430
H         14.79780       -8.78030        6.63980
H         16.25260       -9.75550        6.40210
H         15.13200      -13.70190        8.63270
H         11.02680       -8.51130        6.52920
H          6.49000       -4.94310       10.08390
H          6.60450       -6.16270       11.35090
H          4.18000       -5.78590       11.90230
H          5.07770       -4.26860       11.96190
H          4.06130       -4.64300       10.56810
H          3.75290       -7.72460       10.28620
H          4.86150       -8.82660        9.48100
H          6.36040       -8.71220       11.55400
H          4.76700       -9.40700       11.82180
H          5.10650       -7.76160       12.33960
H          7.61820       -8.90670        9.92040
H          3.13250       -4.33190        7.26840
H          6.03460       -2.40030        3.92870
H          9.98620        0.74600        2.69020
H         10.38670        0.20770        1.04740
H         10.36630       -2.16360        1.82860
H          9.96780       -1.62520        3.46300
H         11.52840       -1.20320        2.74890
H         -2.82470       -2.76280        5.44730
H         -3.58880       -1.18480        5.72330
H         -3.46090       -2.64380        3.03710
H         -4.22400       -1.07510        3.31460
H         -4.88520       -2.52480        4.07690
H          0.29220        0.99260        1.37590
H          3.70470        3.79180       -4.10910
H          3.00390        4.30670       -5.64930
H          2.47900        1.62510       -4.27510
H          1.73440        2.16460       -5.78230
H          3.47690        1.88750       -5.70710
H          0.86890        6.16860       -3.29040
H          2.05020        6.32550       -4.59190
H          2.94160        7.11570       -2.40640
H          3.88610        5.75640       -3.00410
H          2.70590        5.51310       -1.71220
H          3.18530        2.84710       -1.98780
H         -1.74240        4.82170       -6.41180
H         -4.00380        4.69060       -7.35790
H         -3.66390        7.06950      -12.03840
H         -3.94480        5.71910      -13.15430
H         -1.54760        5.85210      -12.50380
H         -1.99000        5.69770      -10.80000
H         -2.26740        4.35190      -11.91100
H        -12.13090        3.18760       -1.78100
H        -11.60060        4.29080       -0.49540
H         -9.72780        2.74120        0.05680
H        -10.24630        1.64650       -1.22860
H        -11.28450        1.91440        0.17670
H        -11.01000        4.97780       -6.00600
H        -17.23610        6.65280       -7.88860
H        -16.05950        7.15720       -9.10310
H        -15.52880        6.94760       -6.09850
H        -15.70230        8.42140       -7.04410
H        -14.31480        7.36890       -7.31250
H        -17.11420        4.37310       -6.91680
H        -15.49430        4.69370       -6.28330
H        -14.61180        2.73020       -7.54460
H        -16.21840        2.44540       -8.21920
H        -15.94030        2.24530       -6.48690
H        -13.22690        5.02110       -6.88940
H        -18.25730        4.51920      -11.62510
H        -17.05700        4.90700      -13.92970
