146

C          9.87870        1.83540       10.13550
S          8.29690        2.47590       10.37000
C          7.60600        1.07950        9.62010
C          6.24420        0.83360        9.31340
C          5.94310       -0.22360        8.46980
O          6.87360       -1.04410        7.94450
C          8.15510       -1.14390        8.60410
C          7.99400       -2.19760        9.72470
C          9.27960       -2.54870       10.45930
C          9.14060       -1.56150        7.50040
C          8.76120       -2.86370        6.80500
C          8.56630        0.17610        9.21440
C          9.86870        0.62520        9.51470
C          4.58010       -0.29850        8.15010
C          3.83550        0.69620        8.74330
S          4.82940        1.73670        9.73200
C          2.44870        0.94840        8.57950
S          1.48980       -0.16470        7.60750
C          0.11420        0.85790        7.78630
C         -1.19870        1.00010        7.34180
C         -1.67960        2.21590        7.86990
N         -0.69820        2.80940        8.62270
C         -0.82560        4.01970        9.38990
C         -1.34010        3.73950       10.80090
C          0.39980        1.98810        8.58020
C          1.72260        2.02780        9.03420
C         -2.96370        2.54990        7.42120
C         -3.46180        1.59940        6.55500
S         -2.35960        0.24620        6.31770
C         -4.62850        1.66520        5.74420
S         -5.05750        0.30230        4.74050
C         -6.26150        1.24460        3.93770
C         -6.86980        0.95460        2.69430
C         -7.29240        2.02780        1.92000
O         -7.38790        3.28260        2.39590
C         -7.36460        3.46420        3.83220
C         -8.77440        3.12740        4.36600
C         -8.92720        3.33700        5.86610
C         -6.96360        4.93060        4.04560
C         -7.91100        5.92490        3.38490
C         -6.35720        2.52610        4.45420
C         -5.43520        2.75420        5.48190
C         -7.48280        1.68580        0.57140
C         -7.24350        0.35530        0.31960
S         -6.80750       -0.50890        1.77580
C         -7.11750       -0.31390       -0.93030
S         -6.57110        0.60630       -2.33240
C         -6.28930       -0.86380       -3.19040
C         -5.69130       -1.35050       -4.35360
C         -5.77100       -2.75700       -4.29230
N         -6.42240       -3.13420       -3.14570
C         -6.56850       -4.47920       -2.65440
C         -5.35350       -4.91640       -1.83770
C         -6.69450       -1.98870       -2.44300
C         -7.14710       -1.67030       -1.15800
C         -5.08290       -3.40250       -5.32590
C         -4.45020       -2.50050       -6.15380
S         -4.76100       -0.82680       -5.70820
C         -3.50710       -2.79970       -7.17750
S         -2.27720       -1.63350       -7.59820
C         -1.50280       -2.78750       -8.62400
C         -0.25790       -2.67090       -9.28180
C          0.30370       -3.80680       -9.84650
O         -0.30060       -5.00880       -9.87300
C         -1.70650       -5.10350       -9.56760
C         -1.88110       -6.48360       -8.91530
C         -1.20020       -6.56700       -7.55390
C         -2.49840       -4.98080      -10.89270
C         -2.11200       -6.02100      -11.93680
C         -2.17880       -3.99340       -8.66040
C         -3.31250       -3.99250       -7.84010
C          1.60980       -3.59740      -10.31300
C          2.05350       -2.31100      -10.10350
S          0.82960       -1.32650       -9.34060
C          3.33340       -1.76800      -10.38900
S          4.54860       -2.76440      -11.18540
C          5.68780       -1.47340      -11.07870
C          7.01170       -1.14830      -11.38910
C          7.21840        0.17010      -10.94510
N          6.07440        0.64990      -10.36370
C          5.86190        1.98220       -9.86300
C          5.35280        2.91990      -10.95640
C          5.13030       -0.33900      -10.45620
C          3.79570       -0.51080      -10.07130
C          8.52440        0.63920      -11.18950
C          9.27610       -0.31230      -11.80450
S          8.43870       -1.80170      -12.10810
H         10.72460        2.39730       10.47690
H          7.55770       -3.09360        9.28070
H          7.26760       -1.79890       10.43900
H          9.73220       -1.65930       10.89120
H          9.99780       -3.01820        9.79250
H          9.06040       -3.24520       11.26540
H          9.15620       -0.75510        6.76360
H         10.13890       -1.64700        7.92730
H          7.73210       -2.81620        6.46130
H          8.86940       -3.71350        7.47370
H          9.40850       -3.02230        5.94560
H         10.76700        0.08240        9.28370
H          4.16060       -1.03930        7.49490
H         -1.51440        4.68690        8.86430
H          0.15560        4.49980        9.43700
H         -1.43360        4.66840       11.35670
H         -0.65190        3.08300       11.32790
H         -2.31370        3.25670       10.75690
H          2.15840        2.80110        9.64090
H         -3.50270        3.43960        7.68960
H         -8.97110        2.07860        4.12780
H         -9.50290        3.72980        3.82200
H         -8.15740        2.79230        6.40840
H         -9.89860        2.97230        6.19130
H         -8.85660        4.39000        6.12530
H         -5.96420        5.05540        3.62300
H         -6.90780        5.12760        5.11560
H         -8.04830        5.66960        2.33820
H         -8.88070        5.93170        3.87560
H         -7.49230        6.92670        3.44680
H         -5.32270        3.68930        5.99810
H         -7.75300        2.39240       -0.19120
H         -7.47010       -4.52060       -2.03700
H         -6.70450       -5.14260       -3.51280
H         -5.49020       -5.93270       -1.47860
H         -5.21800       -4.25750       -0.98350
H         -4.45520       -4.87740       -2.44940
H         -7.45150       -2.37610       -0.40630
H         -4.98940       -4.46680       -5.43940
H         -2.94570       -6.70060       -8.82360
H         -1.43250       -7.22250       -9.57880
H         -1.64230       -5.86450       -6.85090
H         -0.14290       -6.33440       -7.65400
H         -1.29660       -7.57130       -7.14830
H         -3.56370       -5.04670      -10.66460
H         -2.30400       -3.98190      -11.29320
H         -2.55830       -5.76620      -12.89510
H         -2.45790       -7.01100      -11.65200
H         -1.03140       -6.04730      -12.05320
H         -3.97960       -4.82770       -7.73040
H          2.21260       -4.36340      -10.76470
H          6.80940        2.35190       -9.46150
H          5.13580        1.92900       -9.04710
H          6.07260        2.97590      -11.76970
H          5.20080        3.91710      -10.55270
H          4.40890        2.55490      -11.35420
H          3.18280        0.22280       -9.57920
H          8.89200        1.61600      -10.93210
H         10.30030       -0.23610      -12.11090
