170

C         -2.78260       -0.46070       16.51980
C         -2.48030        0.21640       15.36870
C         -2.21830        1.65130       15.20180
O         -2.07820        2.17110       14.11890
O         -2.17040        2.31070       16.36100
C         -1.93340        3.71770       16.26960
C         -1.86480        4.28460       17.67440
C         -2.50130       -0.65790       14.25400
C         -2.83310       -1.96280       14.57710
S         -3.10430       -2.13660       16.27240
C         -2.90050       -2.82480       13.45840
C         -3.34250       -4.22120       13.55560
O         -3.62690       -4.94070       12.62980
O         -3.43090       -4.58510       14.84460
C         -3.83400       -5.92750       15.10800
C         -2.65940       -6.88860       14.99430
C         -2.60890       -2.14130       12.28850
S         -2.22830       -0.45930       12.57220
C         -2.49230       -2.66730       10.96100
C         -2.87860       -2.06480        9.77200
C         -3.67700       -0.85500        9.52790
O         -3.83040       -0.40500        8.41530
O         -4.22220       -0.33670       10.62810
C         -4.96710        0.87350       10.48030
C         -5.03120        1.56800       11.82890
C         -2.45130       -2.82510        8.66570
C         -1.76100       -3.97540        9.00410
S         -1.62560       -4.16710       10.70300
C         -1.33240       -4.75060        7.90110
C         -0.72170       -6.04230        8.21950
O         -0.38810       -6.31840        9.35120
O         -0.61250       -6.88920        7.18710
C         -0.12640       -8.19760        7.49280
C         -1.20210       -9.06530        8.12940
C         -1.68300       -4.13420        6.70340
S         -2.58090       -2.64120        6.96380
C         -1.33990       -4.44940        5.36040
S         -2.25370       -3.72620        4.05830
C         -1.17530       -4.40220        2.89520
C         -1.10240       -4.11600        1.51450
C          0.08680       -4.40180        0.85040
O          1.11230       -5.04870        1.43180
C          0.81560       -5.87190        2.58350
C          2.18830       -6.07900        3.24630
C          2.31740       -7.29010        4.16290
C          0.15960       -7.17970        2.08440
C          0.97060       -7.89050        1.00690
C         -0.17330       -5.16480        3.48370
C         -0.27030       -5.17520        4.87470
C          0.13080       -3.86870       -0.44330
C         -1.02490       -3.19810       -0.78360
S         -2.19510       -3.22870        0.51180
C         -1.30580       -2.49680       -1.98270
S         -0.05160       -2.20510       -3.16130
C         -1.14740       -1.27770       -4.12450
C         -0.88320       -0.57600       -5.32080
C         -1.94550        0.02780       -5.98580
O         -3.22760       -0.07690       -5.59130
C         -3.51500       -0.41690       -4.21910
C         -4.83490       -1.20260       -4.26630
C         -4.66520       -2.57250       -4.91320
C         -3.64490        0.89800       -3.41260
C         -4.71070        1.84310       -3.95310
C         -2.41790       -1.22970       -3.57650
C         -2.49700       -1.91110       -2.36040
C         -1.54670        0.71860       -7.13520
C         -0.18540        0.66240       -7.35210
S          0.61760       -0.27220       -6.11300
C          0.60780        1.32640       -8.32870
C          0.26930        1.86850       -9.56470
C         -0.94250        1.82660      -10.38740
O         -1.05030        2.52890      -11.37160
O         -1.85880        0.93800      -10.00210
C         -3.03910        0.84040      -10.80190
C         -4.07150        1.88540      -10.40300
C          1.37070        2.55510      -10.12420
C          2.52260        2.53010       -9.36030
S          2.28780        1.64730       -7.90480
C          3.59450        3.25810       -9.91990
C          4.84800        3.38310       -9.16360
O          5.06880        2.73460       -8.16710
O          5.68760        4.28850       -9.66780
C          6.94600        4.43860       -9.01010
C          7.84170        5.28400       -9.89670
C          3.22490        3.83210      -11.12540
S          1.57690        3.44710      -11.57360
C          4.02480        4.62090      -12.01870
C          3.67680        5.79340      -12.66380
C          2.46600        6.61870      -12.51950
O          2.22870        7.54020      -13.26480
O          1.71280        6.27200      -11.47480
C          0.47110        6.95750      -11.30310
C         -0.63670        6.29420      -12.10920
C          4.71370        6.22940      -13.51990
C          5.83020        5.40980      -13.52010
S          5.61330        4.05410      -12.48480
C          6.87010        5.88670      -14.35620
C          8.17730        5.23750      -14.51920
O          9.04700        5.60470      -15.26930
O          8.27330        4.16890      -13.71180
C          9.49290        3.42970      -13.76050
C         10.56300        4.05360      -12.87590
C          6.49400        7.05290      -14.97240
S          4.91360        7.59080      -14.55620
H         -2.83940       -0.04910       17.50760
H         -0.99750        3.88260       15.72420
H         -2.74590        4.17440       15.69300
H         -2.79700        4.09660       18.20000
H         -1.69330        5.35580       17.62630
H         -1.05370        3.81880       18.22730
H         -4.23370       -5.90720       16.12390
H         -4.62130       -6.20640       14.39980
H         -2.98320       -7.89240       15.25380
H         -2.28100       -6.89210       13.97480
H         -1.86050       -6.58620       15.66720
H         -4.47640        1.49960        9.72760
H         -5.97020        0.62060       10.11710
H         -5.62900        2.47070       11.74230
H         -4.03380        1.83340       12.17070
H         -5.48690        0.90960       12.56420
H          0.73390       -8.10930        8.16480
H          0.19080       -8.60940        6.53190
H         -1.48760       -8.65290        9.09370
H         -2.07900       -9.10700        7.48760
H         -0.81780      -10.07080        8.27520
H          2.91710       -6.15990        2.43800
H          2.42340       -5.17070        3.80500
H          2.26800       -8.22000        3.60410
H          1.53850       -7.30580        4.91890
H          3.28050       -7.25270        4.66720
H         -0.81970       -6.92010        1.67250
H         -0.00710       -7.83330        2.94040
H          0.41200       -8.74370        0.62890
H          1.16940       -7.21410        0.17940
H          1.92170       -8.24580        1.39230
H          0.42480       -5.65680        5.53180
H          0.97700       -3.95750       -1.09920
H         -5.54560       -0.61970       -4.85150
H         -5.22140       -1.30850       -3.25270
H         -4.24290       -2.46450       -5.90940
H         -5.62960       -3.06700       -4.99780
H         -4.00450       -3.20380       -4.32330
H         -2.67200        1.39660       -3.44700
H         -3.85400        0.64630       -2.37190
H         -4.63020        2.80930       -3.46110
H         -4.57590        1.98570       -5.02240
H         -5.70840        1.45180       -3.77480
H         -3.38250       -1.98220       -1.75480
H         -2.22790        1.25530       -7.76410
H         -3.41270       -0.17040      -10.62730
H         -2.76450        0.96400      -11.85450
H         -3.67090        2.88350      -10.56390
H         -4.96340        1.76390      -11.01100
H         -4.34080        1.77350       -9.35510
H          7.37320        3.44490       -8.83550
H          6.78160        4.91470       -8.03670
H          7.39320        6.26080      -10.05780
H          7.97350        4.80160      -10.86180
H          8.80990        5.41230       -9.42120
H          0.26570        6.90500      -10.23170
H          0.59730        8.00120      -11.60980
H         -0.41320        6.36280      -13.17100
H         -1.57770        6.80130      -11.91520
H         -0.73200        5.24500      -11.83920
H          9.22940        2.42760      -13.41590
H          9.83970        3.39050      -14.79840
H         10.79720        5.05500      -13.22870
H         11.46370        3.44790      -12.91540
H         10.21910        4.11180      -11.84600
H          7.09330        7.62040      -15.65660
