226

C          0.41160       -8.46620        7.34950
C          0.71150       -7.33090        6.68700
C         -0.20180       -7.05100        5.62930
C         -0.16540       -5.99310        4.70780
C          0.82600       -4.93260        4.80340
S          1.84680       -4.51640        3.45910
C          2.63950       -3.25970        4.34370
C          3.73850       -2.45230        3.74860
C          5.10970       -3.03740        4.09120
C          2.13650       -3.18250        5.60830
Cl         2.67100       -2.04160        6.77110
C          1.10790       -4.12680        5.87130
Cl         0.26240       -4.18330        7.36360
C         -1.12180       -6.00720        3.70130
C         -2.12580       -6.99950        3.59620
C         -2.17990       -8.04150        4.53700
C         -3.19560       -9.07700        4.44860
S         -3.43630       -9.96640        2.97270
C         -4.71190      -10.91580        3.65710
C         -5.44500      -11.91600        2.83330
C         -6.32400      -11.22680        1.78740
C         -4.92670      -10.55190        4.95220
C         -4.06610       -9.51520        5.40710
Cl        -4.19580       -8.83900        6.97590
Cl        -6.11800      -11.26090        5.96380
C         -1.20650       -8.04440        5.53020
S         -0.99290       -9.27260        6.74410
C         -3.00140       -6.75260        2.50790
C         -2.68290       -5.63570        1.79660
S         -1.28070       -4.81170        2.45090
C         -3.33850       -5.09760        0.65040
C         -2.96440       -3.99600       -0.05770
C         -3.82160       -3.69920       -1.14260
C         -3.73270       -2.62950       -2.04630
C         -2.79520       -1.52950       -1.88450
S         -1.88520       -0.91050       -3.23340
C         -1.23990        0.39990       -2.30690
C         -0.32430        1.39630       -2.92400
C          1.02530        0.78290       -3.29590
C         -1.69410        0.33680       -1.02360
Cl        -1.27360        1.46820        0.19800
C         -2.57470       -0.75310       -0.77740
Cl        -3.32010       -0.99560        0.75070
C         -4.65510       -2.61950       -3.08540
C         -5.72130       -3.54380       -3.20760
C         -5.84530       -4.57290       -2.25580
C         -6.95790       -5.50770       -2.28680
S         -6.69840       -7.22590       -2.24850
C         -8.39540       -7.56270       -2.28980
C         -8.90050       -8.96140       -2.22210
C         -8.87570       -9.47840       -0.78160
C         -9.10820       -6.40160       -2.32070
C         -8.29720       -5.23500       -2.32410
Cl        -8.96080       -3.65260       -2.28590
Cl       -10.82300       -6.32900       -2.35580
C         -4.86670       -4.64690       -1.27030
S         -4.78230       -5.84550       -0.00590
C         -6.55630       -3.25180       -4.32510
C         -6.15600       -2.15500       -5.02170
S         -4.70050       -1.43470       -4.34380
C         -6.73280       -1.34360       -6.05630
S         -5.59390       -0.45080       -7.04160
C         -6.80620        0.72420       -7.40640
C         -6.50520        2.09710       -7.61340
C         -7.36210        2.99770       -6.98500
O         -8.62530        2.69620       -6.66330
C         -9.14670        1.39280       -7.05690
C        -10.30650        1.11890       -6.09080
C        -11.42790        2.14800       -6.17240
C         -9.58060        1.48610       -8.53290
C        -10.17200        0.18730       -9.06420
C         -8.04810        0.37060       -6.90700
C         -7.99700       -0.81120       -6.14400
C         -6.68990        4.14410       -6.51710
C         -5.34560        4.13140       -6.79810
S         -4.90460        2.74330       -7.77020
C         -4.27900        4.77790       -6.09500
C         -2.96730        4.89920       -6.44400
C         -2.09980        5.09300       -5.33650
C         -0.69390        5.12330       -5.33620
C          0.04360        5.17840       -6.58900
S         -0.21330        6.48120       -7.71200
C          0.94840        5.85090       -8.82940
C          1.28460        6.57420      -10.08640
C          2.37580        7.61890       -9.83970
C          1.49470        4.70010       -8.34520
Cl         2.68250        3.78100       -9.17610
C          0.98000        4.31250       -7.07870
Cl         1.43870        2.85370       -6.31000
C         -0.05770        5.04880       -4.10230
C         -0.77430        4.95580       -2.88480
C         -2.17640        5.02300       -2.87730
C         -2.90940        4.93110       -1.62590
S         -4.10880        3.70030       -1.36570
C         -4.40110        4.22390        0.25940
C         -5.38590        3.51900        1.12530
C         -4.98130        2.06320        1.35330
C         -3.60680        5.28810        0.56570
C         -2.75590        5.68880       -0.49960
Cl        -1.69360        7.03170       -0.38720
Cl        -3.61500        6.09390        2.08130
C         -2.80700        5.08380       -4.10970
S         -4.52640        5.01530       -4.36680
C          0.08020        4.69170       -1.78620
C          1.39750        4.63380       -2.12300
S          1.66100        4.94940       -3.82490
C          2.43890        4.19220       -1.23650
C          2.29590        3.15140       -0.37040
C          3.45080        2.90160        0.40770
C          3.61670        1.91280        1.39080
C          2.61780        0.87110        1.56820
S          2.18590       -0.11430        0.20230
C          1.09550       -1.07530        1.13780
C          0.36060       -2.20920        0.51980
C          1.30670       -3.28370       -0.01270
C          1.07020       -0.64060        2.42830
Cl         0.07340       -1.32260        3.64910
C          1.94240        0.45610        2.67920
Cl         2.07890        1.19160        4.22130
C          4.80290        1.93390        2.10490
C          5.83870        2.86880        1.85260
C          5.69480        3.81720        0.82210
C          6.76080        4.75370        0.50800
S          7.46970        5.76050        1.73740
C          8.55140        6.51260        0.61380
C          9.55200        7.51730        1.06750
C         10.70550        6.84400        1.81480
C          8.36470        5.99940       -0.63410
C          7.34760        5.00820       -0.70030
Cl         6.98190        4.16780       -2.14850
Cl         9.26070        6.48480       -2.01480
C          4.49160        3.81670        0.12410
S          4.02440        4.92130       -1.14100
C          6.96120        2.64130        2.68520
C          6.80510        1.58720        3.54160
S          5.24770        0.81130        3.35250
C          7.72390        1.09800        4.51180
S          7.33660       -0.29830        5.47980
C          8.85510       -0.18560        6.28510
C          9.31950       -0.96030        7.37660
C         10.41880       -0.50160        8.08030
O         11.08750        0.62290        7.75520
C         11.01740        1.07110        6.38270
C         11.98470        0.20370        5.54430
C         13.39130        0.12940        6.12690
C         11.41980        2.55580        6.46780
C         12.00370        3.18340        5.20720
C          9.62100        0.87630        5.83050
C          8.96840        1.60010        4.82880
C         10.71510       -1.30170        9.20540
C          9.85500       -2.34880        9.32590
S          8.66200       -2.39220        8.08850
H          0.93330       -8.90240        8.17890
H          1.55660       -6.70970        6.91920
H          3.61650       -2.41310        2.66500
H          3.67830       -1.43630        4.14240
H          5.89010       -2.42190        3.65290
H          5.19880       -4.04980        3.70460
H          5.25270       -3.05920        5.16810
H         -4.72850      -12.56750        2.32810
H         -6.06260      -12.52510        3.49520
H         -7.05150      -10.58040        2.27220
H         -6.85590      -11.96910        1.19860
H         -5.71110      -10.62400        1.12100
H         -3.84230       -7.37380        2.25860
H         -2.08790       -3.42450        0.17960
H         -0.79230        1.80550       -3.82330
H         -0.17780        2.21250       -2.21570
H          1.67070        1.54510       -3.72270
H          0.88980       -0.01010       -4.02730
H          1.51270        0.37050       -2.41620
H         -8.27680       -9.60290       -2.84700
H         -9.92190       -8.98470       -2.60520
H         -7.86170       -9.45220       -0.39000
H         -9.50880       -8.86170       -0.14890
H         -9.23880      -10.50180       -0.74550
H         -7.40690       -3.84650       -4.60190
H         -9.89210        1.12580       -5.08050
H        -10.70010        0.12270       -6.29170
H        -11.97220        2.06740       -7.10940
H        -12.13060        1.98740       -5.35820
H        -11.02070        3.15130       -6.08600
H         -8.69760        1.74600       -9.12210
H        -10.29710        2.30130       -8.63620
H        -10.35510        0.27520      -10.13210
H        -11.11490       -0.04430       -8.57630
H         -9.48430       -0.63970       -8.90040
H         -8.82900       -1.21960       -5.60000
H         -7.16420        4.90040       -5.91910
H         -2.62080        4.77780       -7.45460
H          1.63300        5.84960      -10.82480
H          0.39020        7.06640      -10.47220
H          3.27670        7.14050       -9.46420
H          2.61480        8.13490      -10.76550
H          2.03970        8.35000       -9.10820
H         -6.37100        3.54840        0.65260
H         -5.44570        4.04550        2.07920
H         -4.00320        2.01130        1.82500
H         -4.93820        1.53360        0.40410
H         -5.70340        1.56810        1.99730
H         -0.27170        4.53270       -0.78370
H          1.39310        2.57490       -0.29070
H         -0.29320       -2.63350        1.28170
H         -0.24740       -1.83490       -0.30710
H          1.90940       -3.69290        0.79370
H          0.73370       -4.09260       -0.45750
H          1.96540       -2.86350       -0.76910
H          9.06900        8.24110        1.72710
H          9.93620        8.04400        0.19270
H         11.20340        6.12390        1.17010
H         10.33170        6.32510        2.69450
H         11.43120        7.58840        2.13090
H          7.85550        3.23360        2.64530
H         11.56770       -0.80690        5.50520
H         12.00660        0.59040        4.52550
H         13.87560        1.10150        6.12540
H         13.99630       -0.55850        5.54080
H         13.35440       -0.23050        7.15200
H         12.15150        2.63180        7.27400
H         10.53590        3.11760        6.77820
H         12.97250        2.75890        4.96180
H         12.13780        4.25010        5.37390
H         11.35230        3.05550        4.34810
H          9.36860        2.46910        4.34380
H         11.52420       -1.09770        9.88120
H          9.85500       -3.11550       10.07440
