212

C          3.45770       -8.88360       10.49460
C          3.59500       -7.68650        9.88900
C          2.70490       -7.51820        8.78860
C          2.60120       -6.42590        7.91150
C          3.32190       -5.18870        8.15680
S          4.24990       -4.39550        6.91910
C          4.68760       -3.09450        7.97100
C          5.49810       -1.93940        7.49480
C          4.59040       -0.78470        7.06300
C          4.13050       -3.27190        9.20260
Cl         4.33530       -2.17780       10.50890
C          3.35790       -4.45740        9.31350
Cl         2.48910       -4.85760       10.73940
C          1.75510       -6.57580        6.81980
C          0.95510       -7.72640        6.61600
C          0.99990       -8.78590        7.53770
C          0.15280       -9.95660        7.38390
S          0.11310      -10.86040        5.89810
C         -1.05130      -11.98150        6.51580
C         -1.61060      -13.05850        5.65380
C         -2.68250      -12.50000        4.71430
C         -1.38180      -11.65960        7.79790
C         -0.69740      -10.51790        8.29600
Cl        -1.00100       -9.87630        9.85550
Cl        -2.51480      -12.53470        8.74380
C          1.89690       -8.66360        8.59310
S          2.24340       -9.88620        9.78210
C          0.15070       -7.61020        5.45480
C          0.33330       -6.44080        4.78100
S          1.49950       -5.39470        5.56680
C         -0.28310       -6.03150        3.56350
C         -0.04650       -4.88920        2.85920
C         -0.80290       -4.79390        1.66700
C         -0.74970       -3.78700        0.68750
C          0.23670       -2.72340        0.77080
S         -0.20080       -1.04620        0.64500
C          1.43220       -0.52080        0.85860
C          1.78980        0.92240        0.92280
C          1.95870        1.38050        2.37330
C          2.25800       -1.59470        1.01130
Cl         3.95220       -1.46380        1.24330
C          1.58770       -2.84440        0.95660
Cl         2.42570       -4.34170        1.03550
C         -1.65290       -3.88260       -0.36070
C         -2.56680       -4.95690       -0.50120
C         -2.57420       -5.99740        0.44630
C         -3.44420       -7.15170        0.29350
S         -3.43030       -8.08610       -1.17510
C         -4.59430       -9.21360       -0.56510
C         -5.09740      -10.33150       -1.41020
C         -6.11210       -9.82730       -2.43880
C         -4.96920       -8.86610        0.69750
C         -4.31770       -7.70200        1.18930
Cl        -4.68440       -7.02990        2.72250
Cl        -6.11290       -9.73960        1.63300
C         -1.69080       -5.88720        1.51300
S         -1.48530       -7.04750        2.79470
C         -3.38950       -4.80630       -1.64380
C         -3.10970       -3.68570       -2.37390
S         -1.80130       -2.75200       -1.67150
C         -3.75030       -3.19150       -3.54490
S         -3.01430       -1.87810       -4.42370
C         -4.35050       -1.83460       -5.50730
C         -4.64720       -0.80770       -6.42740
C         -5.97070       -0.63230       -6.81200
O         -6.93260       -1.52500       -6.50700
C         -6.52120       -2.86570       -6.11700
C         -6.17850       -3.61880       -7.42670
C         -5.24470       -4.81320       -7.27060
C         -7.77560       -3.39740       -5.39980
C         -7.94000       -4.90850       -5.30810
C         -5.30790       -2.79540       -5.21950
C         -4.95760       -3.56180       -4.10350
C         -6.19800        0.60890       -7.42980
C         -5.05190        1.37060       -7.52400
S         -3.66250        0.52940       -6.88240
C         -4.86460        2.74540       -7.84310
S         -3.22030        3.33280       -7.92120
C         -3.77920        4.95810       -7.79140
C         -3.01690        6.01280       -7.22640
C         -3.70880        6.93970       -6.46150
O         -5.03970        7.10510       -6.54360
C         -5.74180        6.43400       -7.62680
C         -5.51800        7.24550       -8.92090
C         -5.92450        8.70920       -8.79450
C         -7.20510        6.41310       -7.16280
C         -8.22490        6.11180       -8.25510
C         -5.16150        5.04990       -7.80290
C         -5.77070        3.78570       -7.83150
C         -2.90040        7.53200       -5.46470
C         -1.61640        7.06580       -5.48220
S         -1.34740        5.93310       -6.78430
C         -0.61130        7.05870       -4.43600
C         -0.65010        6.13080       -3.44640
C          0.52920        6.08380       -2.66200
C          0.85640        5.14640       -1.67040
C         -0.05270        4.05160       -1.35790
S         -0.69390        3.80560        0.23870
C         -1.63070        2.43700       -0.26500
C         -2.54690        1.71500        0.66240
C         -2.10500        1.80050        2.11640
C         -1.43360        2.19170       -1.59170
Cl        -2.18130        0.90330       -2.44590
C         -0.54530        3.10870       -2.21610
Cl        -0.11520        2.99550       -3.87490
C          2.09790        5.28040       -1.07320
C          3.02500        6.29150       -1.43020
C          2.71470        7.19080       -2.46590
C          3.68650        8.16010       -2.94300
S          3.28960        9.84550       -3.09560
C          4.85440       10.23760       -3.72060
C          5.22950       11.64130       -4.04500
C          5.79850       12.35500       -2.81640
C          5.62950        9.11880       -3.79450
C          4.97020        7.93820       -3.35990
Cl         5.70380        6.38870       -3.44420
Cl         7.24520        9.11210       -4.37180
C          1.46240        7.06780       -3.05760
S          0.87210        7.98510       -4.42110
C          4.21890        6.19900       -0.67130
C          4.24590        5.13270        0.17940
S          2.75270        4.21040        0.12940
C          5.30660        4.68970        1.01540
S          6.76860        5.62350        1.19950
C          7.42880        4.41500        2.24110
C          8.72420        4.36580        2.81400
C          9.14510        3.17520        3.38020
O          8.38540        2.06580        3.43910
C          6.95040        2.21480        3.35160
C          6.43530        0.87570        2.80090
C          6.82110       -0.32850        3.65080
C          6.45190        2.53480        4.78030
C          4.93880        2.61290        4.92420
C          6.56840        3.34760        2.42670
C          5.36790        3.51320        1.72920
C         10.48300        3.23220        3.83000
C         11.04260        4.45250        3.61270
S          9.97130        5.56360        2.85480
H          4.00300       -9.26110       11.33740
H          4.31610       -6.94810       10.18680
H          6.12020       -2.25310        6.65540
H          6.14610       -1.60530        8.30790
H          3.94780       -0.48360        7.88620
H          5.18950        0.07110        6.76420
H          3.96450       -1.08850        6.22710
H         -2.04600      -13.82770        6.29380
H         -0.80910      -13.50610        5.06310
H         -2.25870      -11.73130        4.07210
H         -3.08340      -13.29420        4.09040
H         -3.49630      -12.06330        5.28770
H         -0.53740       -8.36510        5.12080
H          0.64290       -4.13630        3.19560
H          1.01070        1.51120        0.43970
H          2.72530        1.08210        0.38240
H          2.77160        0.83640        2.84730
H          2.17340        2.44500        2.40270
H          1.05010        1.19730        2.94120
H         -4.25950      -10.80040       -1.92990
H         -5.56680      -11.07340       -0.76230
H         -6.47570      -10.65470       -3.04200
H         -5.64930       -9.09360       -3.09480
H         -6.95810       -9.36330       -1.93780
H         -4.15870       -5.50460       -1.91620
H         -7.11170       -3.92430       -7.90240
H         -5.69650       -2.89670       -8.09150
H         -5.65550       -5.56230       -6.60190
H         -4.27920       -4.50000       -6.88120
H         -5.08500       -5.27280       -8.24330
H         -7.78950       -2.96590       -4.39650
H         -8.62900       -2.98520       -5.94290
H         -8.85250       -5.12940       -4.75840
H         -7.11100       -5.37540       -4.78470
H         -8.02590       -5.35720       -6.29350
H         -5.56090       -4.34470       -3.68480
H         -7.16490        0.93650       -7.76190
H         -6.06300        6.76220       -9.73200
H         -4.45370        7.19500       -9.16350
H         -5.62400        9.25300       -9.68690
H         -5.43630        9.16060       -7.93430
H         -6.99890        8.81580       -8.67450
H         -7.28600        5.67210       -6.36490
H         -7.41800        7.38760       -6.72130
H         -8.31520        6.94030       -8.95160
H         -7.95360        5.22360       -8.81900
H         -9.20000        5.94670       -7.80230
H         -6.82890        3.61460       -7.76890
H         -3.27650        8.22300       -4.73330
H         -1.48680        5.47200       -3.30240
H         -3.55030        2.14110        0.56280
H         -2.59930        0.67160        0.34470
H         -2.81760        1.28520        2.75440
H         -2.03860        2.83860        2.43410
H         -1.13150        1.33550        2.23920
H          5.97920       11.62880       -4.83860
H          4.34870       12.17690       -4.40260
H          6.68600       11.83910       -2.45910
H          6.06730       13.37690       -3.06950
H          5.06160       12.37460       -2.01700
H          5.03790        6.88980       -0.75590
H          6.85740        0.75560        1.80070
H          5.35220        0.92460        2.70260
H          6.31820       -0.30760        4.61330
H          6.53180       -1.24230        3.13750
H          7.89490       -0.34480        3.81380
H          6.85780        1.77650        5.45180
H          6.89180        3.49430        5.06810
H          4.68310        2.89990        5.94150
H          4.52470        3.35610        4.24740
H          4.47250        1.65420        4.71570
H          4.56020        2.80460        1.72050
H         10.98830        2.40200        4.28660
H         12.03310        4.77510        3.86300
