
  xtb     02282222103D
 energy: -388.144692291771 gnorm: 0.000340772482 xtb: 6.4.1 (unknown)
212235  0     0  0            999 V2000
   -2.6370    0.6399   18.7914 C   0  0  0  0  0  0  0  0  0  0  0  0
   -1.9576    1.6903   18.2878 C   0  0  0  0  0  0  0  0  0  0  0  0
   -2.1538    1.8538   16.8858 C   0  0  0  0  0  0  0  0  0  0  0  0
   -1.5704    2.8012   16.0303 C   0  0  0  0  0  0  0  0  0  0  0  0
   -0.7296    3.8729   16.5378 C   0  0  0  0  0  0  0  0  0  0  0  0
    0.8532    4.1692   15.8839 S   0  0  0  0  0  0  0  0  0  0  0  0
    1.1177    5.5224   16.9307 C   0  0  0  0  0  0  0  0  0  0  0  0
    2.3716    6.3205   16.8442 C   0  0  0  0  0  0  0  0  0  0  0  0
    2.4150    7.1324   15.5481 C   0  0  0  0  0  0  0  0  0  0  0  0
    0.0316    5.7233   17.7288 C   0  0  0  0  0  0  0  0  0  0  0  0
   -0.0881    6.9792   18.8926 Cl  0  0  0  0  0  0  0  0  0  0  0  0
   -1.0158    4.7867   17.5131 C   0  0  0  0  0  0  0  0  0  0  0  0
   -2.5139    4.8672   18.3474 Cl  0  0  0  0  0  0  0  0  0  0  0  0
   -1.8338    2.6712   14.6732 C   0  0  0  0  0  0  0  0  0  0  0  0
   -2.6828    1.6701   14.1431 C   0  0  0  0  0  0  0  0  0  0  0  0
   -3.3066    0.7519   15.0044 C   0  0  0  0  0  0  0  0  0  0  0  0
   -4.1976   -0.2764   14.4937 C   0  0  0  0  0  0  0  0  0  0  0  0
   -3.6974   -1.3522   13.2213 S   0  0  0  0  0  0  0  0  0  0  0  0
   -5.2072   -2.1968   13.2318 C   0  0  0  0  0  0  0  0  0  0  0  0
   -5.4843   -3.2867   12.2564 C   0  0  0  0  0  0  0  0  0  0  0  0
   -5.9246   -2.7080   10.9095 C   0  0  0  0  0  0  0  0  0  0  0  0
   -6.0420   -1.6605   14.1657 C   0  0  0  0  0  0  0  0  0  0  0  0
   -5.4720   -0.5772   14.8879 C   0  0  0  0  0  0  0  0  0  0  0  0
   -6.3533    0.3048   16.0628 Cl  0  0  0  0  0  0  0  0  0  0  0  0
   -7.6348   -2.2251   14.4620 Cl  0  0  0  0  0  0  0  0  0  0  0  0
   -3.0150    0.8608   16.3598 C   0  0  0  0  0  0  0  0  0  0  0  0
   -3.5602   -0.2201   17.6100 S   0  0  0  0  0  0  0  0  0  0  0  0
   -2.8041    1.7747   12.7347 C   0  0  0  0  0  0  0  0  0  0  0  0
   -2.0795    2.7971   12.2003 C   0  0  0  0  0  0  0  0  0  0  0  0
   -1.2150    3.7102   13.4209 S   0  0  0  0  0  0  0  0  0  0  0  0
   -1.9523    3.1508   10.8260 C   0  0  0  0  0  0  0  0  0  0  0  0
   -1.2338    4.1821   10.2987 C   0  0  0  0  0  0  0  0  0  0  0  0
   -1.2872    4.2451    8.8855 C   0  0  0  0  0  0  0  0  0  0  0  0
   -0.6653    5.1774    8.0340 C   0  0  0  0  0  0  0  0  0  0  0  0
    0.1230    6.2709    8.5793 C   0  0  0  0  0  0  0  0  0  0  0  0
   -0.5460    7.3544    9.7646 S   0  0  0  0  0  0  0  0  0  0  0  0
    0.9223    8.2622    9.8817 C   0  0  0  0  0  0  0  0  0  0  0  0
    1.0566    9.3857   10.8492 C   0  0  0  0  0  0  0  0  0  0  0  0
    1.3639    8.8592   12.2534 C   0  0  0  0  0  0  0  0  0  0  0  0
    1.8666    7.7413    9.0490 C   0  0  0  0  0  0  0  0  0  0  0  0
    3.4579    8.3655    8.8970 Cl  0  0  0  0  0  0  0  0  0  0  0  0
    1.4167    6.6169    8.3050 C   0  0  0  0  0  0  0  0  0  0  0  0
    2.4479    5.7464    7.2494 Cl  0  0  0  0  0  0  0  0  0  0  0  0
   -0.8350    4.9949    6.6696 C   0  0  0  0  0  0  0  0  0  0  0  0
   -1.5865    3.9224    6.1244 C   0  0  0  0  0  0  0  0  0  0  0  0
   -2.2419    3.0166    6.9764 C   0  0  0  0  0  0  0  0  0  0  0  0
   -3.0786    1.9562    6.4417 C   0  0  0  0  0  0  0  0  0  0  0  0
   -2.8609    0.2986    6.9171 S   0  0  0  0  0  0  0  0  0  0  0  0
   -4.1545   -0.2443    5.9011 C   0  0  0  0  0  0  0  0  0  0  0  0
   -4.5346   -1.6830    5.8479 C   0  0  0  0  0  0  0  0  0  0  0  0
   -5.0016   -2.1862    7.2137 C   0  0  0  0  0  0  0  0  0  0  0  0
   -4.7164    0.8105    5.2465 C   0  0  0  0  0  0  0  0  0  0  0  0
   -4.1074    2.0589    5.5471 C   0  0  0  0  0  0  0  0  0  0  0  0
   -4.6809    3.5427    4.9023 Cl  0  0  0  0  0  0  0  0  0  0  0  0
   -6.0333    0.6759    4.1536 Cl  0  0  0  0  0  0  0  0  0  0  0  0
   -2.0604    3.1920    8.3410 C   0  0  0  0  0  0  0  0  0  0  0  0
   -2.7420    2.1903    9.5912 S   0  0  0  0  0  0  0  0  0  0  0  0
   -1.5444    3.9121    4.7118 C   0  0  0  0  0  0  0  0  0  0  0  0
   -0.8462    4.9566    4.1764 C   0  0  0  0  0  0  0  0  0  0  0  0
   -0.1912    6.0134    5.4124 S   0  0  0  0  0  0  0  0  0  0  0  0
   -0.5887    5.2029    2.8021 C   0  0  0  0  0  0  0  0  0  0  0  0
   -1.0880    4.0376    1.6015 S   0  0  0  0  0  0  0  0  0  0  0  0
   -0.3882    5.0017    0.3529 C   0  0  0  0  0  0  0  0  0  0  0  0
   -0.2742    4.6907   -1.0189 C   0  0  0  0  0  0  0  0  0  0  0  0
    0.5110    5.5058   -1.8243 C   0  0  0  0  0  0  0  0  0  0  0  0
    1.1388    6.6083   -1.3859 O   0  0  0  0  0  0  0  0  0  0  0  0
    0.7830    7.1769   -0.1070 C   0  0  0  0  0  0  0  0  0  0  0  0
    2.0890    7.7662    0.4481 C   0  0  0  0  0  0  0  0  0  0  0  0
    3.0978    6.6855    0.8200 C   0  0  0  0  0  0  0  0  0  0  0  0
   -0.2924    8.2641   -0.3484 C   0  0  0  0  0  0  0  0  0  0  0  0
    0.1520    9.3628   -1.3060 C   0  0  0  0  0  0  0  0  0  0  0  0
    0.1880    6.1621    0.8388 C   0  0  0  0  0  0  0  0  0  0  0  0
    0.0677    6.2697    2.2275 C   0  0  0  0  0  0  0  0  0  0  0  0
    0.6482    5.0060   -3.1284 C   0  0  0  0  0  0  0  0  0  0  0  0
   -0.0247    3.8199   -3.3175 C   0  0  0  0  0  0  0  0  0  0  0  0
   -0.8649    3.3129   -1.8759 S   0  0  0  0  0  0  0  0  0  0  0  0
   -0.0400    2.9810   -4.4642 C   0  0  0  0  0  0  0  0  0  0  0  0
   -0.6321    1.7547   -4.5710 C   0  0  0  0  0  0  0  0  0  0  0  0
   -0.3637    1.0995   -5.7934 C   0  0  0  0  0  0  0  0  0  0  0  0
   -0.7378   -0.1995   -6.1810 C   0  0  0  0  0  0  0  0  0  0  0  0
   -1.5592   -1.0455   -5.3309 C   0  0  0  0  0  0  0  0  0  0  0  0
   -1.1353   -1.3709   -3.6756 S   0  0  0  0  0  0  0  0  0  0  0  0
   -2.5114   -2.3926   -3.4393 C   0  0  0  0  0  0  0  0  0  0  0  0
   -2.7457   -3.0884   -2.1442 C   0  0  0  0  0  0  0  0  0  0  0  0
   -2.0190   -4.4349   -2.1070 C   0  0  0  0  0  0  0  0  0  0  0  0
   -3.2415   -2.4743   -4.5868 C   0  0  0  0  0  0  0  0  0  0  0  0
   -4.6815   -3.3943   -4.7391 Cl  0  0  0  0  0  0  0  0  0  0  0  0
   -2.7074   -1.7116   -5.6598 C   0  0  0  0  0  0  0  0  0  0  0  0
   -3.4930   -1.5877   -7.1773 Cl  0  0  0  0  0  0  0  0  0  0  0  0
   -0.2535   -0.6558   -7.3983 C   0  0  0  0  0  0  0  0  0  0  0  0
    0.5343    0.1393   -8.2687 C   0  0  0  0  0  0  0  0  0  0  0  0
    0.8590    1.4597   -7.9049 C   0  0  0  0  0  0  0  0  0  0  0  0
    1.6567    2.3152   -8.7680 C   0  0  0  0  0  0  0  0  0  0  0  0
    3.2057    1.8080   -9.3760 S   0  0  0  0  0  0  0  0  0  0  0  0
    3.4628    3.3068  -10.2057 C   0  0  0  0  0  0  0  0  0  0  0  0
    4.6859    3.5302  -11.0249 C   0  0  0  0  0  0  0  0  0  0  0  0
    4.6670    2.6730  -12.2919 C   0  0  0  0  0  0  0  0  0  0  0  0
    2.3990    4.1364  -10.0180 C   0  0  0  0  0  0  0  0  0  0  0  0
    1.3776    3.5818   -9.1992 C   0  0  0  0  0  0  0  0  0  0  0  0
   -0.0866    4.4100   -8.8727 Cl  0  0  0  0  0  0  0  0  0  0  0  0
    2.2768    5.7100  -10.6920 Cl  0  0  0  0  0  0  0  0  0  0  0  0
    0.4231    1.8975   -6.6611 C   0  0  0  0  0  0  0  0  0  0  0  0
    0.8351    3.4185   -5.9176 S   0  0  0  0  0  0  0  0  0  0  0  0
    0.9317   -0.5766   -9.4218 C   0  0  0  0  0  0  0  0  0  0  0  0
    0.5231   -1.8822   -9.4229 C   0  0  0  0  0  0  0  0  0  0  0  0
   -0.4356   -2.2720   -8.0108 S   0  0  0  0  0  0  0  0  0  0  0  0
    0.8304   -2.8948  -10.3725 C   0  0  0  0  0  0  0  0  0  0  0  0
    0.4738   -4.5669  -10.0247 S   0  0  0  0  0  0  0  0  0  0  0  0
    1.1971   -5.0531  -11.5134 C   0  0  0  0  0  0  0  0  0  0  0  0
    1.4018   -6.3627  -11.9967 C   0  0  0  0  0  0  0  0  0  0  0  0
    2.1861   -6.5406  -13.1291 C   0  0  0  0  0  0  0  0  0  0  0  0
    2.7468   -5.5307  -13.8161 O   0  0  0  0  0  0  0  0  0  0  0  0
    2.2697   -4.1845  -13.6144 C   0  0  0  0  0  0  0  0  0  0  0  0
    3.4951   -3.2865  -13.8439 C   0  0  0  0  0  0  0  0  0  0  0  0
    4.5429   -3.4498  -12.7487 C   0  0  0  0  0  0  0  0  0  0  0  0
    1.1459   -3.9128  -14.6445 C   0  0  0  0  0  0  0  0  0  0  0  0
    1.5824   -4.1018  -16.0919 C   0  0  0  0  0  0  0  0  0  0  0  0
    1.6771   -3.9771  -12.2416 C   0  0  0  0  0  0  0  0  0  0  0  0
    1.4639   -2.7596  -11.5911 C   0  0  0  0  0  0  0  0  0  0  0  0
    2.3945   -7.8914  -13.4404 C   0  0  0  0  0  0  0  0  0  0  0  0
    1.7735   -8.7459  -12.5556 C   0  0  0  0  0  0  0  0  0  0  0  0
    0.9049   -7.8740  -11.3184 S   0  0  0  0  0  0  0  0  0  0  0  0
    1.7840  -10.1636  -12.5503 C   0  0  0  0  0  0  0  0  0  0  0  0
    2.6036  -11.0624  -13.8039 S   0  0  0  0  0  0  0  0  0  0  0  0
    2.1520  -12.5538  -13.0574 C   0  0  0  0  0  0  0  0  0  0  0  0
    2.4792  -13.8743  -13.4520 C   0  0  0  0  0  0  0  0  0  0  0  0
    2.1858  -14.9107  -12.5831 C   0  0  0  0  0  0  0  0  0  0  0  0
    1.6130  -14.7444  -11.3766 O   0  0  0  0  0  0  0  0  0  0  0  0
    0.8720  -13.5376  -11.1232 C   0  0  0  0  0  0  0  0  0  0  0  0
   -0.5826  -13.7428  -11.6133 C   0  0  0  0  0  0  0  0  0  0  0  0
   -1.3169  -14.9020  -10.9535 C   0  0  0  0  0  0  0  0  0  0  0  0
    0.9723  -13.2482   -9.6074 C   0  0  0  0  0  0  0  0  0  0  0  0
    1.2034  -14.4777   -8.7353 C   0  0  0  0  0  0  0  0  0  0  0  0
    1.4209  -12.3610  -11.9004 C   0  0  0  0  0  0  0  0  0  0  0  0
    1.2102  -11.0075  -11.6233 C   0  0  0  0  0  0  0  0  0  0  0  0
    2.6155  -16.1649  -13.0712 C   0  0  0  0  0  0  0  0  0  0  0  0
    3.2079  -16.0625  -14.2911 C   0  0  0  0  0  0  0  0  0  0  0  0
    3.2662  -14.4481  -14.8815 S   0  0  0  0  0  0  0  0  0  0  0  0
   -2.6618    0.2978   19.8076 H   0  0  0  0  0  0  0  0  0  0  0  0
   -1.3208    2.3256   18.8750 H   0  0  0  0  0  0  0  0  0  0  0  0
    3.2330    5.6499   16.8779 H   0  0  0  0  0  0  0  0  0  0  0  0
    2.4179    6.9899   17.7045 H   0  0  0  0  0  0  0  0  0  0  0  0
    1.5720    7.8171   15.5025 H   0  0  0  0  0  0  0  0  0  0  0  0
    3.3349    7.7085   15.4984 H   0  0  0  0  0  0  0  0  0  0  0  0
    2.3694    6.4688   14.6879 H   0  0  0  0  0  0  0  0  0  0  0  0
   -6.2730   -3.9249   12.6583 H   0  0  0  0  0  0  0  0  0  0  0  0
   -4.5838   -3.8871   12.1161 H   0  0  0  0  0  0  0  0  0  0  0  0
   -6.1174   -3.5098   10.2022 H   0  0  0  0  0  0  0  0  0  0  0  0
   -6.8330   -2.1235   11.0302 H   0  0  0  0  0  0  0  0  0  0  0  0
   -5.1479   -2.0639   10.5045 H   0  0  0  0  0  0  0  0  0  0  0  0
   -3.4047    1.1185   12.1316 H   0  0  0  0  0  0  0  0  0  0  0  0
   -0.6761    4.8669   10.9114 H   0  0  0  0  0  0  0  0  0  0  0  0
    1.8646   10.0395   10.5169 H   0  0  0  0  0  0  0  0  0  0  0  0
    0.1282    9.9591   10.8723 H   0  0  0  0  0  0  0  0  0  0  0  0
    1.4627    9.6878   12.9491 H   0  0  0  0  0  0  0  0  0  0  0  0
    0.5633    8.2078   12.5957 H   0  0  0  0  0  0  0  0  0  0  0  0
    2.2932    8.2953   12.2499 H   0  0  0  0  0  0  0  0  0  0  0  0
   -5.3312   -1.8016    5.1118 H   0  0  0  0  0  0  0  0  0  0  0  0
   -3.6745   -2.2739    5.5229 H   0  0  0  0  0  0  0  0  0  0  0  0
   -4.2035   -2.0791    7.9444 H   0  0  0  0  0  0  0  0  0  0  0  0
   -5.2804   -3.2345    7.1503 H   0  0  0  0  0  0  0  0  0  0  0  0
   -5.8627   -1.6165    7.5536 H   0  0  0  0  0  0  0  0  0  0  0  0
   -1.9969    3.1498    4.1041 H   0  0  0  0  0  0  0  0  0  0  0  0
    2.5201    8.4002   -0.3262 H   0  0  0  0  0  0  0  0  0  0  0  0
    1.8586    8.3844    1.3159 H   0  0  0  0  0  0  0  0  0  0  0  0
    4.0305    7.1420    1.1417 H   0  0  0  0  0  0  0  0  0  0  0  0
    3.3015    6.0534   -0.0411 H   0  0  0  0  0  0  0  0  0  0  0  0
    2.7237    6.0605    1.6278 H   0  0  0  0  0  0  0  0  0  0  0  0
   -0.5725    8.6910    0.6161 H   0  0  0  0  0  0  0  0  0  0  0  0
   -1.1731    7.7633   -0.7606 H   0  0  0  0  0  0  0  0  0  0  0  0
    0.9075    9.9976   -0.8513 H   0  0  0  0  0  0  0  0  0  0  0  0
    0.5615    8.9245   -2.2126 H   0  0  0  0  0  0  0  0  0  0  0  0
   -0.6990    9.9840   -1.5746 H   0  0  0  0  0  0  0  0  0  0  0  0
    0.4435    7.0888    2.8143 H   0  0  0  0  0  0  0  0  0  0  0  0
    1.2319    5.4826   -3.8942 H   0  0  0  0  0  0  0  0  0  0  0  0
   -1.2190    1.3295   -3.7773 H   0  0  0  0  0  0  0  0  0  0  0  0
   -3.8187   -3.2497   -2.0229 H   0  0  0  0  0  0  0  0  0  0  0  0
   -2.3906   -2.4595   -1.3261 H   0  0  0  0  0  0  0  0  0  0  0  0
   -0.9482   -4.2891   -2.2273 H   0  0  0  0  0  0  0  0  0  0  0  0
   -2.2001   -4.9306   -1.1570 H   0  0  0  0  0  0  0  0  0  0  0  0
   -2.3746   -5.0765   -2.9091 H   0  0  0  0  0  0  0  0  0  0  0  0
    4.7339    4.5868  -11.2927 H   0  0  0  0  0  0  0  0  0  0  0  0
    5.5702    3.2800  -10.4347 H   0  0  0  0  0  0  0  0  0  0  0  0
    5.5609    2.8575  -12.8814 H   0  0  0  0  0  0  0  0  0  0  0  0
    4.6319    1.6177  -12.0310 H   0  0  0  0  0  0  0  0  0  0  0  0
    3.7957    2.9123  -12.8966 H   0  0  0  0  0  0  0  0  0  0  0  0
    1.5261   -0.1507  -10.2079 H   0  0  0  0  0  0  0  0  0  0  0  0
    3.9363   -3.5690  -14.7994 H   0  0  0  0  0  0  0  0  0  0  0  0
    3.1681   -2.2483  -13.9056 H   0  0  0  0  0  0  0  0  0  0  0  0
    5.4208   -2.8517  -12.9801 H   0  0  0  0  0  0  0  0  0  0  0  0
    4.1539   -3.1343  -11.7833 H   0  0  0  0  0  0  0  0  0  0  0  0
    4.8442   -4.4920  -12.6763 H   0  0  0  0  0  0  0  0  0  0  0  0
    0.3296   -4.6061  -14.4227 H   0  0  0  0  0  0  0  0  0  0  0  0
    0.7733   -2.8990  -14.4885 H   0  0  0  0  0  0  0  0  0  0  0  0
    0.7132   -4.0824  -16.7450 H   0  0  0  0  0  0  0  0  0  0  0  0
    2.2608   -3.3124  -16.4036 H   0  0  0  0  0  0  0  0  0  0  0  0
    2.0823   -5.0601  -16.2084 H   0  0  0  0  0  0  0  0  0  0  0  0
    1.7533   -1.8042  -11.9879 H   0  0  0  0  0  0  0  0  0  0  0  0
    2.9851   -8.2294  -14.2718 H   0  0  0  0  0  0  0  0  0  0  0  0
   -0.5336  -13.9205  -12.6920 H   0  0  0  0  0  0  0  0  0  0  0  0
   -1.1286  -12.8108  -11.4558 H   0  0  0  0  0  0  0  0  0  0  0  0
   -2.2577  -15.0815  -11.4692 H   0  0  0  0  0  0  0  0  0  0  0  0
   -1.5369  -14.6832   -9.9124 H   0  0  0  0  0  0  0  0  0  0  0  0
   -0.7155  -15.8060  -11.0075 H   0  0  0  0  0  0  0  0  0  0  0  0
    1.8084  -12.5629   -9.4488 H   0  0  0  0  0  0  0  0  0  0  0  0
    0.0597  -12.7382   -9.2961 H   0  0  0  0  0  0  0  0  0  0  0  0
    2.1346  -14.9647   -9.0093 H   0  0  0  0  0  0  0  0  0  0  0  0
    0.4001  -15.1991   -8.8368 H   0  0  0  0  0  0  0  0  0  0  0  0
    1.2658  -14.1700   -7.6937 H   0  0  0  0  0  0  0  0  0  0  0  0
    0.6589  -10.6359  -10.7783 H   0  0  0  0  0  0  0  0  0  0  0  0
    2.4850  -17.0845  -12.5322 H   0  0  0  0  0  0  0  0  0  0  0  0
    3.6135  -16.8505  -14.8930 H   0  0  0  0  0  0  0  0  0  0  0  0
  1  2  2  0  0  0  0
  2  3  1  0  0  0  0
  3  4  2  0  0  0  0
  4  5  1  0  0  0  0
  5  6  1  0  0  0  0
  6  7  1  0  0  0  0
  7  8  1  0  0  0  0
  8  9  1  0  0  0  0
  7 10  2  0  0  0  0
 10 11  1  0  0  0  0
 10 12  1  0  0  0  0
 12 13  1  0  0  0  0
  4 14  1  0  0  0  0
 14 15  2  0  0  0  0
 15 16  1  0  0  0  0
 16 17  1  0  0  0  0
 17 18  1  0  0  0  0
 18 19  1  0  0  0  0
 19 20  1  0  0  0  0
 20 21  1  0  0  0  0
 19 22  2  0  0  0  0
 22 23  1  0  0  0  0
 23 24  1  0  0  0  0
 22 25  1  0  0  0  0
 16 26  2  0  0  0  0
 26 27  1  0  0  0  0
 15 28  1  0  0  0  0
 28 29  2  0  0  0  0
 29 30  1  0  0  0  0
 29 31  1  0  0  0  0
 31 32  2  0  0  0  0
 32 33  1  0  0  0  0
 33 34  2  0  0  0  0
 34 35  1  0  0  0  0
 35 36  1  0  0  0  0
 36 37  1  0  0  0  0
 37 38  1  0  0  0  0
 38 39  1  0  0  0  0
 37 40  2  0  0  0  0
 40 41  1  0  0  0  0
 40 42  1  0  0  0  0
 42 43  1  0  0  0  0
 34 44  1  0  0  0  0
 44 45  2  0  0  0  0
 45 46  1  0  0  0  0
 46 47  1  0  0  0  0
 47 48  1  0  0  0  0
 48 49  1  0  0  0  0
 49 50  1  0  0  0  0
 50 51  1  0  0  0  0
 49 52  2  0  0  0  0
 52 53  1  0  0  0  0
 53 54  1  0  0  0  0
 52 55  1  0  0  0  0
 46 56  2  0  0  0  0
 56 57  1  0  0  0  0
 45 58  1  0  0  0  0
 58 59  2  0  0  0  0
 59 60  1  0  0  0  0
 59 61  1  0  0  0  0
 61 62  1  0  0  0  0
 62 63  1  0  0  0  0
 63 64  1  0  0  0  0
 64 65  2  0  0  0  0
 65 66  1  0  0  0  0
 66 67  1  0  0  0  0
 67 68  1  0  0  0  0
 68 69  1  0  0  0  0
 67 70  1  0  0  0  0
 70 71  1  0  0  0  0
 67 72  1  0  0  0  0
 72 73  1  0  0  0  0
 65 74  1  0  0  0  0
 74 75  2  0  0  0  0
 75 76  1  0  0  0  0
 75 77  1  0  0  0  0
 77 78  2  0  0  0  0
 78 79  1  0  0  0  0
 79 80  2  0  0  0  0
 80 81  1  0  0  0  0
 81 82  1  0  0  0  0
 82 83  1  0  0  0  0
 83 84  1  0  0  0  0
 84 85  1  0  0  0  0
 83 86  2  0  0  0  0
 86 87  1  0  0  0  0
 86 88  1  0  0  0  0
 88 89  1  0  0  0  0
 80 90  1  0  0  0  0
 90 91  2  0  0  0  0
 91 92  1  0  0  0  0
 92 93  1  0  0  0  0
 93 94  1  0  0  0  0
 94 95  1  0  0  0  0
 95 96  1  0  0  0  0
 96 97  1  0  0  0  0
 95 98  2  0  0  0  0
 98 99  1  0  0  0  0
 99100  1  0  0  0  0
 98101  1  0  0  0  0
 92102  2  0  0  0  0
102103  1  0  0  0  0
 91104  1  0  0  0  0
104105  2  0  0  0  0
105106  1  0  0  0  0
105107  1  0  0  0  0
107108  1  0  0  0  0
108109  1  0  0  0  0
109110  1  0  0  0  0
110111  2  0  0  0  0
111112  1  0  0  0  0
112113  1  0  0  0  0
113114  1  0  0  0  0
114115  1  0  0  0  0
113116  1  0  0  0  0
116117  1  0  0  0  0
113118  1  0  0  0  0
118119  1  0  0  0  0
111120  1  0  0  0  0
120121  2  0  0  0  0
121122  1  0  0  0  0
121123  1  0  0  0  0
123124  1  0  0  0  0
124125  1  0  0  0  0
125126  1  0  0  0  0
126127  2  0  0  0  0
127128  1  0  0  0  0
128129  1  0  0  0  0
129130  1  0  0  0  0
130131  1  0  0  0  0
129132  1  0  0  0  0
132133  1  0  0  0  0
129134  1  0  0  0  0
134135  1  0  0  0  0
127136  1  0  0  0  0
136137  2  0  0  0  0
137138  1  0  0  0  0
 27  1  1  0  0  0  0
 57 31  1  0  0  0  0
 73 61  2  0  0  0  0
103 77  1  0  0  0  0
119107  2  0  0  0  0
135123  2  0  0  0  0
 26  3  1  0  0  0  0
 56 33  1  0  0  0  0
 72 63  2  0  0  0  0
102 79  1  0  0  0  0
118109  2  0  0  0  0
134125  2  0  0  0  0
 12  5  2  0  0  0  0
 30 14  1  0  0  0  0
 42 35  2  0  0  0  0
 60 44  1  0  0  0  0
 76 64  1  0  0  0  0
 88 81  2  0  0  0  0
106 90  1  0  0  0  0
122110  1  0  0  0  0
138126  1  0  0  0  0
 23 17  2  0  0  0  0
 53 47  2  0  0  0  0
 99 93  2  0  0  0  0
  1139  1  0  0  0  0
  2140  1  0  0  0  0
  8141  1  0  0  0  0
  8142  1  0  0  0  0
  9143  1  0  0  0  0
  9144  1  0  0  0  0
  9145  1  0  0  0  0
 20146  1  0  0  0  0
 20147  1  0  0  0  0
 21148  1  0  0  0  0
 21149  1  0  0  0  0
 21150  1  0  0  0  0
 28151  1  0  0  0  0
 32152  1  0  0  0  0
 38153  1  0  0  0  0
 38154  1  0  0  0  0
 39155  1  0  0  0  0
 39156  1  0  0  0  0
 39157  1  0  0  0  0
 50158  1  0  0  0  0
 50159  1  0  0  0  0
 51160  1  0  0  0  0
 51161  1  0  0  0  0
 51162  1  0  0  0  0
 58163  1  0  0  0  0
 68164  1  0  0  0  0
 68165  1  0  0  0  0
 69166  1  0  0  0  0
 69167  1  0  0  0  0
 69168  1  0  0  0  0
 70169  1  0  0  0  0
 70170  1  0  0  0  0
 71171  1  0  0  0  0
 71172  1  0  0  0  0
 71173  1  0  0  0  0
 73174  1  0  0  0  0
 74175  1  0  0  0  0
 78176  1  0  0  0  0
 84177  1  0  0  0  0
 84178  1  0  0  0  0
 85179  1  0  0  0  0
 85180  1  0  0  0  0
 85181  1  0  0  0  0
 96182  1  0  0  0  0
 96183  1  0  0  0  0
 97184  1  0  0  0  0
 97185  1  0  0  0  0
 97186  1  0  0  0  0
104187  1  0  0  0  0
114188  1  0  0  0  0
114189  1  0  0  0  0
115190  1  0  0  0  0
115191  1  0  0  0  0
115192  1  0  0  0  0
116193  1  0  0  0  0
116194  1  0  0  0  0
117195  1  0  0  0  0
117196  1  0  0  0  0
117197  1  0  0  0  0
119198  1  0  0  0  0
120199  1  0  0  0  0
130200  1  0  0  0  0
130201  1  0  0  0  0
131202  1  0  0  0  0
131203  1  0  0  0  0
131204  1  0  0  0  0
132205  1  0  0  0  0
132206  1  0  0  0  0
133207  1  0  0  0  0
133208  1  0  0  0  0
133209  1  0  0  0  0
135210  1  0  0  0  0
136211  1  0  0  0  0
137212  1  0  0  0  0
M  END
