
  xtb     03012201533D
 energy: -215.609568350633 gnorm: 0.000211958256 xtb: 6.4.1 (unknown)
 85 92  0     0  0            999 V2000
   -8.0007   -4.0190   -6.0918 C   0  0  0  0  0  0  0  0  0  0  0  0
   -7.2664   -3.3723   -5.1856 O   0  0  0  0  0  0  0  0  0  0  0  0
   -6.2293   -4.1585   -4.8332 C   0  0  0  0  0  0  0  0  0  0  0  0
   -6.2961   -5.3469   -5.5403 C   0  0  0  0  0  0  0  0  0  0  0  0
   -7.4616   -5.2505   -6.3617 C   0  0  0  0  0  0  0  0  0  0  0  0
   -7.9692   -6.2059   -7.2630 C   0  0  0  0  0  0  0  0  0  0  0  0
   -8.3989   -6.9706   -7.9976 N   0  0  0  0  0  0  0  0  0  0  0  0
   -5.3418   -6.4838   -5.4918 C   0  0  0  0  0  0  0  0  0  0  0  0
   -5.5964   -7.4209   -6.4019 F   0  0  0  0  0  0  0  0  0  0  0  0
   -5.3376   -7.1034   -4.2912 F   0  0  0  0  0  0  0  0  0  0  0  0
   -4.0680   -6.0854   -5.6933 F   0  0  0  0  0  0  0  0  0  0  0  0
   -5.3040   -3.6509   -3.8706 C   0  0  0  0  0  0  0  0  0  0  0  0
   -5.4325   -1.9756   -3.4118 S   0  0  0  0  0  0  0  0  0  0  0  0
   -4.0946   -2.1562   -2.3400 C   0  0  0  0  0  0  0  0  0  0  0  0
   -3.4791   -1.1684   -1.5371 C   0  0  0  0  0  0  0  0  0  0  0  0
   -2.2973   -1.4990   -0.8717 C   0  0  0  0  0  0  0  0  0  0  0  0
   -1.7054   -2.6956   -0.9490 O   0  0  0  0  0  0  0  0  0  0  0  0
   -2.4606   -3.8379   -1.4138 C   0  0  0  0  0  0  0  0  0  0  0  0
   -1.4353   -4.7402   -2.1164 C   0  0  0  0  0  0  0  0  0  0  0  0
   -0.9338   -4.1424   -3.4261 C   0  0  0  0  0  0  0  0  0  0  0  0
   -3.1015   -4.5234   -0.1834 C   0  0  0  0  0  0  0  0  0  0  0  0
   -2.0875   -4.9750    0.8607 C   0  0  0  0  0  0  0  0  0  0  0  0
   -3.5828   -3.4436   -2.3415 C   0  0  0  0  0  0  0  0  0  0  0  0
   -4.2784   -4.2904   -3.2076 C   0  0  0  0  0  0  0  0  0  0  0  0
   -1.7633   -0.4168   -0.1666 C   0  0  0  0  0  0  0  0  0  0  0  0
   -2.5367    0.7251   -0.2859 C   0  0  0  0  0  0  0  0  0  0  0  0
   -3.9426    0.4704   -1.2779 S   0  0  0  0  0  0  0  0  0  0  0  0
   -2.2766    1.9832    0.3126 C   0  0  0  0  0  0  0  0  0  0  0  0
   -1.1951    2.1356    1.0995 O   0  0  0  0  0  0  0  0  0  0  0  0
   -1.1725    3.4096    1.5598 C   0  0  0  0  0  0  0  0  0  0  0  0
   -2.2459    4.1083    1.0445 C   0  0  0  0  0  0  0  0  0  0  0  0
   -2.9725    3.1910    0.2404 C   0  0  0  0  0  0  0  0  0  0  0  0
   -4.1506    3.4431   -0.4799 C   0  0  0  0  0  0  0  0  0  0  0  0
   -5.1162    3.6370   -1.0649 N   0  0  0  0  0  0  0  0  0  0  0  0
   -2.5694    5.5602    1.1747 C   0  0  0  0  0  0  0  0  0  0  0  0
   -1.4751    6.2860    1.4592 F   0  0  0  0  0  0  0  0  0  0  0  0
   -3.0615    6.0545    0.0327 F   0  0  0  0  0  0  0  0  0  0  0  0
   -3.4742    5.8070    2.1265 F   0  0  0  0  0  0  0  0  0  0  0  0
   -0.0940    3.7653    2.4384 C   0  0  0  0  0  0  0  0  0  0  0  0
    1.0675    3.0989    2.3012 O   0  0  0  0  0  0  0  0  0  0  0  0
    1.9245    3.5339    3.2437 C   0  0  0  0  0  0  0  0  0  0  0  0
    1.3203    4.5090    4.0083 C   0  0  0  0  0  0  0  0  0  0  0  0
   -0.0003    4.6570    3.4976 C   0  0  0  0  0  0  0  0  0  0  0  0
   -1.0012    5.4706    4.0619 C   0  0  0  0  0  0  0  0  0  0  0  0
   -1.8081    6.1001    4.5725 N   0  0  0  0  0  0  0  0  0  0  0  0
    1.9053    5.3404    5.1043 C   0  0  0  0  0  0  0  0  0  0  0  0
    1.5611    4.9044    6.3194 F   0  0  0  0  0  0  0  0  0  0  0  0
    1.5099    6.6131    5.0173 F   0  0  0  0  0  0  0  0  0  0  0  0
    3.2476    5.3525    5.0486 F   0  0  0  0  0  0  0  0  0  0  0  0
    3.2406    2.9457    3.2756 C   0  0  0  0  0  0  0  0  0  0  0  0
    3.8143    2.6069    2.1082 O   0  0  0  0  0  0  0  0  0  0  0  0
    5.0163    2.0623    2.3654 C   0  0  0  0  0  0  0  0  0  0  0  0
    5.2232    2.0115    3.7287 C   0  0  0  0  0  0  0  0  0  0  0  0
    4.0685    2.5911    4.3275 C   0  0  0  0  0  0  0  0  0  0  0  0
    3.8002    2.6804    5.7078 C   0  0  0  0  0  0  0  0  0  0  0  0
    3.5725    2.7123    6.8279 N   0  0  0  0  0  0  0  0  0  0  0  0
    6.3521    1.3852    4.4830 C   0  0  0  0  0  0  0  0  0  0  0  0
    6.9745    0.4516    3.7437 F   0  0  0  0  0  0  0  0  0  0  0  0
    5.9161    0.7632    5.5837 F   0  0  0  0  0  0  0  0  0  0  0  0
    7.2724    2.2699    4.8699 F   0  0  0  0  0  0  0  0  0  0  0  0
    5.8102    1.6523    1.2334 C   0  0  0  0  0  0  0  0  0  0  0  0
    5.1595    1.2476    0.1234 O   0  0  0  0  0  0  0  0  0  0  0  0
    6.0637    0.9521   -0.8053 C   0  0  0  0  0  0  0  0  0  0  0  0
    7.3265    1.1674   -0.3324 C   0  0  0  0  0  0  0  0  0  0  0  0
    7.1759    1.6338    1.0084 C   0  0  0  0  0  0  0  0  0  0  0  0
    8.2254    2.0606    1.8439 C   0  0  0  0  0  0  0  0  0  0  0  0
    9.0986    2.4350    2.4805 N   0  0  0  0  0  0  0  0  0  0  0  0
    8.6143    0.9696   -1.0601 C   0  0  0  0  0  0  0  0  0  0  0  0
    8.3995    0.5243   -2.3072 F   0  0  0  0  0  0  0  0  0  0  0  0
    9.3139    2.1059   -1.1683 F   0  0  0  0  0  0  0  0  0  0  0  0
    9.4074    0.0766   -0.4583 F   0  0  0  0  0  0  0  0  0  0  0  0
   -8.8730   -3.5320   -6.4804 H   0  0  0  0  0  0  0  0  0  0  0  0
   -1.8850   -5.7163   -2.2958 H   0  0  0  0  0  0  0  0  0  0  0  0
   -0.5922   -4.8661   -1.4379 H   0  0  0  0  0  0  0  0  0  0  0  0
   -0.5321   -3.1464   -3.2549 H   0  0  0  0  0  0  0  0  0  0  0  0
   -0.1451   -4.7661   -3.8377 H   0  0  0  0  0  0  0  0  0  0  0  0
   -1.7332   -4.0755   -4.1602 H   0  0  0  0  0  0  0  0  0  0  0  0
   -3.6892   -5.3739   -0.5313 H   0  0  0  0  0  0  0  0  0  0  0  0
   -3.7897   -3.8043    0.2703 H   0  0  0  0  0  0  0  0  0  0  0  0
   -1.5048   -5.8182    0.5015 H   0  0  0  0  0  0  0  0  0  0  0  0
   -1.4113   -4.1600    1.1061 H   0  0  0  0  0  0  0  0  0  0  0  0
   -2.6054   -5.2802    1.7662 H   0  0  0  0  0  0  0  0  0  0  0  0
   -4.0441   -5.3293   -3.3298 H   0  0  0  0  0  0  0  0  0  0  0  0
   -0.8537   -0.4580    0.4022 H   0  0  0  0  0  0  0  0  0  0  0  0
    5.7204    0.6010   -1.7590 H   0  0  0  0  0  0  0  0  0  0  0  0
  1  2  1  0  0  0  0
  2  3  1  0  0  0  0
  3  4  2  0  0  0  0
  4  5  1  0  0  0  0
  5  6  1  0  0  0  0
  6  7  3  0  0  0  0
  4  8  1  0  0  0  0
  8  9  1  0  0  0  0
  8 10  1  0  0  0  0
  8 11  1  0  0  0  0
  3 12  1  0  0  0  0
 12 13  1  0  0  0  0
 13 14  1  0  0  0  0
 14 15  1  0  0  0  0
 15 16  2  0  0  0  0
 16 17  1  0  0  0  0
 17 18  1  0  0  0  0
 18 19  1  0  0  0  0
 19 20  1  0  0  0  0
 18 21  1  0  0  0  0
 21 22  1  0  0  0  0
 18 23  1  0  0  0  0
 23 24  1  0  0  0  0
 16 25  1  0  0  0  0
 25 26  2  0  0  0  0
 26 27  1  0  0  0  0
 26 28  1  0  0  0  0
 28 29  1  0  0  0  0
 29 30  1  0  0  0  0
 30 31  2  0  0  0  0
 31 32  1  0  0  0  0
 32 33  1  0  0  0  0
 33 34  3  0  0  0  0
 31 35  1  0  0  0  0
 35 36  1  0  0  0  0
 35 37  1  0  0  0  0
 35 38  1  0  0  0  0
 30 39  1  0  0  0  0
 39 40  1  0  0  0  0
 40 41  1  0  0  0  0
 41 42  2  0  0  0  0
 42 43  1  0  0  0  0
 43 44  1  0  0  0  0
 44 45  3  0  0  0  0
 42 46  1  0  0  0  0
 46 47  1  0  0  0  0
 46 48  1  0  0  0  0
 46 49  1  0  0  0  0
 41 50  1  0  0  0  0
 50 51  1  0  0  0  0
 51 52  1  0  0  0  0
 52 53  2  0  0  0  0
 53 54  1  0  0  0  0
 54 55  1  0  0  0  0
 55 56  3  0  0  0  0
 53 57  1  0  0  0  0
 57 58  1  0  0  0  0
 57 59  1  0  0  0  0
 57 60  1  0  0  0  0
 52 61  1  0  0  0  0
 61 62  1  0  0  0  0
 62 63  1  0  0  0  0
 63 64  2  0  0  0  0
 64 65  1  0  0  0  0
 65 66  1  0  0  0  0
 66 67  3  0  0  0  0
 64 68  1  0  0  0  0
 68 69  1  0  0  0  0
 68 70  1  0  0  0  0
 68 71  1  0  0  0  0
  5  1  2  0  0  0  0
 24 12  2  0  0  0  0
 32 28  2  0  0  0  0
 43 39  2  0  0  0  0
 54 50  2  0  0  0  0
 65 61  2  0  0  0  0
 23 14  2  0  0  0  0
 27 15  1  0  0  0  0
  1 72  1  0  0  0  0
 19 73  1  0  0  0  0
 19 74  1  0  0  0  0
 20 75  1  0  0  0  0
 20 76  1  0  0  0  0
 20 77  1  0  0  0  0
 21 78  1  0  0  0  0
 21 79  1  0  0  0  0
 22 80  1  0  0  0  0
 22 81  1  0  0  0  0
 22 82  1  0  0  0  0
 24 83  1  0  0  0  0
 25 84  1  0  0  0  0
 63 85  1  0  0  0  0
M  END
