
  xtb     03022200583D
 energy: -220.739272148079 gnorm: 0.000321686361 xtb: 6.4.1 (unknown)
155167  0     0  0            999 V2000
   -2.2133   -6.9392   -2.4091 C   0  0  0  0  0  0  0  0  0  0  0  0
   -1.7893   -7.9788   -1.0980 S   0  0  0  0  0  0  0  0  0  0  0  0
   -1.7763   -6.6470    0.0005 C   0  0  0  0  0  0  0  0  0  0  0  0
   -2.0921   -5.4839   -0.6170 C   0  0  0  0  0  0  0  0  0  0  0  0
   -2.3395   -5.6503   -2.0095 C   0  0  0  0  0  0  0  0  0  0  0  0
   -2.7089   -4.4450   -2.8008 C   0  0  0  0  0  0  0  0  0  0  0  0
   -1.7877   -3.2402   -2.4821 C   0  0  0  0  0  0  0  0  0  0  0  0
   -1.3253   -3.1992   -1.0068 C   0  0  0  0  0  0  0  0  0  0  0  0
   -2.1543   -4.0963   -0.0805 C   0  0  0  0  0  0  0  0  0  0  0  0
   -0.5940   -3.2602   -3.4145 C   0  0  0  0  0  0  0  0  0  0  0  0
    0.2277   -4.3153   -3.4391 C   0  0  0  0  0  0  0  0  0  0  0  0
   -0.3366   -2.1499   -4.3049 C   0  0  0  0  0  0  0  0  0  0  0  0
   -0.9084   -0.9338   -4.3013 C   0  0  0  0  0  0  0  0  0  0  0  0
   -0.5783    0.1028   -5.2293 C   0  0  0  0  0  0  0  0  0  0  0  0
    0.4006   -0.2196   -6.6449 S   0  0  0  0  0  0  0  0  0  0  0  0
    0.2529    1.4116   -7.1793 C   0  0  0  0  0  0  0  0  0  0  0  0
   -0.4823    2.1618   -6.3203 C   0  0  0  0  0  0  0  0  0  0  0  0
   -0.9516    1.4227   -5.2052 C   0  0  0  0  0  0  0  0  0  0  0  0
   -1.7766    2.1635   -4.2131 C   0  0  0  0  0  0  0  0  0  0  0  0
   -2.9053    2.9074   -4.9642 C   0  0  0  0  0  0  0  0  0  0  0  0
   -2.3744    3.7514   -6.1452 C   0  0  0  0  0  0  0  0  0  0  0  0
   -0.8674    3.5978   -6.4099 C   0  0  0  0  0  0  0  0  0  0  0  0
   -3.9284    1.8658   -5.3693 C   0  0  0  0  0  0  0  0  0  0  0  0
   -3.8326    1.1714   -6.5072 C   0  0  0  0  0  0  0  0  0  0  0  0
   -4.9962    1.5543   -4.4410 C   0  0  0  0  0  0  0  0  0  0  0  0
   -5.1056    1.9812   -3.1712 C   0  0  0  0  0  0  0  0  0  0  0  0
   -6.1497    1.6155   -2.2670 C   0  0  0  0  0  0  0  0  0  0  0  0
   -7.4829    0.5943   -2.7392 S   0  0  0  0  0  0  0  0  0  0  0  0
   -8.1259    0.6418   -1.1462 C   0  0  0  0  0  0  0  0  0  0  0  0
   -7.3746    1.3967   -0.2987 C   0  0  0  0  0  0  0  0  0  0  0  0
   -6.2478    1.9665   -0.9386 C   0  0  0  0  0  0  0  0  0  0  0  0
   -5.2371    2.8029   -0.2172 C   0  0  0  0  0  0  0  0  0  0  0  0
   -5.6972    3.1809    1.1926 C   0  0  0  0  0  0  0  0  0  0  0  0
   -6.3514    1.9712    1.8740 C   0  0  0  0  0  0  0  0  0  0  0  0
   -7.6506    1.6157    1.1550 C   0  0  0  0  0  0  0  0  0  0  0  0
   -4.5894    3.7912    2.0369 C   0  0  0  0  0  0  0  0  0  0  0  0
   -4.8943    4.5153    3.1079 C   0  0  0  0  0  0  0  0  0  0  0  0
   -3.1832    3.6629    1.6172 C   0  0  0  0  0  0  0  0  0  0  0  0
   -2.4872    2.5367    1.4651 C   0  0  0  0  0  0  0  0  0  0  0  0
   -2.9688    1.2170    1.8339 C   0  0  0  0  0  0  0  0  0  0  0  0
   -3.0066   -0.0870    0.6683 S   0  0  0  0  0  0  0  0  0  0  0  0
   -3.6257   -1.1772    1.8528 C   0  0  0  0  0  0  0  0  0  0  0  0
   -3.7764   -0.5851    3.0618 C   0  0  0  0  0  0  0  0  0  0  0  0
   -3.3918    0.7850    3.0587 C   0  0  0  0  0  0  0  0  0  0  0  0
   -3.4341    1.5770    4.3220 C   0  0  0  0  0  0  0  0  0  0  0  0
   -3.0873    0.7508    5.5916 C   0  0  0  0  0  0  0  0  0  0  0  0
   -3.1086   -0.7753    5.3809 C   0  0  0  0  0  0  0  0  0  0  0  0
   -4.1683   -1.2000    4.3605 C   0  0  0  0  0  0  0  0  0  0  0  0
   -1.7664    1.1686    6.2053 C   0  0  0  0  0  0  0  0  0  0  0  0
   -1.7389    1.6225    7.4638 C   0  0  0  0  0  0  0  0  0  0  0  0
   -0.5276    1.0753    5.4647 C   0  0  0  0  0  0  0  0  0  0  0  0
   -0.3849    0.7094    4.1777 C   0  0  0  0  0  0  0  0  0  0  0  0
    0.8389    0.6501    3.4544 C   0  0  0  0  0  0  0  0  0  0  0  0
    2.4064    0.8567    4.1943 S   0  0  0  0  0  0  0  0  0  0  0  0
    3.1792    0.6409    2.6644 C   0  0  0  0  0  0  0  0  0  0  0  0
    4.5626    0.5068    2.3988 C   0  0  0  0  0  0  0  0  0  0  0  0
    4.9442   -0.0141    1.1717 C   0  0  0  0  0  0  0  0  0  0  0  0
    4.0642   -0.3347    0.1998 O   0  0  0  0  0  0  0  0  0  0  0  0
    2.7906    0.3467    0.2165 C   0  0  0  0  0  0  0  0  0  0  0  0
    3.0070    1.7835   -0.3143 C   0  0  0  0  0  0  0  0  0  0  0  0
    3.7242    1.8285   -1.6587 C   0  0  0  0  0  0  0  0  0  0  0  0
    1.8953   -0.5168   -0.6896 C   0  0  0  0  0  0  0  0  0  0  0  0
    0.6931    0.1762   -1.3190 C   0  0  0  0  0  0  0  0  0  0  0  0
    2.2727    0.4452    1.6342 C   0  0  0  0  0  0  0  0  0  0  0  0
    0.9546    0.4327    2.0973 C   0  0  0  0  0  0  0  0  0  0  0  0
    6.3273   -0.2324    1.0726 C   0  0  0  0  0  0  0  0  0  0  0  0
    7.0059    0.1253    2.2142 C   0  0  0  0  0  0  0  0  0  0  0  0
    5.9253    0.7541    3.4317 S   0  0  0  0  0  0  0  0  0  0  0  0
    8.4075    0.0394    2.4845 C   0  0  0  0  0  0  0  0  0  0  0  0
    9.1450    1.1636    3.6034 S   0  0  0  0  0  0  0  0  0  0  0  0
   10.6871    0.4299    3.3905 C   0  0  0  0  0  0  0  0  0  0  0  0
   10.6410   -0.6071    2.5164 C   0  0  0  0  0  0  0  0  0  0  0  0
    9.3416   -0.8430    1.9993 C   0  0  0  0  0  0  0  0  0  0  0  0
    9.1629   -1.9787    1.0515 C   0  0  0  0  0  0  0  0  0  0  0  0
    9.9100   -3.2563    1.5028 C   0  0  0  0  0  0  0  0  0  0  0  0
   11.1642   -2.9662    2.3580 C   0  0  0  0  0  0  0  0  0  0  0  0
   11.7224   -1.5580    2.1326 C   0  0  0  0  0  0  0  0  0  0  0  0
    9.0168   -4.1983    2.2832 C   0  0  0  0  0  0  0  0  0  0  0  0
    8.0779   -3.7550    3.1153 C   0  0  0  0  0  0  0  0  0  0  0  0
    9.2837   -5.6225    2.0849 C   0  0  0  0  0  0  0  0  0  0  0  0
    9.0367   -6.5851    2.9637 C   0  0  0  0  0  0  0  0  0  0  0  0
   -2.3399   -7.3544   -3.3889 H   0  0  0  0  0  0  0  0  0  0  0  0
   -1.5368   -6.8191    1.0310 H   0  0  0  0  0  0  0  0  0  0  0  0
   -2.6829   -4.6540   -3.8710 H   0  0  0  0  0  0  0  0  0  0  0  0
   -3.7369   -4.1728   -2.5394 H   0  0  0  0  0  0  0  0  0  0  0  0
   -2.3782   -2.3441   -2.6840 H   0  0  0  0  0  0  0  0  0  0  0  0
   -0.2853   -3.5269   -0.9482 H   0  0  0  0  0  0  0  0  0  0  0  0
   -1.3677   -2.1709   -0.6433 H   0  0  0  0  0  0  0  0  0  0  0  0
   -1.7702   -4.0445    0.9395 H   0  0  0  0  0  0  0  0  0  0  0  0
   -3.1949   -3.7581   -0.0794 H   0  0  0  0  0  0  0  0  0  0  0  0
    1.0740   -4.3536   -4.1037 H   0  0  0  0  0  0  0  0  0  0  0  0
    0.0833   -5.1681   -2.7997 H   0  0  0  0  0  0  0  0  0  0  0  0
    0.4370   -2.3336   -5.0416 H   0  0  0  0  0  0  0  0  0  0  0  0
   -1.6639   -0.6646   -3.5753 H   0  0  0  0  0  0  0  0  0  0  0  0
    0.7252    1.7084   -8.0948 H   0  0  0  0  0  0  0  0  0  0  0  0
   -2.2065    1.4997   -3.4631 H   0  0  0  0  0  0  0  0  0  0  0  0
   -1.1452    2.8942   -3.6972 H   0  0  0  0  0  0  0  0  0  0  0  0
   -3.3822    3.5910   -4.2574 H   0  0  0  0  0  0  0  0  0  0  0  0
   -2.5812    4.8065   -5.9559 H   0  0  0  0  0  0  0  0  0  0  0  0
   -2.9174    3.4799   -7.0507 H   0  0  0  0  0  0  0  0  0  0  0  0
   -0.3094    4.1568   -5.6517 H   0  0  0  0  0  0  0  0  0  0  0  0
   -0.6142    4.0149   -7.3855 H   0  0  0  0  0  0  0  0  0  0  0  0
   -3.0396    1.3191   -7.2184 H   0  0  0  0  0  0  0  0  0  0  0  0
   -4.5497    0.4069   -6.7540 H   0  0  0  0  0  0  0  0  0  0  0  0
   -5.7550    0.8790   -4.8174 H   0  0  0  0  0  0  0  0  0  0  0  0
   -4.3588    2.6317   -2.7381 H   0  0  0  0  0  0  0  0  0  0  0  0
   -9.0265    0.1023   -0.9284 H   0  0  0  0  0  0  0  0  0  0  0  0
   -5.0280    3.7145   -0.7849 H   0  0  0  0  0  0  0  0  0  0  0  0
   -4.3064    2.2334   -0.1674 H   0  0  0  0  0  0  0  0  0  0  0  0
   -6.4756    3.9490    1.1001 H   0  0  0  0  0  0  0  0  0  0  0  0
   -6.5586    2.2016    2.9204 H   0  0  0  0  0  0  0  0  0  0  0  0
   -5.6760    1.1168    1.8406 H   0  0  0  0  0  0  0  0  0  0  0  0
   -8.0972    0.7190    1.5904 H   0  0  0  0  0  0  0  0  0  0  0  0
   -8.3712    2.4322    1.2709 H   0  0  0  0  0  0  0  0  0  0  0  0
   -4.1345    4.9649    3.7244 H   0  0  0  0  0  0  0  0  0  0  0  0
   -5.9139    4.6668    3.4207 H   0  0  0  0  0  0  0  0  0  0  0  0
   -2.6931    4.6037    1.3966 H   0  0  0  0  0  0  0  0  0  0  0  0
   -1.4820    2.5783    1.0610 H   0  0  0  0  0  0  0  0  0  0  0  0
   -3.8369   -2.1897    1.5745 H   0  0  0  0  0  0  0  0  0  0  0  0
   -2.7652    2.4357    4.2413 H   0  0  0  0  0  0  0  0  0  0  0  0
   -4.4464    1.9767    4.4341 H   0  0  0  0  0  0  0  0  0  0  0  0
   -3.8614    0.9806    6.3311 H   0  0  0  0  0  0  0  0  0  0  0  0
   -2.1334   -1.1198    5.0324 H   0  0  0  0  0  0  0  0  0  0  0  0
   -3.2995   -1.2562    6.3420 H   0  0  0  0  0  0  0  0  0  0  0  0
   -5.1507   -0.8322    4.6703 H   0  0  0  0  0  0  0  0  0  0  0  0
   -4.2161   -2.2868    4.2809 H   0  0  0  0  0  0  0  0  0  0  0  0
   -2.6314    1.7160    8.0586 H   0  0  0  0  0  0  0  0  0  0  0  0
   -0.8185    1.9168    7.9389 H   0  0  0  0  0  0  0  0  0  0  0  0
    0.3621    1.3483    6.0202 H   0  0  0  0  0  0  0  0  0  0  0  0
   -1.2446    0.4449    3.5844 H   0  0  0  0  0  0  0  0  0  0  0  0
    2.0401    2.2832   -0.3735 H   0  0  0  0  0  0  0  0  0  0  0  0
    3.6110    2.3195    0.4236 H   0  0  0  0  0  0  0  0  0  0  0  0
    3.1285    1.3722   -2.4441 H   0  0  0  0  0  0  0  0  0  0  0  0
    4.6697    1.2957   -1.5956 H   0  0  0  0  0  0  0  0  0  0  0  0
    3.9276    2.8609   -1.9343 H   0  0  0  0  0  0  0  0  0  0  0  0
    1.5545   -1.3713   -0.1008 H   0  0  0  0  0  0  0  0  0  0  0  0
    2.5342   -0.9063   -1.4837 H   0  0  0  0  0  0  0  0  0  0  0  0
    0.0514    0.6387   -0.5747 H   0  0  0  0  0  0  0  0  0  0  0  0
    0.1105   -0.5642   -1.8600 H   0  0  0  0  0  0  0  0  0  0  0  0
    0.9956    0.9399   -2.0292 H   0  0  0  0  0  0  0  0  0  0  0  0
    0.0916    0.2670    1.4797 H   0  0  0  0  0  0  0  0  0  0  0  0
    6.7962   -0.6048    0.1822 H   0  0  0  0  0  0  0  0  0  0  0  0
   11.5313    0.8146    3.9272 H   0  0  0  0  0  0  0  0  0  0  0  0
    9.5670   -1.6687    0.0818 H   0  0  0  0  0  0  0  0  0  0  0  0
    8.1087   -2.2156    0.9126 H   0  0  0  0  0  0  0  0  0  0  0  0
   10.2296   -3.7720    0.5909 H   0  0  0  0  0  0  0  0  0  0  0  0
   11.9297   -3.7140    2.1454 H   0  0  0  0  0  0  0  0  0  0  0  0
   10.9005   -3.0561    3.4147 H   0  0  0  0  0  0  0  0  0  0  0  0
   12.6173   -1.4002    2.7354 H   0  0  0  0  0  0  0  0  0  0  0  0
   11.9864   -1.4239    1.0800 H   0  0  0  0  0  0  0  0  0  0  0  0
    7.8987   -2.7059    3.2714 H   0  0  0  0  0  0  0  0  0  0  0  0
    7.4452   -4.4308    3.6635 H   0  0  0  0  0  0  0  0  0  0  0  0
    9.7446   -5.8804    1.1387 H   0  0  0  0  0  0  0  0  0  0  0  0
    8.6118   -6.3812    3.9316 H   0  0  0  0  0  0  0  0  0  0  0  0
    9.2593   -7.6164    2.7490 H   0  0  0  0  0  0  0  0  0  0  0  0
  1  2  1  0  0  0  0
  2  3  1  0  0  0  0
  3  4  2  0  0  0  0
  4  5  1  0  0  0  0
  5  6  1  0  0  0  0
  6  7  1  0  0  0  0
  7  8  1  0  0  0  0
  8  9  1  0  0  0  0
  7 10  1  0  0  0  0
 10 11  2  0  0  0  0
 10 12  1  0  0  0  0
 12 13  2  0  0  0  0
 13 14  1  0  0  0  0
 14 15  1  0  0  0  0
 15 16  1  0  0  0  0
 16 17  2  0  0  0  0
 17 18  1  0  0  0  0
 18 19  1  0  0  0  0
 19 20  1  0  0  0  0
 20 21  1  0  0  0  0
 21 22  1  0  0  0  0
 20 23  1  0  0  0  0
 23 24  2  0  0  0  0
 23 25  1  0  0  0  0
 25 26  2  0  0  0  0
 26 27  1  0  0  0  0
 27 28  1  0  0  0  0
 28 29  1  0  0  0  0
 29 30  2  0  0  0  0
 30 31  1  0  0  0  0
 31 32  1  0  0  0  0
 32 33  1  0  0  0  0
 33 34  1  0  0  0  0
 34 35  1  0  0  0  0
 33 36  1  0  0  0  0
 36 37  2  0  0  0  0
 36 38  1  0  0  0  0
 38 39  2  0  0  0  0
 39 40  1  0  0  0  0
 40 41  1  0  0  0  0
 41 42  1  0  0  0  0
 42 43  2  0  0  0  0
 43 44  1  0  0  0  0
 44 45  1  0  0  0  0
 45 46  1  0  0  0  0
 46 47  1  0  0  0  0
 47 48  1  0  0  0  0
 46 49  1  0  0  0  0
 49 50  2  0  0  0  0
 49 51  1  0  0  0  0
 51 52  2  0  0  0  0
 52 53  1  0  0  0  0
 53 54  1  0  0  0  0
 54 55  1  0  0  0  0
 55 56  1  0  0  0  0
 56 57  2  0  0  0  0
 57 58  1  0  0  0  0
 58 59  1  0  0  0  0
 59 60  1  0  0  0  0
 60 61  1  0  0  0  0
 59 62  1  0  0  0  0
 62 63  1  0  0  0  0
 59 64  1  0  0  0  0
 64 65  1  0  0  0  0
 57 66  1  0  0  0  0
 66 67  2  0  0  0  0
 67 68  1  0  0  0  0
 67 69  1  0  0  0  0
 69 70  1  0  0  0  0
 70 71  1  0  0  0  0
 71 72  2  0  0  0  0
 72 73  1  0  0  0  0
 73 74  1  0  0  0  0
 74 75  1  0  0  0  0
 75 76  1  0  0  0  0
 76 77  1  0  0  0  0
 75 78  1  0  0  0  0
 78 79  2  0  0  0  0
 78 80  1  0  0  0  0
 80 81  2  0  0  0  0
  5  1  2  0  0  0  0
 18 14  2  0  0  0  0
 31 27  2  0  0  0  0
 44 40  2  0  0  0  0
 65 53  2  0  0  0  0
 73 69  2  0  0  0  0
  9  4  1  0  0  0  0
 22 17  1  0  0  0  0
 35 30  1  0  0  0  0
 48 43  1  0  0  0  0
 64 55  2  0  0  0  0
 77 72  1  0  0  0  0
 68 56  1  0  0  0  0
  1 82  1  0  0  0  0
  3 83  1  0  0  0  0
  6 84  1  0  0  0  0
  6 85  1  0  0  0  0
  7 86  1  0  0  0  0
  8 87  1  0  0  0  0
  8 88  1  0  0  0  0
  9 89  1  0  0  0  0
  9 90  1  0  0  0  0
 11 91  1  0  0  0  0
 11 92  1  0  0  0  0
 12 93  1  0  0  0  0
 13 94  1  0  0  0  0
 16 95  1  0  0  0  0
 19 96  1  0  0  0  0
 19 97  1  0  0  0  0
 20 98  1  0  0  0  0
 21 99  1  0  0  0  0
 21100  1  0  0  0  0
 22101  1  0  0  0  0
 22102  1  0  0  0  0
 24103  1  0  0  0  0
 24104  1  0  0  0  0
 25105  1  0  0  0  0
 26106  1  0  0  0  0
 29107  1  0  0  0  0
 32108  1  0  0  0  0
 32109  1  0  0  0  0
 33110  1  0  0  0  0
 34111  1  0  0  0  0
 34112  1  0  0  0  0
 35113  1  0  0  0  0
 35114  1  0  0  0  0
 37115  1  0  0  0  0
 37116  1  0  0  0  0
 38117  1  0  0  0  0
 39118  1  0  0  0  0
 42119  1  0  0  0  0
 45120  1  0  0  0  0
 45121  1  0  0  0  0
 46122  1  0  0  0  0
 47123  1  0  0  0  0
 47124  1  0  0  0  0
 48125  1  0  0  0  0
 48126  1  0  0  0  0
 50127  1  0  0  0  0
 50128  1  0  0  0  0
 51129  1  0  0  0  0
 52130  1  0  0  0  0
 60131  1  0  0  0  0
 60132  1  0  0  0  0
 61133  1  0  0  0  0
 61134  1  0  0  0  0
 61135  1  0  0  0  0
 62136  1  0  0  0  0
 62137  1  0  0  0  0
 63138  1  0  0  0  0
 63139  1  0  0  0  0
 63140  1  0  0  0  0
 65141  1  0  0  0  0
 66142  1  0  0  0  0
 71143  1  0  0  0  0
 74144  1  0  0  0  0
 74145  1  0  0  0  0
 75146  1  0  0  0  0
 76147  1  0  0  0  0
 76148  1  0  0  0  0
 77149  1  0  0  0  0
 77150  1  0  0  0  0
 79151  1  0  0  0  0
 79152  1  0  0  0  0
 80153  1  0  0  0  0
 81154  1  0  0  0  0
 81155  1  0  0  0  0
M  END
