
  xtb     03022214273D
 energy: -236.638863490938 gnorm: 0.000240956497 xtb: 6.4.1 (unknown)
135147  0     0  0            999 V2000
    7.3152    6.0705    8.5129 C   0  0  0  0  0  0  0  0  0  0  0  0
    7.2798    4.3674    8.3618 S   0  0  0  0  0  0  0  0  0  0  0  0
    6.1902    4.4554    7.0037 C   0  0  0  0  0  0  0  0  0  0  0  0
    5.8675    5.7685    6.7282 C   0  0  0  0  0  0  0  0  0  0  0  0
    6.5269    6.6853    7.5869 C   0  0  0  0  0  0  0  0  0  0  0  0
    6.3316    8.1689    7.5058 C   0  0  0  0  0  0  0  0  0  0  0  0
    5.5407    8.5787    8.5786 F   0  0  0  0  0  0  0  0  0  0  0  0
    5.6423    8.5706    6.2086 C   0  0  0  0  0  0  0  0  0  0  0  0
    4.4374    7.6678    5.9602 C   0  0  0  0  0  0  0  0  0  0  0  0
    4.8971    6.2393    5.6896 C   0  0  0  0  0  0  0  0  0  0  0  0
    5.4969    6.2092    4.4298 F   0  0  0  0  0  0  0  0  0  0  0  0
    5.7978    3.2147    6.4051 C   0  0  0  0  0  0  0  0  0  0  0  0
    5.3098    3.0661    5.1579 C   0  0  0  0  0  0  0  0  0  0  0  0
    4.8973    1.8559    4.5164 C   0  0  0  0  0  0  0  0  0  0  0  0
    4.0486    2.0639    3.0092 S   0  0  0  0  0  0  0  0  0  0  0  0
    3.8257    0.3592    2.8149 C   0  0  0  0  0  0  0  0  0  0  0  0
    4.4030   -0.3235    3.8662 C   0  0  0  0  0  0  0  0  0  0  0  0
    5.0086    0.5120    4.8298 C   0  0  0  0  0  0  0  0  0  0  0  0
    5.7280   -0.0585    6.0184 C   0  0  0  0  0  0  0  0  0  0  0  0
    6.9854    0.5157    6.1419 F   0  0  0  0  0  0  0  0  0  0  0  0
    5.9256   -1.5688    5.9015 C   0  0  0  0  0  0  0  0  0  0  0  0
    4.6459   -2.2435    5.4348 C   0  0  0  0  0  0  0  0  0  0  0  0
    4.3498   -1.8168    4.0019 C   0  0  0  0  0  0  0  0  0  0  0  0
    3.0970   -2.2891    3.6440 F   0  0  0  0  0  0  0  0  0  0  0  0
    3.2534   -0.2223    1.6332 C   0  0  0  0  0  0  0  0  0  0  0  0
    2.3240    0.3075    0.8218 C   0  0  0  0  0  0  0  0  0  0  0  0
    1.5102    1.4722    1.0462 C   0  0  0  0  0  0  0  0  0  0  0  0
    0.8447    1.8491    2.6084 S   0  0  0  0  0  0  0  0  0  0  0  0
   -0.0843    3.1621    1.9572 C   0  0  0  0  0  0  0  0  0  0  0  0
    0.1520    3.3173    0.6155 C   0  0  0  0  0  0  0  0  0  0  0  0
    1.0260    2.3344    0.0917 C   0  0  0  0  0  0  0  0  0  0  0  0
    1.4119    2.2922   -1.3536 C   0  0  0  0  0  0  0  0  0  0  0  0
    2.7384    2.6983   -1.4900 F   0  0  0  0  0  0  0  0  0  0  0  0
    0.5271    3.2041   -2.1952 C   0  0  0  0  0  0  0  0  0  0  0  0
    0.3723    4.5659   -1.5229 C   0  0  0  0  0  0  0  0  0  0  0  0
   -0.4194    4.4155   -0.2292 C   0  0  0  0  0  0  0  0  0  0  0  0
   -1.7471    4.1446   -0.5596 F   0  0  0  0  0  0  0  0  0  0  0  0
   -1.0050    3.9201    2.7912 C   0  0  0  0  0  0  0  0  0  0  0  0
   -2.3404    3.8268    2.6922 C   0  0  0  0  0  0  0  0  0  0  0  0
   -3.0789    2.9387    1.8471 C   0  0  0  0  0  0  0  0  0  0  0  0
   -2.3605    1.5699    1.0431 S   0  0  0  0  0  0  0  0  0  0  0  0
   -3.8684    1.1678    0.3221 C   0  0  0  0  0  0  0  0  0  0  0  0
   -4.1560    0.0855   -0.5384 C   0  0  0  0  0  0  0  0  0  0  0  0
   -5.4812   -0.1897   -0.8441 C   0  0  0  0  0  0  0  0  0  0  0  0
   -6.5112    0.5308   -0.3592 O   0  0  0  0  0  0  0  0  0  0  0  0
   -6.2510    1.8870    0.0752 C   0  0  0  0  0  0  0  0  0  0  0  0
   -6.3413    2.7712   -1.1933 C   0  0  0  0  0  0  0  0  0  0  0  0
   -6.0107    4.2425   -0.9869 C   0  0  0  0  0  0  0  0  0  0  0  0
   -7.3734    2.2015    1.0731 C   0  0  0  0  0  0  0  0  0  0  0  0
   -7.3026    1.3194    2.3141 C   0  0  0  0  0  0  0  0  0  0  0  0
   -4.8834    2.0309    0.6937 C   0  0  0  0  0  0  0  0  0  0  0  0
   -4.4274    3.0218    1.5693 C   0  0  0  0  0  0  0  0  0  0  0  0
   -5.6304   -1.3163   -1.6663 C   0  0  0  0  0  0  0  0  0  0  0  0
   -4.4256   -1.8944   -2.0041 C   0  0  0  0  0  0  0  0  0  0  0  0
   -3.0835   -1.0342   -1.2876 S   0  0  0  0  0  0  0  0  0  0  0  0
   -4.1263   -2.9895   -2.8667 C   0  0  0  0  0  0  0  0  0  0  0  0
   -2.5096   -3.1275   -3.4830 S   0  0  0  0  0  0  0  0  0  0  0  0
   -2.8968   -4.5559   -4.3990 C   0  0  0  0  0  0  0  0  0  0  0  0
   -4.2344   -4.8814   -4.2368 C   0  0  0  0  0  0  0  0  0  0  0  0
   -4.9182   -4.0141   -3.3568 C   0  0  0  0  0  0  0  0  0  0  0  0
   -6.3420   -4.2555   -2.9477 C   0  0  0  0  0  0  0  0  0  0  0  0
   -6.4788   -4.0943   -1.5781 F   0  0  0  0  0  0  0  0  0  0  0  0
   -6.7872   -5.6689   -3.3082 C   0  0  0  0  0  0  0  0  0  0  0  0
   -6.4451   -5.9508   -4.7613 C   0  0  0  0  0  0  0  0  0  0  0  0
   -4.9309   -6.0097   -4.9415 C   0  0  0  0  0  0  0  0  0  0  0  0
   -4.6685   -5.9510   -6.3051 F   0  0  0  0  0  0  0  0  0  0  0  0
   -1.8119   -5.1531   -5.1018 C   0  0  0  0  0  0  0  0  0  0  0  0
   -1.7819   -6.3264   -5.7687 C   0  0  0  0  0  0  0  0  0  0  0  0
   -0.6123   -6.8267   -6.4078 C   0  0  0  0  0  0  0  0  0  0  0  0
    0.8884   -5.9529   -6.4034 S   0  0  0  0  0  0  0  0  0  0  0  0
    1.6897   -7.1813   -7.3366 C   0  0  0  0  0  0  0  0  0  0  0  0
    0.8154   -8.2027   -7.6504 C   0  0  0  0  0  0  0  0  0  0  0  0
   -0.4762   -8.0098   -7.1112 C   0  0  0  0  0  0  0  0  0  0  0  0
   -1.5888   -9.0020   -7.2887 C   0  0  0  0  0  0  0  0  0  0  0  0
   -2.2188   -9.2444   -6.0736 F   0  0  0  0  0  0  0  0  0  0  0  0
   -1.0718  -10.3301   -7.8304 C   0  0  0  0  0  0  0  0  0  0  0  0
   -0.1409  -10.0768   -9.0050 C   0  0  0  0  0  0  0  0  0  0  0  0
    1.1309   -9.3828   -8.5240 C   0  0  0  0  0  0  0  0  0  0  0  0
    1.8444   -8.9795   -9.6415 F   0  0  0  0  0  0  0  0  0  0  0  0
    3.0883   -6.9643   -7.6073 C   0  0  0  0  0  0  0  0  0  0  0  0
    3.9937   -7.8612   -7.9880 C   0  0  0  0  0  0  0  0  0  0  0  0
    7.9098    6.5306    9.2767 H   0  0  0  0  0  0  0  0  0  0  0  0
    7.2845    8.6977    7.6379 H   0  0  0  0  0  0  0  0  0  0  0  0
    5.3281    9.6124    6.2818 H   0  0  0  0  0  0  0  0  0  0  0  0
    6.3520    8.4737    5.3856 H   0  0  0  0  0  0  0  0  0  0  0  0
    3.7856    7.6712    6.8350 H   0  0  0  0  0  0  0  0  0  0  0  0
    3.8714    8.0223    5.0978 H   0  0  0  0  0  0  0  0  0  0  0  0
    4.0410    5.5547    5.6181 H   0  0  0  0  0  0  0  0  0  0  0  0
    5.9732    2.3563    7.0328 H   0  0  0  0  0  0  0  0  0  0  0  0
    5.1995    3.9344    4.5265 H   0  0  0  0  0  0  0  0  0  0  0  0
    5.1929    0.1935    6.9468 H   0  0  0  0  0  0  0  0  0  0  0  0
    6.2432   -1.9647    6.8667 H   0  0  0  0  0  0  0  0  0  0  0  0
    6.7267   -1.7511    5.1810 H   0  0  0  0  0  0  0  0  0  0  0  0
    4.7407   -3.3288    5.4820 H   0  0  0  0  0  0  0  0  0  0  0  0
    3.8058   -1.9455    6.0664 H   0  0  0  0  0  0  0  0  0  0  0  0
    5.0506   -2.2930    3.2981 H   0  0  0  0  0  0  0  0  0  0  0  0
    3.6686   -1.1848    1.3630 H   0  0  0  0  0  0  0  0  0  0  0  0
    2.1106   -0.2114   -0.1049 H   0  0  0  0  0  0  0  0  0  0  0  0
    1.3912    1.2621   -1.7351 H   0  0  0  0  0  0  0  0  0  0  0  0
    0.9771    3.3174   -3.1821 H   0  0  0  0  0  0  0  0  0  0  0  0
   -0.4521    2.7358   -2.3067 H   0  0  0  0  0  0  0  0  0  0  0  0
   -0.1548    5.2557   -2.1831 H   0  0  0  0  0  0  0  0  0  0  0  0
    1.3547    4.9798   -1.2917 H   0  0  0  0  0  0  0  0  0  0  0  0
   -0.4604    5.3558    0.3368 H   0  0  0  0  0  0  0  0  0  0  0  0
   -0.5658    4.5795    3.5278 H   0  0  0  0  0  0  0  0  0  0  0  0
   -2.9534    4.4744    3.3062 H   0  0  0  0  0  0  0  0  0  0  0  0
   -5.6468    2.3531   -1.9277 H   0  0  0  0  0  0  0  0  0  0  0  0
   -7.3517    2.6673   -1.5950 H   0  0  0  0  0  0  0  0  0  0  0  0
   -6.6818    4.7007   -0.2652 H   0  0  0  0  0  0  0  0  0  0  0  0
   -4.9864    4.3644   -0.6438 H   0  0  0  0  0  0  0  0  0  0  0  0
   -6.1180    4.7716   -1.9308 H   0  0  0  0  0  0  0  0  0  0  0  0
   -8.3241    2.0349    0.5644 H   0  0  0  0  0  0  0  0  0  0  0  0
   -7.3141    3.2515    1.3567 H   0  0  0  0  0  0  0  0  0  0  0  0
   -6.3797    1.4955    2.8623 H   0  0  0  0  0  0  0  0  0  0  0  0
   -8.1427    1.5297    2.9713 H   0  0  0  0  0  0  0  0  0  0  0  0
   -7.3394    0.2717    2.0272 H   0  0  0  0  0  0  0  0  0  0  0  0
   -5.0472    3.7997    1.9778 H   0  0  0  0  0  0  0  0  0  0  0  0
   -6.5898   -1.6666   -1.9907 H   0  0  0  0  0  0  0  0  0  0  0  0
   -7.0109   -3.5095   -3.4033 H   0  0  0  0  0  0  0  0  0  0  0  0
   -6.2686   -6.3733   -2.6538 H   0  0  0  0  0  0  0  0  0  0  0  0
   -7.8592   -5.7672   -3.1342 H   0  0  0  0  0  0  0  0  0  0  0  0
   -6.8351   -5.1534   -5.3987 H   0  0  0  0  0  0  0  0  0  0  0  0
   -6.8853   -6.8930   -5.0889 H   0  0  0  0  0  0  0  0  0  0  0  0
   -4.5324   -6.9782   -4.6043 H   0  0  0  0  0  0  0  0  0  0  0  0
   -0.8914   -4.5818   -5.0497 H   0  0  0  0  0  0  0  0  0  0  0  0
   -2.6540   -6.9501   -5.8490 H   0  0  0  0  0  0  0  0  0  0  0  0
   -2.3717   -8.5849   -7.9398 H   0  0  0  0  0  0  0  0  0  0  0  0
   -0.5352  -10.8437   -7.0289 H   0  0  0  0  0  0  0  0  0  0  0  0
   -1.9139  -10.9546   -8.1305 H   0  0  0  0  0  0  0  0  0  0  0  0
   -0.6287   -9.4311   -9.7391 H   0  0  0  0  0  0  0  0  0  0  0  0
    0.1243  -11.0125   -9.4985 H   0  0  0  0  0  0  0  0  0  0  0  0
    1.7826  -10.0941   -7.9939 H   0  0  0  0  0  0  0  0  0  0  0  0
    3.4067   -5.9452   -7.4233 H   0  0  0  0  0  0  0  0  0  0  0  0
    5.0186   -7.5705   -8.1388 H   0  0  0  0  0  0  0  0  0  0  0  0
    3.7655   -8.8951   -8.1656 H   0  0  0  0  0  0  0  0  0  0  0  0
  1  2  1  0  0  0  0
  2  3  1  0  0  0  0
  3  4  2  0  0  0  0
  4  5  1  0  0  0  0
  5  6  1  0  0  0  0
  6  7  1  0  0  0  0
  6  8  1  0  0  0  0
  8  9  1  0  0  0  0
  9 10  1  0  0  0  0
 10 11  1  0  0  0  0
  3 12  1  0  0  0  0
 12 13  2  0  0  0  0
 13 14  1  0  0  0  0
 14 15  1  0  0  0  0
 15 16  1  0  0  0  0
 16 17  2  0  0  0  0
 17 18  1  0  0  0  0
 18 19  1  0  0  0  0
 19 20  1  0  0  0  0
 19 21  1  0  0  0  0
 21 22  1  0  0  0  0
 22 23  1  0  0  0  0
 23 24  1  0  0  0  0
 16 25  1  0  0  0  0
 25 26  2  0  0  0  0
 26 27  1  0  0  0  0
 27 28  1  0  0  0  0
 28 29  1  0  0  0  0
 29 30  2  0  0  0  0
 30 31  1  0  0  0  0
 31 32  1  0  0  0  0
 32 33  1  0  0  0  0
 32 34  1  0  0  0  0
 34 35  1  0  0  0  0
 35 36  1  0  0  0  0
 36 37  1  0  0  0  0
 29 38  1  0  0  0  0
 38 39  2  0  0  0  0
 39 40  1  0  0  0  0
 40 41  1  0  0  0  0
 41 42  1  0  0  0  0
 42 43  1  0  0  0  0
 43 44  2  0  0  0  0
 44 45  1  0  0  0  0
 45 46  1  0  0  0  0
 46 47  1  0  0  0  0
 47 48  1  0  0  0  0
 46 49  1  0  0  0  0
 49 50  1  0  0  0  0
 46 51  1  0  0  0  0
 51 52  1  0  0  0  0
 44 53  1  0  0  0  0
 53 54  2  0  0  0  0
 54 55  1  0  0  0  0
 54 56  1  0  0  0  0
 56 57  1  0  0  0  0
 57 58  1  0  0  0  0
 58 59  2  0  0  0  0
 59 60  1  0  0  0  0
 60 61  1  0  0  0  0
 61 62  1  0  0  0  0
 61 63  1  0  0  0  0
 63 64  1  0  0  0  0
 64 65  1  0  0  0  0
 65 66  1  0  0  0  0
 58 67  1  0  0  0  0
 67 68  2  0  0  0  0
 68 69  1  0  0  0  0
 69 70  1  0  0  0  0
 70 71  1  0  0  0  0
 71 72  2  0  0  0  0
 72 73  1  0  0  0  0
 73 74  1  0  0  0  0
 74 75  1  0  0  0  0
 74 76  1  0  0  0  0
 76 77  1  0  0  0  0
 77 78  1  0  0  0  0
 78 79  1  0  0  0  0
 71 80  1  0  0  0  0
 80 81  2  0  0  0  0
  5  1  2  0  0  0  0
 18 14  2  0  0  0  0
 31 27  2  0  0  0  0
 52 40  2  0  0  0  0
 60 56  2  0  0  0  0
 73 69  2  0  0  0  0
 10  4  1  0  0  0  0
 23 17  1  0  0  0  0
 36 30  1  0  0  0  0
 51 42  2  0  0  0  0
 65 59  1  0  0  0  0
 78 72  1  0  0  0  0
 55 43  1  0  0  0  0
  1 82  1  0  0  0  0
  6 83  1  0  0  0  0
  8 84  1  0  0  0  0
  8 85  1  0  0  0  0
  9 86  1  0  0  0  0
  9 87  1  0  0  0  0
 10 88  1  0  0  0  0
 12 89  1  0  0  0  0
 13 90  1  0  0  0  0
 19 91  1  0  0  0  0
 21 92  1  0  0  0  0
 21 93  1  0  0  0  0
 22 94  1  0  0  0  0
 22 95  1  0  0  0  0
 23 96  1  0  0  0  0
 25 97  1  0  0  0  0
 26 98  1  0  0  0  0
 32 99  1  0  0  0  0
 34100  1  0  0  0  0
 34101  1  0  0  0  0
 35102  1  0  0  0  0
 35103  1  0  0  0  0
 36104  1  0  0  0  0
 38105  1  0  0  0  0
 39106  1  0  0  0  0
 47107  1  0  0  0  0
 47108  1  0  0  0  0
 48109  1  0  0  0  0
 48110  1  0  0  0  0
 48111  1  0  0  0  0
 49112  1  0  0  0  0
 49113  1  0  0  0  0
 50114  1  0  0  0  0
 50115  1  0  0  0  0
 50116  1  0  0  0  0
 52117  1  0  0  0  0
 53118  1  0  0  0  0
 61119  1  0  0  0  0
 63120  1  0  0  0  0
 63121  1  0  0  0  0
 64122  1  0  0  0  0
 64123  1  0  0  0  0
 65124  1  0  0  0  0
 67125  1  0  0  0  0
 68126  1  0  0  0  0
 74127  1  0  0  0  0
 76128  1  0  0  0  0
 76129  1  0  0  0  0
 77130  1  0  0  0  0
 77131  1  0  0  0  0
 78132  1  0  0  0  0
 80133  1  0  0  0  0
 81134  1  0  0  0  0
 81135  1  0  0  0  0
M  END
