254

C          2.27460      -13.52520        2.74590
C          3.06130      -13.12690        1.72520
C          2.65830      -11.87700        1.17120
C          3.25460      -11.14930        0.12840
C          4.50350      -11.57180       -0.48410
S          4.66500      -11.70780       -2.20910
C          6.33050      -12.16520       -2.09560
C          7.14500      -12.39470       -3.32030
C          7.47550      -11.06920       -4.01050
C          6.72440      -12.20050       -0.79130
Cl         8.31190      -12.60280       -0.27700
C          5.69040      -11.86930        0.12580
Cl         5.95520      -11.77210        1.81910
C          2.60590       -9.99170       -0.28160
C          1.42820       -9.51520        0.34010
C          0.88160      -10.19300        1.43830
C         -0.25220       -9.63770        2.16950
S         -0.07870       -8.15370        3.05920
C         -1.71720       -8.20350        3.61110
C         -2.25340       -7.17000        4.53940
C         -1.95360       -7.52920        5.99610
C         -2.34530       -9.31250        3.12890
C         -1.51630      -10.12980        2.31250
Cl        -2.07370      -11.55960        1.55030
Cl        -3.98530       -9.69390        3.45310
C          1.49930      -11.37650        1.81460
S          0.98950      -12.42490        3.10580
C          0.93320       -8.34490       -0.28330
C          1.71110       -7.90620       -1.31000
S          3.11580       -8.92450       -1.56310
C          1.49460       -6.73600       -2.09810
C          2.40470       -6.01820       -2.81180
C          1.87450       -4.81810       -3.34860
C          2.56430       -3.80620       -4.03730
C          3.97480       -3.96420       -4.35670
S          4.52180       -5.32260       -5.29450
C          6.17640       -4.82050       -5.20230
C          7.25790       -5.64430       -5.80910
C          7.50340       -6.91460       -4.99160
C          6.28090       -3.67010       -4.47990
Cl         7.76390       -2.86760       -4.15980
C          5.03480       -3.17930       -4.00150
Cl         4.91390       -1.79040       -3.00530
C          1.84720       -2.66280       -4.35730
C          0.46780       -2.50880       -4.06100
C         -0.24010       -3.54980       -3.43180
C         -1.66730       -3.46880       -3.18560
S         -2.34420       -3.96850       -1.66470
C         -3.95610       -3.59180       -2.15490
C         -5.08710       -3.74190       -1.19830
C         -5.02450       -2.67090       -0.10770
C         -3.96010       -3.12200       -3.43480
C         -2.66960       -3.06070       -4.02680
Cl        -2.44660       -2.62070       -5.67080
Cl        -5.37790       -2.65270       -4.27950
C          0.50310       -4.65880       -3.04210
S         -0.09610       -6.00440       -2.11870
C          0.00310       -1.21610       -4.40240
C          0.95790       -0.42120       -4.96550
S          2.49470       -1.24340       -5.12790
C          0.84190        0.96620       -5.27450
C          1.85130        1.86380       -5.46750
C          1.41210        3.21020       -5.49880
C          2.20840        4.37300       -5.49940
C          3.63830        4.28860       -5.72830
S          4.79110        5.06780       -4.68570
C          6.13420        4.49240       -5.61290
C          7.52910        4.87140       -5.25730
C          7.85970        6.27370       -5.77360
C          5.69940        3.75380       -6.67300
Cl         6.74060        3.03080       -7.82960
C          4.28640        3.62830       -6.73770
Cl         3.49350        2.79680       -8.01230
C          1.56850        5.56670       -5.19040
C          0.16400        5.65750       -5.03880
C         -0.64510        4.51340       -5.14350
C         -2.07900        4.60930       -4.90480
S         -3.09750        5.58840       -5.91700
C         -4.50900        5.22810       -4.98000
C         -5.84660        5.74710       -5.37580
C         -6.42260        4.94400       -6.54360
C         -4.19070        4.39890       -3.94730
C         -2.81260        4.05240       -3.89610
Cl        -2.14930        3.10030       -2.63390
Cl        -5.32180        3.82550       -2.79310
C          0.00730        3.30490       -5.32770
S         -0.73170        1.73320       -5.23180
C         -0.23780        6.90550       -4.51310
C          0.80910        7.72300       -4.18720
S          2.33980        7.06770       -4.74170
C          0.74060        8.68010       -3.12470
C         -0.40920        9.06370       -2.49240
C         -0.22940        9.30000       -1.10830
C         -1.24230        9.29040       -0.13490
C         -2.65140        9.24410       -0.51440
S         -3.76180       10.51060       -0.10100
C         -5.08920        9.69750       -0.85880
C         -6.46450       10.26660       -0.82580
C         -7.19750        9.84350        0.44960
C         -4.67990        8.50770       -1.38210
Cl        -5.70900        7.41280       -2.20810
C         -3.29690        8.24720       -1.18900
Cl        -2.54690        6.78660       -1.70530
C         -0.84590        9.05940        1.17230
C          0.51270        8.95460        1.55460
C          1.53650        9.15250        0.60390
C          2.92420        9.10090        1.01510
S          4.12350        8.16590        0.17110
C          5.36920        8.61310        1.28700
C          6.76750        8.13830        1.10070
C          7.45740        8.89900       -0.03360
C          4.87520        9.45170        2.24180
C          3.48890        9.72200        2.09860
Cl         2.64400       10.78300        3.14880
Cl         5.81560       10.12400        3.51040
C          1.13310        9.22280       -0.72360
S          2.15420        8.92480       -2.10590
C          0.65490        8.29190        2.79920
C         -0.52900        7.85700        3.32270
S         -1.90950        8.47300        2.42530
C         -0.69630        6.69570        4.14480
C          0.20270        5.66620        4.14940
C         -0.34310        4.43820        4.58610
C          0.23020        3.16330        4.42430
C          1.61040        3.00880        4.00690
S          2.04240        1.94760        2.69650
C          3.71960        2.35540        2.81070
C          4.72650        1.75590        1.89020
C          4.40180        0.30610        1.54370
C          3.91740        3.26310        3.80910
Cl         5.45240        3.91180        4.22350
C          2.72740        3.63710        4.48840
Cl         2.73250        4.70690        5.83110
C         -0.63050        2.08160        4.55060
C         -1.98920        2.20120        4.93570
C         -2.52590        3.47430        5.21180
C         -3.90420        3.66790        5.62410
S         -5.23870        2.93280        4.78520
C         -6.40800        3.68880        5.81210
C         -7.86220        3.41520        5.65070
C         -8.24100        2.07650        6.28860
C         -5.78590        4.45490        6.75200
C         -4.36960        4.45550        6.64230
Cl        -3.36500        5.29990        7.74370
Cl        -6.61360        5.34950        7.95940
C         -1.69830        4.56780        4.97450
S         -2.23150        6.22470        4.83780
C         -2.66220        0.95280        4.87450
C         -1.87810       -0.06230        4.41280
S         -0.22100        0.44210        4.15110
C         -2.25230       -1.36570        3.96940
C         -1.49190       -2.16780        3.17140
C         -2.16840       -3.32420        2.71800
C         -1.70460       -4.28580        1.80550
C         -0.41490       -4.10150        1.15490
S          0.85010       -5.28840        1.24070
C          1.93570       -4.31790        0.30860
C          3.34670       -4.72790        0.07060
C          4.26430       -4.14600        1.14910
C          1.33620       -3.14640       -0.04690
Cl         2.08940       -1.93960       -1.00570
C          0.01040       -3.01310        0.44110
Cl        -0.93850       -1.62130        0.11560
C         -2.55380       -5.35210        1.53770
C         -3.84830       -5.46060        2.10050
C         -4.32290       -4.47670        2.98060
C         -5.65310       -4.55410        3.56480
S         -7.08380       -4.62030        2.58060
C         -8.12740       -4.64620        3.96100
C         -9.60450       -4.75250        3.80970
C        -10.03520       -6.21300        3.65370
C         -7.39370       -4.61970        5.10930
C         -5.99110       -4.56090        4.88810
Cl        -4.84930       -4.57220        6.16520
Cl        -8.07730       -4.64460        6.68330
C         -3.46910       -3.42110        3.26990
S         -3.84280       -2.03640        4.26050
C         -4.51790       -6.64050        1.66190
C         -3.77670       -7.37600        0.80980
S         -2.22550       -6.69030        0.47710
H          2.35890      -14.42130        3.32920
H          3.89380      -13.69710        1.35680
H          8.06660      -12.90490       -3.03630
H          6.59140      -13.03270       -4.01230
H          8.04080      -10.42530       -3.34140
H          6.56020      -10.55580       -4.29480
H          8.06770      -11.25080       -4.90310
H         -3.33370       -7.09710        4.39920
H         -1.80620       -6.20250        4.30380
H         -0.88020       -7.59400        6.15680
H         -2.40250       -8.48630        6.24880
H         -2.36180       -6.76800        6.65530
H          0.03100       -7.84950        0.02000
H          3.43210       -6.31880       -2.91130
H          8.17000       -5.04690       -5.84950
H          6.97680       -5.92050       -6.82740
H          6.59710       -7.51400       -4.94530
H          8.29070       -7.50730       -5.44910
H          7.80340       -6.65950       -3.97820
H         -5.04230       -4.72910       -0.73270
H         -6.02590       -3.65880       -1.74750
H         -5.83330       -2.81580        0.60360
H         -4.07680       -2.73080        0.42300
H         -5.11410       -1.67970       -0.54470
H         -0.98640       -0.85800       -4.18460
H          2.88490        1.56970       -5.50200
H          8.21350        4.14530       -5.69930
H          7.64540        4.84860       -4.17230
H          7.76330        6.30890       -6.85580
H          8.87870        6.53980       -5.50600
H          7.18060        7.00380       -5.33970
H         -5.75890        6.79640       -5.66480
H         -6.51530        5.67710       -4.51630
H         -7.40040        5.33150       -6.81690
H         -5.76560        5.01080       -7.40760
H         -6.52710        3.89800       -6.26630
H         -1.25620        7.12100       -4.24970
H         -1.37410        9.05020       -2.96270
H         -6.40750       11.35550       -0.86860
H         -7.01370        9.90890       -1.69900
H         -6.65950       10.19260        1.32770
H         -8.19870       10.26540        0.46190
H         -7.27430        8.76030        0.49810
H          7.31390        8.28810        2.03320
H          6.75970        7.07160        0.86760
H          6.91790        8.75290       -0.96650
H          8.47600        8.54150       -0.15730
H          7.48640        9.96270        0.18880
H          1.60870        8.03510        3.22180
H          1.18440        5.75130        3.72270
H          4.76400        2.34590        0.96880
H          5.70770        1.82240        2.36540
H          4.36100       -0.30020        2.44560
H          3.43910        0.24230        1.04150
H          5.16380       -0.10040        0.88370
H         -8.11190        3.39320        4.58820
H         -8.42350        4.22130        6.12610
H         -9.30470        1.89220        6.16570
H         -7.68890        1.26540        5.81940
H         -8.00960        2.08650        7.35070
H         -3.70410        0.81840        5.10120
H         -0.48140       -1.92270        2.90040
H          3.41700       -5.81640        0.07650
H          3.66130       -4.35890       -0.90790
H          5.29200       -4.44570        0.96360
H          4.21020       -3.06040        1.14140
H          3.96700       -4.50440        2.13160
H        -10.07780       -4.32440        4.69520
H         -9.92190       -4.18480        2.93330
H         -9.57560       -6.65030        2.77040
H         -9.73440       -6.78990        4.52460
H        -11.11520       -6.27430        3.55150
H         -5.50520       -6.91560        1.98410
H         -4.03620       -8.30400        0.33960
