
  xtb     03012209103D
 energy: -210.237024516898 gnorm: 0.000395979570 xtb: 6.4.1 (unknown)
134147  0     0  0            999 V2000
    5.2435    3.8044    2.9699 C   0  0  0  0  0  0  0  0  0  0  0  0
    6.4271    3.7170    3.6485 C   0  0  0  0  0  0  0  0  0  0  0  0
    7.2673    2.6107    3.4732 C   0  0  0  0  0  0  0  0  0  0  0  0
    6.9323    1.5778    2.6269 C   0  0  0  0  0  0  0  0  0  0  0  0
    5.7315    1.6770    1.8653 C   0  0  0  0  0  0  0  0  0  0  0  0
    4.8733    2.7924    2.0626 C   0  0  0  0  0  0  0  0  0  0  0  0
    3.6692    2.8234    1.3281 C   0  0  0  0  0  0  0  0  0  0  0  0
    3.3880    1.8121    0.4516 C   0  0  0  0  0  0  0  0  0  0  0  0
    4.3343    0.7837    0.2971 C   0  0  0  0  0  0  0  0  0  0  0  0
    5.4479    0.7138    0.9675 N   0  0  0  0  0  0  0  0  0  0  0  0
    7.8106    0.4220    2.4719 C   0  0  0  0  0  0  0  0  0  0  0  0
    7.4359   -0.8640    2.5130 C   0  0  0  0  0  0  0  0  0  0  0  0
    6.1428   -1.3857    2.8483 C   0  0  0  0  0  0  0  0  0  0  0  0
    4.9802   -0.5131    3.8104 S   0  0  0  0  0  0  0  0  0  0  0  0
    3.8661   -1.8277    3.7053 C   0  0  0  0  0  0  0  0  0  0  0  0
    2.5586   -1.9121    4.2412 C   0  0  0  0  0  0  0  0  0  0  0  0
    1.8699   -3.1061    4.1220 C   0  0  0  0  0  0  0  0  0  0  0  0
    2.3660   -4.2124    3.5390 O   0  0  0  0  0  0  0  0  0  0  0  0
    3.5533   -4.1301    2.7199 C   0  0  0  0  0  0  0  0  0  0  0  0
    3.1147   -4.1400    1.2389 C   0  0  0  0  0  0  0  0  0  0  0  0
    2.4084   -2.8561    0.8170 C   0  0  0  0  0  0  0  0  0  0  0  0
    4.3849   -5.3806    3.0760 C   0  0  0  0  0  0  0  0  0  0  0  0
    3.6366   -6.6933    2.8771 C   0  0  0  0  0  0  0  0  0  0  0  0
    4.3753   -2.8928    2.9902 C   0  0  0  0  0  0  0  0  0  0  0  0
    5.6699   -2.6349    2.5202 C   0  0  0  0  0  0  0  0  0  0  0  0
    0.5931   -3.0602    4.7124 C   0  0  0  0  0  0  0  0  0  0  0  0
    0.2977   -1.8337    5.2515 C   0  0  0  0  0  0  0  0  0  0  0  0
    1.6103   -0.7065    5.0343 S   0  0  0  0  0  0  0  0  0  0  0  0
   -0.9404   -1.3937    5.8607 C   0  0  0  0  0  0  0  0  0  0  0  0
   -1.4667   -0.1628    5.5206 C   0  0  0  0  0  0  0  0  0  0  0  0
   -2.7257    0.2363    5.9598 C   0  0  0  0  0  0  0  0  0  0  0  0
   -3.4924   -0.5740    6.7685 C   0  0  0  0  0  0  0  0  0  0  0  0
   -2.9341   -1.7934    7.2373 C   0  0  0  0  0  0  0  0  0  0  0  0
   -1.6516   -2.2110    6.7835 C   0  0  0  0  0  0  0  0  0  0  0  0
   -1.1441   -3.4109    7.3215 C   0  0  0  0  0  0  0  0  0  0  0  0
   -1.9093   -4.1422    8.1904 C   0  0  0  0  0  0  0  0  0  0  0  0
   -3.1860   -3.6638    8.5244 C   0  0  0  0  0  0  0  0  0  0  0  0
   -3.6735   -2.5401    8.0808 N   0  0  0  0  0  0  0  0  0  0  0  0
   -4.8710   -0.2313    7.1149 C   0  0  0  0  0  0  0  0  0  0  0  0
   -5.7784    0.1530    6.2124 C   0  0  0  0  0  0  0  0  0  0  0  0
   -5.5222    0.2217    4.7741 C   0  0  0  0  0  0  0  0  0  0  0  0
   -5.8577    1.3545    4.0607 C   0  0  0  0  0  0  0  0  0  0  0  0
   -5.4988    1.5111    2.7249 C   0  0  0  0  0  0  0  0  0  0  0  0
   -4.7628    0.5510    2.0506 C   0  0  0  0  0  0  0  0  0  0  0  0
   -4.4424   -0.6569    2.7483 C   0  0  0  0  0  0  0  0  0  0  0  0
   -4.8803   -0.8458    4.0859 C   0  0  0  0  0  0  0  0  0  0  0  0
   -4.6759   -2.1208    4.6543 C   0  0  0  0  0  0  0  0  0  0  0  0
   -3.9594   -3.0613    3.9657 C   0  0  0  0  0  0  0  0  0  0  0  0
   -3.4690   -2.7252    2.6947 C   0  0  0  0  0  0  0  0  0  0  0  0
   -3.7287   -1.5955    2.0999 N   0  0  0  0  0  0  0  0  0  0  0  0
   -4.3185    0.6794    0.6897 C   0  0  0  0  0  0  0  0  0  0  0  0
   -4.5537    1.7097   -0.1482 C   0  0  0  0  0  0  0  0  0  0  0  0
   -4.1060    1.7536   -1.4975 C   0  0  0  0  0  0  0  0  0  0  0  0
   -3.1851    0.4502   -2.2087 S   0  0  0  0  0  0  0  0  0  0  0  0
   -3.1299    1.2825   -3.7214 C   0  0  0  0  0  0  0  0  0  0  0  0
   -2.5116    0.8750   -4.9268 C   0  0  0  0  0  0  0  0  0  0  0  0
   -2.4625    1.7689   -5.9838 C   0  0  0  0  0  0  0  0  0  0  0  0
   -2.9475    3.0249   -5.9292 O   0  0  0  0  0  0  0  0  0  0  0  0
   -3.9125    3.3583   -4.9114 C   0  0  0  0  0  0  0  0  0  0  0  0
   -5.3281    3.1039   -5.4850 C   0  0  0  0  0  0  0  0  0  0  0  0
   -5.6203    3.8769   -6.7649 C   0  0  0  0  0  0  0  0  0  0  0  0
   -3.6704    4.8438   -4.6015 C   0  0  0  0  0  0  0  0  0  0  0  0
   -2.3371    5.0731   -3.8991 C   0  0  0  0  0  0  0  0  0  0  0  0
   -3.7736    2.5053   -3.6736 C   0  0  0  0  0  0  0  0  0  0  0  0
   -4.3275    2.7600   -2.4151 C   0  0  0  0  0  0  0  0  0  0  0  0
   -1.7937    1.2521   -7.1067 C   0  0  0  0  0  0  0  0  0  0  0  0
   -1.3433   -0.0322   -6.9197 C   0  0  0  0  0  0  0  0  0  0  0  0
   -1.7583   -0.6255   -5.3319 S   0  0  0  0  0  0  0  0  0  0  0  0
   -0.6768   -0.9072   -7.8591 C   0  0  0  0  0  0  0  0  0  0  0  0
   -1.0030   -2.2496   -7.8907 C   0  0  0  0  0  0  0  0  0  0  0  0
   -0.4664   -3.1017   -8.8479 C   0  0  0  0  0  0  0  0  0  0  0  0
    0.4050   -2.6629   -9.8296 C   0  0  0  0  0  0  0  0  0  0  0  0
    0.8237   -1.2984   -9.7809 C   0  0  0  0  0  0  0  0  0  0  0  0
    0.3045   -0.4289   -8.7750 C   0  0  0  0  0  0  0  0  0  0  0  0
    0.8540    0.8670   -8.6975 C   0  0  0  0  0  0  0  0  0  0  0  0
    1.7853    1.2733   -9.6149 C   0  0  0  0  0  0  0  0  0  0  0  0
    2.1721    0.3624  -10.6076 C   0  0  0  0  0  0  0  0  0  0  0  0
    1.7314   -0.8613  -10.6723 N   0  0  0  0  0  0  0  0  0  0  0  0
    0.8407   -3.6247  -10.8285 C   0  0  0  0  0  0  0  0  0  0  0  0
    1.5177   -3.3881  -11.9477 C   0  0  0  0  0  0  0  0  0  0  0  0
    4.5791    4.6446    3.1142 H   0  0  0  0  0  0  0  0  0  0  0  0
    6.7201    4.4968    4.3361 H   0  0  0  0  0  0  0  0  0  0  0  0
    8.1870    2.5520    4.0381 H   0  0  0  0  0  0  0  0  0  0  0  0
    2.9862    3.6499    1.4714 H   0  0  0  0  0  0  0  0  0  0  0  0
    2.4730    1.7958   -0.1202 H   0  0  0  0  0  0  0  0  0  0  0  0
    4.1622   -0.0158   -0.4136 H   0  0  0  0  0  0  0  0  0  0  0  0
    8.8543    0.6525    2.3007 H   0  0  0  0  0  0  0  0  0  0  0  0
    8.1738   -1.6262    2.2925 H   0  0  0  0  0  0  0  0  0  0  0  0
    2.4379   -4.9822    1.0925 H   0  0  0  0  0  0  0  0  0  0  0  0
    4.0006   -4.2908    0.6201 H   0  0  0  0  0  0  0  0  0  0  0  0
    1.5178   -2.6898    1.4195 H   0  0  0  0  0  0  0  0  0  0  0  0
    3.0658   -1.9960    0.9276 H   0  0  0  0  0  0  0  0  0  0  0  0
    2.1050   -2.9260   -0.2250 H   0  0  0  0  0  0  0  0  0  0  0  0
    5.2951   -5.3797    2.4765 H   0  0  0  0  0  0  0  0  0  0  0  0
    4.6726   -5.2890    4.1263 H   0  0  0  0  0  0  0  0  0  0  0  0
    2.6768   -6.6560    3.3845 H   0  0  0  0  0  0  0  0  0  0  0  0
    4.2184   -7.5136    3.2909 H   0  0  0  0  0  0  0  0  0  0  0  0
    3.4690   -6.8938    1.8224 H   0  0  0  0  0  0  0  0  0  0  0  0
    6.2440   -3.3218    1.9245 H   0  0  0  0  0  0  0  0  0  0  0  0
   -0.0927   -3.8871    4.6922 H   0  0  0  0  0  0  0  0  0  0  0  0
   -0.9095    0.4807    4.8553 H   0  0  0  0  0  0  0  0  0  0  0  0
   -3.1201    1.1872    5.6332 H   0  0  0  0  0  0  0  0  0  0  0  0
   -0.1467   -3.7320    7.0601 H   0  0  0  0  0  0  0  0  0  0  0  0
   -1.5439   -5.0608    8.6230 H   0  0  0  0  0  0  0  0  0  0  0  0
   -3.8245   -4.2220    9.1981 H   0  0  0  0  0  0  0  0  0  0  0  0
   -5.1398   -0.3315    8.1566 H   0  0  0  0  0  0  0  0  0  0  0  0
   -6.7625    0.4650    6.5386 H   0  0  0  0  0  0  0  0  0  0  0  0
   -6.3771    2.1587    4.5636 H   0  0  0  0  0  0  0  0  0  0  0  0
   -5.7800    2.4229    2.2200 H   0  0  0  0  0  0  0  0  0  0  0  0
   -5.1020   -2.3489    5.6198 H   0  0  0  0  0  0  0  0  0  0  0  0
   -3.7844   -4.0439    4.3766 H   0  0  0  0  0  0  0  0  0  0  0  0
   -2.8689   -3.4278    2.1296 H   0  0  0  0  0  0  0  0  0  0  0  0
   -3.7481   -0.1664    0.3285 H   0  0  0  0  0  0  0  0  0  0  0  0
   -5.1195    2.5757    0.1694 H   0  0  0  0  0  0  0  0  0  0  0  0
   -6.0617    3.3509   -4.7158 H   0  0  0  0  0  0  0  0  0  0  0  0
   -5.4061    2.0318   -5.6880 H   0  0  0  0  0  0  0  0  0  0  0  0
   -4.8146    3.7315   -7.4803 H   0  0  0  0  0  0  0  0  0  0  0  0
   -6.5467    3.5201   -7.2086 H   0  0  0  0  0  0  0  0  0  0  0  0
   -5.7242    4.9402   -6.5663 H   0  0  0  0  0  0  0  0  0  0  0  0
   -3.6698    5.3843   -5.5479 H   0  0  0  0  0  0  0  0  0  0  0  0
   -4.4910    5.2173   -3.9885 H   0  0  0  0  0  0  0  0  0  0  0  0
   -1.5249    4.6817   -4.5072 H   0  0  0  0  0  0  0  0  0  0  0  0
   -2.3149    4.5760   -2.9319 H   0  0  0  0  0  0  0  0  0  0  0  0
   -2.1730    6.1370   -3.7457 H   0  0  0  0  0  0  0  0  0  0  0  0
   -4.8818    3.6482   -2.1692 H   0  0  0  0  0  0  0  0  0  0  0  0
   -1.6973    1.7958   -8.0282 H   0  0  0  0  0  0  0  0  0  0  0  0
   -1.7154   -2.6353   -7.1755 H   0  0  0  0  0  0  0  0  0  0  0  0
   -0.7704   -4.1391   -8.8425 H   0  0  0  0  0  0  0  0  0  0  0  0
    0.5579    1.5220   -7.8921 H   0  0  0  0  0  0  0  0  0  0  0  0
    2.2273    2.2566   -9.5712 H   0  0  0  0  0  0  0  0  0  0  0  0
    2.8956    0.6431  -11.3634 H   0  0  0  0  0  0  0  0  0  0  0  0
    0.5345   -4.6420  -10.6078 H   0  0  0  0  0  0  0  0  0  0  0  0
    1.7731   -4.1932  -12.6170 H   0  0  0  0  0  0  0  0  0  0  0  0
    1.8353   -2.3978  -12.2157 H   0  0  0  0  0  0  0  0  0  0  0  0
  1  2  2  0  0  0  0
  2  3  1  0  0  0  0
  3  4  2  0  0  0  0
  4  5  1  0  0  0  0
  5  6  2  0  0  0  0
  6  7  1  0  0  0  0
  7  8  2  0  0  0  0
  8  9  1  0  0  0  0
  9 10  2  0  0  0  0
  4 11  1  0  0  0  0
 11 12  2  0  0  0  0
 12 13  1  0  0  0  0
 13 14  1  0  0  0  0
 14 15  1  0  0  0  0
 15 16  1  0  0  0  0
 16 17  2  0  0  0  0
 17 18  1  0  0  0  0
 18 19  1  0  0  0  0
 19 20  1  0  0  0  0
 20 21  1  0  0  0  0
 19 22  1  0  0  0  0
 22 23  1  0  0  0  0
 19 24  1  0  0  0  0
 24 25  1  0  0  0  0
 17 26  1  0  0  0  0
 26 27  2  0  0  0  0
 27 28  1  0  0  0  0
 27 29  1  0  0  0  0
 29 30  2  0  0  0  0
 30 31  1  0  0  0  0
 31 32  2  0  0  0  0
 32 33  1  0  0  0  0
 33 34  2  0  0  0  0
 34 35  1  0  0  0  0
 35 36  2  0  0  0  0
 36 37  1  0  0  0  0
 37 38  2  0  0  0  0
 32 39  1  0  0  0  0
 39 40  2  0  0  0  0
 40 41  1  0  0  0  0
 41 42  2  0  0  0  0
 42 43  1  0  0  0  0
 43 44  2  0  0  0  0
 44 45  1  0  0  0  0
 45 46  2  0  0  0  0
 46 47  1  0  0  0  0
 47 48  2  0  0  0  0
 48 49  1  0  0  0  0
 49 50  2  0  0  0  0
 44 51  1  0  0  0  0
 51 52  2  0  0  0  0
 52 53  1  0  0  0  0
 53 54  1  0  0  0  0
 54 55  1  0  0  0  0
 55 56  1  0  0  0  0
 56 57  2  0  0  0  0
 57 58  1  0  0  0  0
 58 59  1  0  0  0  0
 59 60  1  0  0  0  0
 60 61  1  0  0  0  0
 59 62  1  0  0  0  0
 62 63  1  0  0  0  0
 59 64  1  0  0  0  0
 64 65  1  0  0  0  0
 57 66  1  0  0  0  0
 66 67  2  0  0  0  0
 67 68  1  0  0  0  0
 67 69  1  0  0  0  0
 69 70  2  0  0  0  0
 70 71  1  0  0  0  0
 71 72  2  0  0  0  0
 72 73  1  0  0  0  0
 73 74  2  0  0  0  0
 74 75  1  0  0  0  0
 75 76  2  0  0  0  0
 76 77  1  0  0  0  0
 77 78  2  0  0  0  0
 72 79  1  0  0  0  0
 79 80  2  0  0  0  0
  6  1  1  0  0  0  0
 25 13  2  0  0  0  0
 34 29  1  0  0  0  0
 46 41  1  0  0  0  0
 65 53  2  0  0  0  0
 74 69  1  0  0  0  0
 10  5  1  0  0  0  0
 24 15  2  0  0  0  0
 38 33  1  0  0  0  0
 50 45  1  0  0  0  0
 64 55  2  0  0  0  0
 78 73  1  0  0  0  0
 28 16  1  0  0  0  0
 68 56  1  0  0  0  0
  1 81  1  0  0  0  0
  2 82  1  0  0  0  0
  3 83  1  0  0  0  0
  7 84  1  0  0  0  0
  8 85  1  0  0  0  0
  9 86  1  0  0  0  0
 11 87  1  0  0  0  0
 12 88  1  0  0  0  0
 20 89  1  0  0  0  0
 20 90  1  0  0  0  0
 21 91  1  0  0  0  0
 21 92  1  0  0  0  0
 21 93  1  0  0  0  0
 22 94  1  0  0  0  0
 22 95  1  0  0  0  0
 23 96  1  0  0  0  0
 23 97  1  0  0  0  0
 23 98  1  0  0  0  0
 25 99  1  0  0  0  0
 26100  1  0  0  0  0
 30101  1  0  0  0  0
 31102  1  0  0  0  0
 35103  1  0  0  0  0
 36104  1  0  0  0  0
 37105  1  0  0  0  0
 39106  1  0  0  0  0
 40107  1  0  0  0  0
 42108  1  0  0  0  0
 43109  1  0  0  0  0
 47110  1  0  0  0  0
 48111  1  0  0  0  0
 49112  1  0  0  0  0
 51113  1  0  0  0  0
 52114  1  0  0  0  0
 60115  1  0  0  0  0
 60116  1  0  0  0  0
 61117  1  0  0  0  0
 61118  1  0  0  0  0
 61119  1  0  0  0  0
 62120  1  0  0  0  0
 62121  1  0  0  0  0
 63122  1  0  0  0  0
 63123  1  0  0  0  0
 63124  1  0  0  0  0
 65125  1  0  0  0  0
 66126  1  0  0  0  0
 70127  1  0  0  0  0
 71128  1  0  0  0  0
 75129  1  0  0  0  0
 76130  1  0  0  0  0
 77131  1  0  0  0  0
 79132  1  0  0  0  0
 80133  1  0  0  0  0
 80134  1  0  0  0  0
M  END
