185

C         -8.48140        9.75900        5.94160
C         -7.61770        9.58490        6.98320
C         -7.08450        8.28730        7.00690
C         -7.55190        7.50940        5.95740
S         -8.66310        8.35190        4.95400
C         -6.92660        6.23670        6.00480
C         -6.05400        6.20540        7.08610
C         -6.10690        7.50740        7.85520
C         -6.67460        7.20200        9.25840
C         -6.96040        8.42510       10.11910
C         -4.73340        8.19060        7.93210
C         -4.08940        8.36800        6.56200
C         -5.38070        4.99380        7.20040
C         -5.72610        4.09620        6.20370
S         -6.92420        4.77290        5.10990
C         -5.20030        2.79390        6.01910
C         -5.54340        1.94810        5.01960
C         -4.97830        0.66490        4.81780
S         -3.75170        0.01170        5.88020
C         -3.64750       -1.42130        4.92010
C         -2.73130       -2.48730        5.04560
C         -2.59760       -3.37000        3.98040
O         -3.34360       -3.29460        2.86200
C         -4.61120       -2.60520        2.93840
C         -5.63120       -3.60370        3.53350
C         -7.06240       -3.08880        3.58350
C         -4.92890       -2.18760        1.49460
C         -4.99270       -3.35870        0.52120
C         -4.51900       -1.39750        3.84170
C         -5.26410       -0.21760        3.79330
C         -1.55660       -4.28900        4.15880
C         -0.90370       -4.13290        5.36300
S         -1.58700       -2.82500        6.29820
C          0.20710       -4.86400        5.85190
C          0.83650       -4.74030        7.07740
C          1.93790       -5.58390        7.19800
C          2.15980       -6.33350        6.04820
S          0.99220       -6.05010        4.82380
C          3.36750       -7.05570        6.19260
C          3.92080       -6.78440        7.43650
C          3.03590       -5.82930        8.21370
C          3.73120       -4.48460        8.50180
C          4.89850       -4.54890        9.47730
C          2.51170       -6.54730        9.47150
C          1.52850       -5.73650       10.30510
C          5.14850       -7.43340        7.62110
C          5.55440       -8.12330        6.50440
S          4.34850       -8.07990        5.23010
C          6.82710       -8.76410        6.23520
C          7.57230       -8.46880        5.15540
C          7.25410       -7.37520        4.27460
C          6.70040       -6.16540        4.63850
C          6.37560       -5.37250        3.54450
C          6.69260       -5.97010        2.32980
S          7.43710       -7.50720        2.53570
C          6.24340       -5.12990        1.28140
C          5.62640       -4.00580        1.83070
C          5.63580       -4.07290        3.33870
C          6.35960       -2.87610        3.97140
C          7.80970       -2.76520        3.51520
C          4.21700       -4.26310        3.92120
C          3.25120       -3.11070        3.68510
C          5.15810       -3.12640        0.86370
C          5.38610       -3.57650       -0.42750
S          6.23080       -5.11690       -0.43630
C          4.95450       -2.93480       -1.61150
C          5.12050       -3.38960       -2.87650
C          4.58400       -2.75060       -4.02090
C          4.67950       -3.17020       -5.33880
C          3.97740       -2.35470       -6.22120
C          3.34850       -1.29450       -5.56700
S          3.61420       -1.29350       -3.87350
C          2.63720       -0.51590       -6.50350
C          2.81020       -1.06730       -7.77080
C          3.70420       -2.29110       -7.70980
C          4.98310       -1.96870       -8.51120
C          6.03660       -3.06660       -8.54630
C          2.92800       -3.50840       -8.26280
C          3.25710       -4.85550       -7.63070
C          2.11180       -0.38500       -8.75750
C          1.39520        0.69200       -8.25470
S          1.61090        0.85770       -6.51890
C          0.53640        1.60400       -8.91550
C          0.25320        1.60280      -10.24090
C         -0.64280        2.50130      -10.87040
C         -0.96660        2.53890      -12.21790
C         -1.90230        3.52200      -12.52030
C         -2.28410        4.25660      -11.39970
S         -1.51260        3.72720       -9.96130
C         -3.19070        5.26860      -11.79500
C         -3.38760        5.18850      -13.16950
C         -2.60540        4.03410      -13.75650
C         -1.61170        4.49670      -14.83260
C         -0.68720        5.60350      -14.33890
C         -3.61880        3.01100      -14.31350
C         -3.01710        1.69100      -14.77660
C         -4.26820        6.15550      -13.64740
C         -4.74160        6.98070      -12.64690
S         -4.08670        6.54400      -11.08010
C         -5.65050        8.08790      -12.72460
C         -6.21760        8.54800      -13.83940
H         -9.03230       10.64170        5.68360
H         -7.37760       10.36760        7.68030
H         -5.96180        6.55410        9.77360
H         -7.60150        6.63740        9.12880
H         -6.05700        9.00040       10.30310
H         -7.69670        9.06680        9.64360
H         -7.35900        8.10630       11.07990
H         -4.85250        9.16990        8.39770
H         -4.07970        7.58800        8.56650
H         -3.12980        8.87020        6.66180
H         -3.92540        7.40480        6.08470
H         -4.72570        8.96720        5.91460
H         -4.65830        4.75600        7.96080
H         -4.45720        2.48100        6.74250
H         -6.28690        2.25500        4.29460
H         -5.58180       -4.52420        2.94980
H         -5.29790       -3.84080        4.54830
H         -7.69470       -3.81590        4.08770
H         -7.45870       -2.93090        2.58400
H         -7.11590       -2.15150        4.13250
H         -5.87300       -1.64490        1.48200
H         -4.13980       -1.50210        1.17750
H         -5.07250       -2.98440       -0.49670
H         -5.85500       -3.98970        0.71980
H         -4.09140       -3.95960        0.60080
H         -5.99400        0.01220        3.03850
H         -1.28650       -5.03340        3.43270
H          0.49140       -4.04220        7.81910
H          2.98020       -3.78960        8.88060
H          4.08650       -4.08690        7.54700
H          5.68900       -5.18940        9.09670
H          5.31000       -3.55110        9.61540
H          4.58340       -4.92110       10.44820
H          2.02340       -7.46860        9.14320
H          3.36710       -6.83320       10.08590
H          0.65190       -5.47480        9.71930
H          1.20220       -6.32730       11.15840
H          1.98430       -4.82430       10.68060
H          5.75670       -7.37560        8.50640
H          7.15980       -9.51950        6.93490
H          8.44810       -9.05850        4.92170
H          6.55020       -5.88370        5.66510
H          5.83070       -1.96090        3.70210
H          6.32590       -2.98360        5.05800
H          8.28190       -1.89890        3.97300
H          7.86300       -2.65490        2.43450
H          8.37150       -3.65290        3.79700
H          3.79440       -5.17170        3.48450
H          4.31970       -4.43400        4.99590
H          2.29200       -3.34470        4.14230
H          3.08860       -2.95550        2.62260
H          3.61750       -2.18750        4.12630
H          4.66920       -2.18900        1.05940
H          4.41400       -2.00810       -1.45940
H          5.66630       -4.30850       -3.04930
H          5.23590       -4.05040       -5.60510
H          4.68320       -1.72770       -9.53410
H          5.42500       -1.06740       -8.07760
H          5.66570       -3.95130       -9.05640
H          6.91150       -2.70960       -9.08630
H          6.34750       -3.33750       -7.54150
H          1.86150       -3.32240       -8.11110
H          3.09940       -3.55720       -9.34020
H          2.68110       -5.63420       -8.12730
H          2.99210       -4.85900       -6.57660
H          4.31020       -5.10030       -7.72410
H          2.10480       -0.65270       -9.79830
H          0.06490        2.34940       -8.28730
H          0.71610        0.87500      -10.89330
H         -0.51210        1.87310      -12.92970
H         -1.00830        3.64360      -15.14560
H         -2.17550        4.85200      -15.69800
H         -0.11240        5.26710      -13.47900
H          0.00680        5.89030      -15.12570
H         -1.25820        6.48180      -14.04680
H         -4.35410        2.80720      -13.53080
H         -4.14480        3.48210      -15.14700
H         -2.29370        1.84250      -15.57330
H         -3.80720        1.04660      -15.15610
H         -2.53080        1.17960      -13.95070
H         -4.55450        6.26500      -14.67740
H         -5.86950        8.56450      -11.77760
H         -6.89170        9.38550      -13.81760
H         -6.02900        8.10830      -14.80320
