298

C          1.77210       -4.68340        9.43140
S          0.77680       -3.29450        9.17490
C          1.65380       -5.60640        8.46010
C          0.72630       -5.23690        7.43900
C          0.40870       -5.98010        6.29590
O          0.99500       -7.18340        6.00570
C          2.36170       -7.14190        5.58150
C          2.48590       -6.54930        4.17020
C          2.67530       -5.03310        4.15760
C          2.72910       -4.49400        2.73380
C          2.85930       -8.58800        5.65110
C          4.38060       -8.69260        5.70680
C          4.83690      -10.14530        5.76220
C          0.11610       -3.97870        7.69460
C         -0.86010       -3.44840        6.85710
O         -1.49730       -2.25730        6.91350
C         -1.40240       -1.38440        8.03180
C         -1.75600        0.00630        7.49660
C         -1.52610        1.11590        8.51840
C         -1.71050        2.49210        7.88980
C         -2.27200       -1.86860        9.20330
C         -3.78550       -1.74870        9.01860
C         -4.32520       -2.61470        7.88700
C         -1.22700       -4.23900        5.74650
C         -2.19770       -3.92520        4.76200
C         -0.58310       -5.46410        5.47760
S         -1.17700       -6.19240        4.01510
C         -2.29270       -4.86080        3.77480
C         -3.13490       -4.81210        2.62050
S         -2.72880       -5.73850        1.19240
C         -4.24940       -4.05330        2.43100
C         -4.79420       -4.14650        1.12420
C         -5.87520       -3.41330        0.60820
O         -6.62290       -2.55740        1.36940
C         -7.51120       -3.16310        2.31160
C         -8.00630       -2.05120        3.24460
C         -9.04610       -1.09140        2.66420
C         -8.51230       -0.24380        1.51670
C         -8.61540       -3.93450        1.57950
C         -9.55960       -4.67300        2.52310
C        -10.57320       -5.50670        1.74840
C         -4.04780       -5.01890        0.28950
C         -4.30390       -5.15080       -1.07110
O         -3.61660       -5.90340       -1.96600
C         -3.23200       -7.23740       -1.64190
C         -1.95330       -7.53910       -2.43150
C         -2.12480       -7.42070       -3.94450
C         -0.79210       -7.57620       -4.66620
C         -4.37850       -8.20350       -1.97180
C         -5.55900       -8.12720       -1.00080
C         -5.23850       -8.66750        0.38810
C         -5.30760       -4.31740       -1.60300
C         -5.62590       -4.12130       -2.96880
C         -6.08520       -3.49730       -0.75600
S         -7.23900       -2.55670       -1.66070
C         -6.59660       -3.18430       -3.17480
C         -6.95550       -2.55790       -4.40070
S         -5.95570       -2.79330       -5.81580
C         -6.76650       -1.49860       -6.62650
C         -6.29070       -0.77220       -7.74460
C         -6.71740        0.54410       -7.87510
O         -7.75120        1.06430       -7.19650
C         -8.60160        0.17620       -6.44230
C         -9.64090       -0.45900       -7.39730
C        -10.54440        0.52970       -8.12170
C         -9.22930        1.01840       -5.31180
C         -9.44600        2.49110       -5.64620
C         -7.79220       -0.96350       -5.86530
C         -7.89430       -1.57220       -4.60930
C         -5.86050        1.31850       -8.67400
C         -4.79880        0.60220       -9.17330
S         -4.88450       -1.08240       -8.70850
C         -3.57820        1.10650       -9.70900
S         -3.00470        2.64470       -9.09990
C         -1.43180        2.32870       -9.74080
C         -0.22190        2.94160       -9.33960
C          0.96070        2.24890       -9.57200
O          1.05470        1.17400      -10.37160
C         -0.09090        0.76480      -11.14750
C         -0.07180        1.52530      -12.49600
C          1.16860        1.29380      -13.34820
C         -0.00070       -0.76940      -11.30190
C          1.41480       -1.33790      -11.28150
C         -1.38340        1.14830      -10.46250
C         -2.60090        0.45630      -10.42750
C          2.01930        2.68990       -8.76370
C          1.64790        3.69630       -7.89740
S         -0.00910        4.17780       -8.14810
C          2.34790        4.15490       -6.74500
S          1.54010        5.22980       -5.61760
C          3.51910        3.67880       -6.23120
C          3.75580        4.06840       -4.89010
C          4.78760        3.57360       -4.07280
O          5.77980        2.84190       -4.65700
C          6.00990        1.51400       -4.17230
C          7.50260        1.20920       -4.35970
C          8.17380        0.72600       -3.07600
C          9.65380        0.43710       -3.29310
C          5.08770        0.54710       -4.92530
C          5.11830       -0.86770       -4.35560
C          4.17100       -1.79140       -5.11200
C          2.74400        4.92260       -4.38010
C          2.71760        5.31030       -3.04780
O          1.82150        6.10500       -2.41590
C          1.10190        7.10580       -3.12500
C          2.05420        8.15760       -3.71170
C          2.93430        8.83250       -2.66110
C          3.99960        9.70640       -3.31070
C          0.10650        7.69070       -2.12170
C         -0.98980        6.69090       -1.76050
C         -1.95990        7.26830       -0.73780
C          3.69740        4.73630       -2.21250
C          3.75870        4.86030       -0.80190
C          4.71090        3.89330       -2.72530
S          5.74340        3.32030       -1.43600
C          4.76660        4.14440       -0.23190
C          5.02770        3.92590        1.15130
S          3.92160        4.54710        2.36330
C          6.01620        3.17880        1.71020
C          5.92610        3.06590        3.12080
C          6.80510        2.31650        3.92140
O          7.84150        1.72440        3.26860
C          8.30210        0.43540        3.67090
C          9.48250        0.15890        2.73590
C         10.24390       -1.12330        3.05260
C         11.47760       -1.26130        2.16790
C          7.17440       -0.60600        3.56900
C          7.20110       -1.65190        4.68140
C          6.03990       -2.63040        4.54900
C          4.81500        3.76430        3.65770
C          4.53680        3.73770        5.01790
O          3.48820        4.27170        5.69390
C          2.70160        5.32570        5.15420
C          3.51220        6.62690        5.08980
C          4.00960        7.10700        6.45150
C          4.99400        8.26050        6.30440
C          1.46160        5.38830        6.05120
C          0.41340        6.38720        5.57220
C         -0.85750        6.29640        6.40880
C          5.42870        3.00160        5.82120
C          5.33940        2.86230        7.23840
C          6.53690        2.30800        5.28420
S          7.43770        1.52760        6.56580
C          6.33030        2.11670        7.76040
H          2.39010       -4.71230       10.30730
H          2.17540       -6.54630        8.46070
H          2.94250       -6.52260        6.28170
H          3.33670       -7.01050        3.66580
H          1.58570       -6.81540        3.61190
H          3.60380       -4.78300        4.67780
H          1.85650       -4.54840        4.69310
H          1.79740       -4.70490        2.21370
H          3.54330       -4.95740        2.18060
H          2.88480       -3.41790        2.73860
H          2.43140       -9.04520        6.54560
H          2.47470       -9.13390        4.78820
H          4.81840       -8.21120        4.83000
H          4.74730       -8.16280        6.58940
H          4.42670      -10.64100        6.63900
H          4.50190      -10.68310        4.87830
H          5.92180      -10.20390        5.80990
H         -0.36080       -1.34760        8.37850
H         -2.79060        0.01490        7.15440
H         -1.12380        0.18570        6.62380
H         -2.22120        1.00350        9.35190
H         -0.51240        1.03350        8.91710
H         -1.00470        2.63370        7.07430
H         -1.54550        3.27490        8.62620
H         -2.71790        2.59970        7.49350
H         -2.02740       -2.91770        9.38670
H         -1.97320       -1.30480       10.08860
H         -4.25680       -2.05580        9.95590
H         -4.05910       -0.70670        8.84610
H         -5.41050       -2.54740        7.84440
H         -3.92030       -2.29570        6.93140
H         -4.05100       -3.65660        8.04000
H         -2.77530       -3.02050        4.78330
H         -4.65630       -3.40860        3.18850
H         -6.94310       -3.88550        2.92140
H         -8.41910       -2.52540        4.13740
H         -7.12940       -1.47430        3.54680
H         -9.37160       -0.43060        3.47260
H         -9.92260       -1.64900        2.33150
H         -7.65390        0.33770        1.84410
H         -9.28110        0.44150        1.16530
H         -8.19610       -0.86900        0.68740
H         -8.13060       -4.66460        0.92370
H         -9.17460       -3.24840        0.94220
H        -10.09060       -3.95780        3.15310
H         -8.97660       -5.32480        3.17860
H        -11.24360       -6.02500        2.43010
H        -10.06830       -6.24800        1.13280
H        -11.16920       -4.87140        1.09700
H         -2.99070       -7.31810       -0.57690
H         -1.18920       -6.82880       -2.10830
H         -1.61220       -8.54230       -2.16960
H         -2.81540       -8.18680       -4.30000
H         -2.55330       -6.44400       -4.17190
H         -0.09310       -6.80570       -4.34900
H         -0.35170       -8.54750       -4.44990
H         -0.92900       -7.49310       -5.74170
H         -3.98160       -9.22040       -1.97540
H         -4.73670       -7.96950       -2.97570
H         -5.90140       -7.09280       -0.92200
H         -6.38160       -8.71050       -1.42240
H         -4.88390       -9.69400        0.32410
H         -6.13040       -8.65100        1.01060
H         -4.47470       -8.07250        0.88160
H         -5.10740       -4.62070       -3.76720
H         -9.08140       -1.03490       -8.14020
H        -10.24110       -1.16360       -6.81790
H        -11.10050        0.01320       -8.90120
H        -11.25920        0.98040       -7.43910
H         -9.94920        1.31310       -8.58420
H        -10.17540        0.55530       -5.02750
H         -8.55940        0.97510       -4.45040
H         -8.50080        2.96000       -5.90240
H        -10.12870        2.62410       -6.47770
H         -9.85870        2.99580       -4.77520
H         -8.60460       -1.29840       -3.85030
H         -5.99010        2.37310       -8.83300
H         -0.96890        1.24610      -13.05260
H         -0.14590        2.59120      -12.26160
H          1.17880        1.99750      -14.17770
H          1.18060        0.28770      -13.75790
H          2.06570        1.44810      -12.75390
H         -0.54810       -1.22360      -10.47310
H         -0.50170       -1.04810      -12.23020
H          1.90190       -1.09780      -10.34120
H          1.36480       -2.42030      -11.37940
H          2.02170       -0.94490      -12.08930
H         -2.77540       -0.49960      -10.88740
H          2.99370        2.23990       -8.77650
H          4.17710        3.01030       -6.75380
H          5.76240        1.46720       -3.10500
H          7.98560        2.12930       -4.69330
H          7.63530        0.46540       -5.14710
H          7.67420       -0.17860       -2.72240
H          8.06100        1.49080       -2.30490
H         10.11680        0.09740       -2.36970
H         10.17140        1.33340       -3.62680
H          9.78660       -0.33520       -4.04800
H          4.06620        0.93440       -4.86760
H          5.37830        0.53160       -5.97820
H          4.83230       -0.83610       -3.30170
H          6.13240       -1.26620       -4.41390
H          4.19660       -2.79360       -4.69060
H          4.45440       -1.85270       -6.16050
H          3.14980       -1.42120       -5.05560
H          0.53460        6.64950       -3.94880
H          2.69820        7.66890       -4.44690
H          1.45880        8.90370       -4.24030
H          3.41600        8.06470       -2.05210
H          2.31770        9.44650       -2.00280
H          3.53810       10.47680       -3.92500
H          4.60990       10.19110       -2.55240
H          4.65100        9.10820       -3.94440
H         -0.33880        8.58860       -2.55260
H          0.64770        7.96940       -1.21700
H         -1.53600        6.41130       -2.66430
H         -0.52510        5.78930       -1.35840
H         -1.43620        7.53520        0.17750
H         -2.44070        8.16200       -1.13000
H         -2.73190        6.54310       -0.49240
H          3.04800        5.43610       -0.23700
H          6.79450        2.70180        1.14270
H          8.66830        0.47670        4.70640
H          9.10760        0.12650        1.71070
H         10.16240        1.01030        2.80860
H         10.54730       -1.11440        4.10170
H          9.59590       -1.98670        2.89560
H         12.00920       -2.18260        2.39380
H         12.15600       -0.42590        2.32470
H         11.19310       -1.27750        1.11810
H          7.22140       -1.09790        2.59530
H          6.21780       -0.07770        3.61790
H          8.14300       -2.20090        4.65410
H          7.14070       -1.14850        5.64830
H          6.08420       -3.15260        3.59560
H          5.08890       -2.10520        4.60630
H          6.07260       -3.36860        5.34700
H          2.37430        5.06810        4.13720
H          2.90290        7.39640        4.61500
H          4.37690        6.45130        4.44510
H          3.16580        7.43390        7.06130
H          4.49660        6.27550        6.96530
H          5.86850        7.94780        5.73760
H          4.52870        9.09400        5.78220
H          5.32440        8.60800        7.28050
H          1.76980        5.62350        7.07000
H          1.02450        4.38740        6.06740
H          0.17550        6.18660        4.52520
H          0.81140        7.40100        5.63580
H         -0.63970        6.49740        7.45540
H         -1.29420        5.30310        6.33630
H         -1.59270        7.02050        6.06620
H          4.55140        3.31640        7.81010
H          6.50440        1.85970        8.78660
