
  xtb     03012202313D
 energy: -308.250715125954 gnorm: 0.000182248099 xtb: 6.4.1 (unknown)
184203  0     0  0            999 V2000
   13.5687  -15.5767    2.5568 C   0  0  0  0  0  0  0  0  0  0  0  0
   11.8475  -15.5905    2.5092 S   0  0  0  0  0  0  0  0  0  0  0  0
   11.8170  -13.8681    2.6526 C   0  0  0  0  0  0  0  0  0  0  0  0
   10.6898  -13.0162    2.7686 C   0  0  0  0  0  0  0  0  0  0  0  0
   10.9001  -11.6992    3.1485 C   0  0  0  0  0  0  0  0  0  0  0  0
   12.1219  -11.1896    3.4023 O   0  0  0  0  0  0  0  0  0  0  0  0
   13.2616  -11.8284    2.7848 C   0  0  0  0  0  0  0  0  0  0  0  0
   14.4604  -11.4493    3.6682 C   0  0  0  0  0  0  0  0  0  0  0  0
   14.6727   -9.9453    3.7947 C   0  0  0  0  0  0  0  0  0  0  0  0
   13.3548  -11.2777    1.3424 C   0  0  0  0  0  0  0  0  0  0  0  0
   14.5752  -11.7428    0.5613 C   0  0  0  0  0  0  0  0  0  0  0  0
   13.0842  -13.3284    2.7345 C   0  0  0  0  0  0  0  0  0  0  0  0
   14.0818  -14.3227    2.6799 C   0  0  0  0  0  0  0  0  0  0  0  0
    9.7090  -10.9771    3.3011 C   0  0  0  0  0  0  0  0  0  0  0  0
    8.5886  -11.7303    3.0263 C   0  0  0  0  0  0  0  0  0  0  0  0
    9.0076  -13.3644    2.5777 S   0  0  0  0  0  0  0  0  0  0  0  0
    7.2363  -11.3037    3.0334 C   0  0  0  0  0  0  0  0  0  0  0  0
    6.8419   -9.6452    3.4127 S   0  0  0  0  0  0  0  0  0  0  0  0
    5.1626   -9.9686    3.1631 C   0  0  0  0  0  0  0  0  0  0  0  0
    4.0880   -9.0531    3.1754 C   0  0  0  0  0  0  0  0  0  0  0  0
    2.8599   -9.4669    2.6741 C   0  0  0  0  0  0  0  0  0  0  0  0
    2.6206  -10.7117    2.2256 O   0  0  0  0  0  0  0  0  0  0  0  0
    3.5093  -11.7761    2.6134 C   0  0  0  0  0  0  0  0  0  0  0  0
    3.4714  -12.8328    1.4857 C   0  0  0  0  0  0  0  0  0  0  0  0
    2.1812  -12.8533    0.6728 C   0  0  0  0  0  0  0  0  0  0  0  0
    3.0492  -12.3269    3.9857 C   0  0  0  0  0  0  0  0  0  0  0  0
    1.6241  -12.8624    4.0099 C   0  0  0  0  0  0  0  0  0  0  0  0
    4.9271  -11.2847    2.8078 C   0  0  0  0  0  0  0  0  0  0  0  0
    6.1039  -12.0357    2.7423 C   0  0  0  0  0  0  0  0  0  0  0  0
    1.9251   -8.4236    2.5996 C   0  0  0  0  0  0  0  0  0  0  0  0
    2.4277   -7.2247    3.0530 C   0  0  0  0  0  0  0  0  0  0  0  0
    4.0791   -7.3795    3.5975 S   0  0  0  0  0  0  0  0  0  0  0  0
    1.8185   -5.9415    3.0494 C   0  0  0  0  0  0  0  0  0  0  0  0
    2.3706   -4.7781    3.5040 C   0  0  0  0  0  0  0  0  0  0  0  0
    1.5907   -3.6331    3.2291 C   0  0  0  0  0  0  0  0  0  0  0  0
    1.8880   -2.2914    3.5297 C   0  0  0  0  0  0  0  0  0  0  0  0
    3.0849   -1.9160    4.2626 C   0  0  0  0  0  0  0  0  0  0  0  0
    4.6665   -2.4508    3.7747 S   0  0  0  0  0  0  0  0  0  0  0  0
    5.4433   -1.5900    5.0596 C   0  0  0  0  0  0  0  0  0  0  0  0
    6.9144   -1.6827    5.2673 C   0  0  0  0  0  0  0  0  0  0  0  0
    7.2807   -2.9801    5.9923 C   0  0  0  0  0  0  0  0  0  0  0  0
    4.5180   -0.9368    5.8166 C   0  0  0  0  0  0  0  0  0  0  0  0
    4.9047    0.0166    7.1900 Cl  0  0  0  0  0  0  0  0  0  0  0  0
    3.1824   -1.1118    5.3644 C   0  0  0  0  0  0  0  0  0  0  0  0
    1.8390   -0.4417    6.1907 Cl  0  0  0  0  0  0  0  0  0  0  0  0
    1.0041   -1.3332    3.0558 C   0  0  0  0  0  0  0  0  0  0  0  0
   -0.1860   -1.6520    2.3565 C   0  0  0  0  0  0  0  0  0  0  0  0
   -0.5382   -3.0017    2.1574 C   0  0  0  0  0  0  0  0  0  0  0  0
   -1.8066   -3.3549    1.5483 C   0  0  0  0  0  0  0  0  0  0  0  0
   -1.9222   -4.5045    0.2489 S   0  0  0  0  0  0  0  0  0  0  0  0
   -3.6433   -4.3502    0.1602 C   0  0  0  0  0  0  0  0  0  0  0  0
   -4.4357   -5.0903   -0.8601 C   0  0  0  0  0  0  0  0  0  0  0  0
   -4.5252   -4.2976   -2.1663 C   0  0  0  0  0  0  0  0  0  0  0  0
   -4.0874   -3.4526    1.0850 C   0  0  0  0  0  0  0  0  0  0  0  0
   -3.0518   -2.8894    1.8761 C   0  0  0  0  0  0  0  0  0  0  0  0
   -3.3683   -1.8035    3.1670 Cl  0  0  0  0  0  0  0  0  0  0  0  0
   -5.7393   -3.0406    1.3001 Cl  0  0  0  0  0  0  0  0  0  0  0  0
    0.3859   -3.9584    2.5584 C   0  0  0  0  0  0  0  0  0  0  0  0
    0.2495   -5.6794    2.3102 S   0  0  0  0  0  0  0  0  0  0  0  0
   -0.8242   -0.4956    1.8471 C   0  0  0  0  0  0  0  0  0  0  0  0
   -0.1639    0.6652    2.1345 C   0  0  0  0  0  0  0  0  0  0  0  0
    1.2700    0.3840    3.1058 S   0  0  0  0  0  0  0  0  0  0  0  0
   -0.4392    1.9846    1.6889 C   0  0  0  0  0  0  0  0  0  0  0  0
   -1.8237    2.3535    0.6923 S   0  0  0  0  0  0  0  0  0  0  0  0
   -1.2991    3.9946    0.5385 C   0  0  0  0  0  0  0  0  0  0  0  0
   -1.8317    5.0165   -0.2804 C   0  0  0  0  0  0  0  0  0  0  0  0
   -1.0279    6.1192   -0.5454 C   0  0  0  0  0  0  0  0  0  0  0  0
    0.1860    6.3030    0.0059 O   0  0  0  0  0  0  0  0  0  0  0  0
    0.4590    5.6326    1.2484 C   0  0  0  0  0  0  0  0  0  0  0  0
    1.9924    5.5617    1.3469 C   0  0  0  0  0  0  0  0  0  0  0  0
    2.6824    6.9183    1.2836 C   0  0  0  0  0  0  0  0  0  0  0  0
   -0.1816    6.4079    2.4375 C   0  0  0  0  0  0  0  0  0  0  0  0
   -0.5045    7.8692    2.1402 C   0  0  0  0  0  0  0  0  0  0  0  0
   -0.1223    4.2363    1.2315 C   0  0  0  0  0  0  0  0  0  0  0  0
    0.3501    3.0980    1.8845 C   0  0  0  0  0  0  0  0  0  0  0  0
   -1.5834    6.9870   -1.4931 C   0  0  0  0  0  0  0  0  0  0  0  0
   -2.8273    6.5796   -1.9261 C   0  0  0  0  0  0  0  0  0  0  0  0
   -3.3167    5.0895   -1.1649 S   0  0  0  0  0  0  0  0  0  0  0  0
   -3.6530    7.2507   -2.8697 C   0  0  0  0  0  0  0  0  0  0  0  0
   -5.3866    7.0530   -2.8900 S   0  0  0  0  0  0  0  0  0  0  0  0
   -5.5227    8.1865   -4.1884 C   0  0  0  0  0  0  0  0  0  0  0  0
   -6.6901    8.6657   -4.8229 C   0  0  0  0  0  0  0  0  0  0  0  0
   -6.5533    9.4745   -5.9434 C   0  0  0  0  0  0  0  0  0  0  0  0
   -5.3683    9.7784   -6.5038 O   0  0  0  0  0  0  0  0  0  0  0  0
   -4.1709    9.6777   -5.7086 C   0  0  0  0  0  0  0  0  0  0  0  0
   -3.9144   11.0533   -5.0464 C   0  0  0  0  0  0  0  0  0  0  0  0
   -3.7907   12.1978   -6.0445 C   0  0  0  0  0  0  0  0  0  0  0  0
   -3.0614    9.2959   -6.7020 C   0  0  0  0  0  0  0  0  0  0  0  0
   -3.2288    7.8767   -7.2326 C   0  0  0  0  0  0  0  0  0  0  0  0
   -4.2891    8.6565   -4.6034 C   0  0  0  0  0  0  0  0  0  0  0  0
   -3.2395    8.1385   -3.8410 C   0  0  0  0  0  0  0  0  0  0  0  0
   -7.7821    9.9004   -6.4642 C   0  0  0  0  0  0  0  0  0  0  0  0
   -8.8586    9.4440   -5.7357 C   0  0  0  0  0  0  0  0  0  0  0  0
   -8.3518    8.4495   -4.3933 S   0  0  0  0  0  0  0  0  0  0  0  0
  -10.2316    9.7328   -5.9401 C   0  0  0  0  0  0  0  0  0  0  0  0
  -10.7446   10.7118   -7.2933 S   0  0  0  0  0  0  0  0  0  0  0  0
  -12.3895   10.5991   -6.7767 C   0  0  0  0  0  0  0  0  0  0  0  0
  -13.5359   11.1943   -7.3580 C   0  0  0  0  0  0  0  0  0  0  0  0
  -14.7386   11.1111   -6.6800 C   0  0  0  0  0  0  0  0  0  0  0  0
  -14.8964   10.5031   -5.4905 O   0  0  0  0  0  0  0  0  0  0  0  0
  -13.8866    9.5845   -5.0232 C   0  0  0  0  0  0  0  0  0  0  0  0
  -14.3029    8.1557   -5.4488 C   0  0  0  0  0  0  0  0  0  0  0  0
  -15.6686    7.7334   -4.9216 C   0  0  0  0  0  0  0  0  0  0  0  0
  -13.8659    9.7523   -3.4954 C   0  0  0  0  0  0  0  0  0  0  0  0
  -13.3131   11.1089   -3.0736 C   0  0  0  0  0  0  0  0  0  0  0  0
  -12.5270    9.8544   -5.6213 C   0  0  0  0  0  0  0  0  0  0  0  0
  -11.3035    9.3592   -5.1588 C   0  0  0  0  0  0  0  0  0  0  0  0
  -15.7837   11.7915   -7.3446 C   0  0  0  0  0  0  0  0  0  0  0  0
  -15.3644   12.3629   -8.5051 C   0  0  0  0  0  0  0  0  0  0  0  0
  -13.6956   12.0967   -8.8255 S   0  0  0  0  0  0  0  0  0  0  0  0
   14.0997  -16.5046    2.4871 H   0  0  0  0  0  0  0  0  0  0  0  0
   15.3589  -11.9173    3.2685 H   0  0  0  0  0  0  0  0  0  0  0  0
   14.2730  -11.8682    4.6595 H   0  0  0  0  0  0  0  0  0  0  0  0
   13.7484   -9.4628    4.0987 H   0  0  0  0  0  0  0  0  0  0  0  0
   15.4337   -9.7446    4.5453 H   0  0  0  0  0  0  0  0  0  0  0  0
   15.0018   -9.5133    2.8533 H   0  0  0  0  0  0  0  0  0  0  0  0
   12.4488  -11.5943    0.8171 H   0  0  0  0  0  0  0  0  0  0  0  0
   13.3364  -10.1882    1.3977 H   0  0  0  0  0  0  0  0  0  0  0  0
   14.5249  -11.3597   -0.4553 H   0  0  0  0  0  0  0  0  0  0  0  0
   14.6127  -12.8286    0.5146 H   0  0  0  0  0  0  0  0  0  0  0  0
   15.4941  -11.3803    1.0143 H   0  0  0  0  0  0  0  0  0  0  0  0
   15.1375  -14.1279    2.7284 H   0  0  0  0  0  0  0  0  0  0  0  0
    9.6690   -9.9456    3.5989 H   0  0  0  0  0  0  0  0  0  0  0  0
    4.2958  -12.6251    0.7995 H   0  0  0  0  0  0  0  0  0  0  0  0
    3.6463  -13.8131    1.9308 H   0  0  0  0  0  0  0  0  0  0  0  0
    1.3172  -13.0580    1.2952 H   0  0  0  0  0  0  0  0  0  0  0  0
    2.0284  -11.8957    0.1839 H   0  0  0  0  0  0  0  0  0  0  0  0
    2.2521  -13.6256   -0.0901 H   0  0  0  0  0  0  0  0  0  0  0  0
    3.1325  -11.5058    4.7041 H   0  0  0  0  0  0  0  0  0  0  0  0
    3.7509  -13.1057    4.2904 H   0  0  0  0  0  0  0  0  0  0  0  0
    0.9398  -12.1257    3.5965 H   0  0  0  0  0  0  0  0  0  0  0  0
    1.3287  -13.0711    5.0358 H   0  0  0  0  0  0  0  0  0  0  0  0
    1.5425  -13.7832    3.4393 H   0  0  0  0  0  0  0  0  0  0  0  0
    6.1501  -13.0804    2.4922 H   0  0  0  0  0  0  0  0  0  0  0  0
    0.9290   -8.5375    2.2135 H   0  0  0  0  0  0  0  0  0  0  0  0
    3.3246   -4.7511    3.9979 H   0  0  0  0  0  0  0  0  0  0  0  0
    7.2382   -0.8257    5.8604 H   0  0  0  0  0  0  0  0  0  0  0  0
    7.4211   -1.6525    4.3010 H   0  0  0  0  0  0  0  0  0  0  0  0
    8.3557   -3.0341    6.1413 H   0  0  0  0  0  0  0  0  0  0  0  0
    6.9650   -3.8410    5.4077 H   0  0  0  0  0  0  0  0  0  0  0  0
    6.7919   -3.0201    6.9625 H   0  0  0  0  0  0  0  0  0  0  0  0
   -3.9651   -6.0559   -1.0515 H   0  0  0  0  0  0  0  0  0  0  0  0
   -5.4402   -5.2603   -0.4676 H   0  0  0  0  0  0  0  0  0  0  0  0
   -5.0037   -3.3373   -1.9918 H   0  0  0  0  0  0  0  0  0  0  0  0
   -5.1082   -4.8495   -2.8987 H   0  0  0  0  0  0  0  0  0  0  0  0
   -3.5308   -4.1229   -2.5699 H   0  0  0  0  0  0  0  0  0  0  0  0
   -1.7129   -0.5173    1.2427 H   0  0  0  0  0  0  0  0  0  0  0  0
    2.3439    4.9437    0.5175 H   0  0  0  0  0  0  0  0  0  0  0  0
    2.2570    5.0620    2.2790 H   0  0  0  0  0  0  0  0  0  0  0  0
    2.4574    7.5130    2.1647 H   0  0  0  0  0  0  0  0  0  0  0  0
    2.3641    7.4597    0.3975 H   0  0  0  0  0  0  0  0  0  0  0  0
    3.7597    6.7766    1.2357 H   0  0  0  0  0  0  0  0  0  0  0  0
   -1.1076    5.9033    2.7253 H   0  0  0  0  0  0  0  0  0  0  0  0
    0.5002    6.3459    3.2866 H   0  0  0  0  0  0  0  0  0  0  0  0
   -0.8321    8.3589    3.0547 H   0  0  0  0  0  0  0  0  0  0  0  0
    0.3623    8.3955    1.7535 H   0  0  0  0  0  0  0  0  0  0  0  0
   -1.3051    7.9477    1.4082 H   0  0  0  0  0  0  0  0  0  0  0  0
    1.2436    3.0563    2.4803 H   0  0  0  0  0  0  0  0  0  0  0  0
   -1.0996    7.8864   -1.8236 H   0  0  0  0  0  0  0  0  0  0  0  0
   -3.0121   10.9808   -4.4371 H   0  0  0  0  0  0  0  0  0  0  0  0
   -4.7554   11.2511   -4.3755 H   0  0  0  0  0  0  0  0  0  0  0  0
   -3.7960   13.1494   -5.5185 H   0  0  0  0  0  0  0  0  0  0  0  0
   -2.8661   12.1258   -6.6107 H   0  0  0  0  0  0  0  0  0  0  0  0
   -4.6280   12.1794   -6.7376 H   0  0  0  0  0  0  0  0  0  0  0  0
   -2.0928    9.4058   -6.2139 H   0  0  0  0  0  0  0  0  0  0  0  0
   -3.1122    9.9941   -7.5371 H   0  0  0  0  0  0  0  0  0  0  0  0
   -2.4754    7.6692   -7.9884 H   0  0  0  0  0  0  0  0  0  0  0  0
   -3.1270    7.1458   -6.4335 H   0  0  0  0  0  0  0  0  0  0  0  0
   -4.2116    7.7622   -7.6835 H   0  0  0  0  0  0  0  0  0  0  0  0
   -2.2041    8.3793   -3.9962 H   0  0  0  0  0  0  0  0  0  0  0  0
   -7.8789   10.5260   -7.3323 H   0  0  0  0  0  0  0  0  0  0  0  0
  -14.3180    8.1357   -6.5423 H   0  0  0  0  0  0  0  0  0  0  0  0
  -13.5338    7.4583   -5.1130 H   0  0  0  0  0  0  0  0  0  0  0  0
  -15.6395    7.5653   -3.8485 H   0  0  0  0  0  0  0  0  0  0  0  0
  -16.4054    8.5036   -5.1359 H   0  0  0  0  0  0  0  0  0  0  0  0
  -15.9813    6.8101   -5.4033 H   0  0  0  0  0  0  0  0  0  0  0  0
  -14.8918    9.6622   -3.1390 H   0  0  0  0  0  0  0  0  0  0  0  0
  -13.2730    8.9493   -3.0574 H   0  0  0  0  0  0  0  0  0  0  0  0
  -13.3801   11.2200   -1.9942 H   0  0  0  0  0  0  0  0  0  0  0  0
  -12.2712   11.2150   -3.3675 H   0  0  0  0  0  0  0  0  0  0  0  0
  -13.8872   11.9063   -3.5396 H   0  0  0  0  0  0  0  0  0  0  0  0
  -11.1819    8.7509   -4.2805 H   0  0  0  0  0  0  0  0  0  0  0  0
  -16.7872   11.8456   -6.9662 H   0  0  0  0  0  0  0  0  0  0  0  0
  -15.9442   12.9283   -9.2065 H   0  0  0  0  0  0  0  0  0  0  0  0
  1  2  1  0  0  0  0
  2  3  1  0  0  0  0
  3  4  1  0  0  0  0
  4  5  2  0  0  0  0
  5  6  1  0  0  0  0
  6  7  1  0  0  0  0
  7  8  1  0  0  0  0
  8  9  1  0  0  0  0
  7 10  1  0  0  0  0
 10 11  1  0  0  0  0
  7 12  1  0  0  0  0
 12 13  1  0  0  0  0
  5 14  1  0  0  0  0
 14 15  2  0  0  0  0
 15 16  1  0  0  0  0
 15 17  1  0  0  0  0
 17 18  1  0  0  0  0
 18 19  1  0  0  0  0
 19 20  1  0  0  0  0
 20 21  2  0  0  0  0
 21 22  1  0  0  0  0
 22 23  1  0  0  0  0
 23 24  1  0  0  0  0
 24 25  1  0  0  0  0
 23 26  1  0  0  0  0
 26 27  1  0  0  0  0
 23 28  1  0  0  0  0
 28 29  1  0  0  0  0
 21 30  1  0  0  0  0
 30 31  2  0  0  0  0
 31 32  1  0  0  0  0
 31 33  1  0  0  0  0
 33 34  2  0  0  0  0
 34 35  1  0  0  0  0
 35 36  2  0  0  0  0
 36 37  1  0  0  0  0
 37 38  1  0  0  0  0
 38 39  1  0  0  0  0
 39 40  1  0  0  0  0
 40 41  1  0  0  0  0
 39 42  2  0  0  0  0
 42 43  1  0  0  0  0
 42 44  1  0  0  0  0
 44 45  1  0  0  0  0
 36 46  1  0  0  0  0
 46 47  2  0  0  0  0
 47 48  1  0  0  0  0
 48 49  1  0  0  0  0
 49 50  1  0  0  0  0
 50 51  1  0  0  0  0
 51 52  1  0  0  0  0
 52 53  1  0  0  0  0
 51 54  2  0  0  0  0
 54 55  1  0  0  0  0
 55 56  1  0  0  0  0
 54 57  1  0  0  0  0
 48 58  2  0  0  0  0
 58 59  1  0  0  0  0
 47 60  1  0  0  0  0
 60 61  2  0  0  0  0
 61 62  1  0  0  0  0
 61 63  1  0  0  0  0
 63 64  1  0  0  0  0
 64 65  1  0  0  0  0
 65 66  1  0  0  0  0
 66 67  2  0  0  0  0
 67 68  1  0  0  0  0
 68 69  1  0  0  0  0
 69 70  1  0  0  0  0
 70 71  1  0  0  0  0
 69 72  1  0  0  0  0
 72 73  1  0  0  0  0
 69 74  1  0  0  0  0
 74 75  1  0  0  0  0
 67 76  1  0  0  0  0
 76 77  2  0  0  0  0
 77 78  1  0  0  0  0
 77 79  1  0  0  0  0
 79 80  1  0  0  0  0
 80 81  1  0  0  0  0
 81 82  1  0  0  0  0
 82 83  2  0  0  0  0
 83 84  1  0  0  0  0
 84 85  1  0  0  0  0
 85 86  1  0  0  0  0
 86 87  1  0  0  0  0
 85 88  1  0  0  0  0
 88 89  1  0  0  0  0
 85 90  1  0  0  0  0
 90 91  1  0  0  0  0
 83 92  1  0  0  0  0
 92 93  2  0  0  0  0
 93 94  1  0  0  0  0
 93 95  1  0  0  0  0
 95 96  1  0  0  0  0
 96 97  1  0  0  0  0
 97 98  1  0  0  0  0
 98 99  2  0  0  0  0
 99100  1  0  0  0  0
100101  1  0  0  0  0
101102  1  0  0  0  0
102103  1  0  0  0  0
101104  1  0  0  0  0
104105  1  0  0  0  0
101106  1  0  0  0  0
106107  1  0  0  0  0
 99108  1  0  0  0  0
108109  2  0  0  0  0
109110  1  0  0  0  0
 13  1  2  0  0  0  0
 29 17  2  0  0  0  0
 59 33  1  0  0  0  0
 75 63  2  0  0  0  0
 91 79  2  0  0  0  0
107 95  2  0  0  0  0
 12  3  2  0  0  0  0
 28 19  2  0  0  0  0
 58 35  1  0  0  0  0
 74 65  2  0  0  0  0
 90 81  2  0  0  0  0
106 97  2  0  0  0  0
 16  4  1  0  0  0  0
 32 20  1  0  0  0  0
 44 37  2  0  0  0  0
 62 46  1  0  0  0  0
 78 66  1  0  0  0  0
 94 82  1  0  0  0  0
110 98  1  0  0  0  0
 55 49  2  0  0  0  0
  1111  1  0  0  0  0
  8112  1  0  0  0  0
  8113  1  0  0  0  0
  9114  1  0  0  0  0
  9115  1  0  0  0  0
  9116  1  0  0  0  0
 10117  1  0  0  0  0
 10118  1  0  0  0  0
 11119  1  0  0  0  0
 11120  1  0  0  0  0
 11121  1  0  0  0  0
 13122  1  0  0  0  0
 14123  1  0  0  0  0
 24124  1  0  0  0  0
 24125  1  0  0  0  0
 25126  1  0  0  0  0
 25127  1  0  0  0  0
 25128  1  0  0  0  0
 26129  1  0  0  0  0
 26130  1  0  0  0  0
 27131  1  0  0  0  0
 27132  1  0  0  0  0
 27133  1  0  0  0  0
 29134  1  0  0  0  0
 30135  1  0  0  0  0
 34136  1  0  0  0  0
 40137  1  0  0  0  0
 40138  1  0  0  0  0
 41139  1  0  0  0  0
 41140  1  0  0  0  0
 41141  1  0  0  0  0
 52142  1  0  0  0  0
 52143  1  0  0  0  0
 53144  1  0  0  0  0
 53145  1  0  0  0  0
 53146  1  0  0  0  0
 60147  1  0  0  0  0
 70148  1  0  0  0  0
 70149  1  0  0  0  0
 71150  1  0  0  0  0
 71151  1  0  0  0  0
 71152  1  0  0  0  0
 72153  1  0  0  0  0
 72154  1  0  0  0  0
 73155  1  0  0  0  0
 73156  1  0  0  0  0
 73157  1  0  0  0  0
 75158  1  0  0  0  0
 76159  1  0  0  0  0
 86160  1  0  0  0  0
 86161  1  0  0  0  0
 87162  1  0  0  0  0
 87163  1  0  0  0  0
 87164  1  0  0  0  0
 88165  1  0  0  0  0
 88166  1  0  0  0  0
 89167  1  0  0  0  0
 89168  1  0  0  0  0
 89169  1  0  0  0  0
 91170  1  0  0  0  0
 92171  1  0  0  0  0
102172  1  0  0  0  0
102173  1  0  0  0  0
103174  1  0  0  0  0
103175  1  0  0  0  0
103176  1  0  0  0  0
104177  1  0  0  0  0
104178  1  0  0  0  0
105179  1  0  0  0  0
105180  1  0  0  0  0
105181  1  0  0  0  0
107182  1  0  0  0  0
108183  1  0  0  0  0
109184  1  0  0  0  0
M  END
