170

C        -16.07630        8.26740        6.65470
C        -14.80560        8.41000        6.23040
C        -14.08620        7.17680        6.19180
C        -12.76140        6.95290        5.80490
C        -11.85110        8.06600        5.37960
C        -11.19980        8.72810        6.59530
C        -12.31440        5.64620        5.87800
C        -13.12080        4.55940        6.30040
C        -14.45260        4.78240        6.67170
C        -15.34180        3.67670        7.15580
C        -15.12660        3.42370        8.64910
C        -14.89380        6.09190        6.61310
S        -16.49980        6.63440        7.04010
C        -12.40660        3.33210        6.27220
C        -11.11620        3.45690        5.84950
S        -10.70540        5.11530        5.46480
C        -10.13410        2.43140        5.68570
C        -10.24020        1.10190        5.97490
C         -9.07600        0.35330        5.66130
C         -8.85500       -1.02310        5.81710
C         -9.87880       -1.93020        6.43130
C         -9.78530       -1.89510        7.95790
C         -7.62280       -1.49610        5.41030
C         -6.61060       -0.67430        4.85170
C         -6.82920        0.69990        4.69560
C         -5.77750        1.61530        4.14530
C         -4.78710        2.02400        5.23730
C         -8.05810        1.17410        5.11160
S         -8.56910        2.83820        5.01560
C         -5.46160       -1.42150        4.49540
C         -5.56510       -2.75640        4.75760
S         -7.10590       -3.16650        5.48790
C         -4.59910       -3.75810        4.46820
S         -3.11080       -3.30620        3.67330
C         -2.61470       -4.95870        3.62850
C         -1.43690       -5.48770        3.06260
C         -1.17740       -6.84310        3.20390
O         -1.96640       -7.67860        3.90450
C         -3.32660       -7.30510        4.20320
C         -3.60000       -7.86130        5.61460
C         -3.41670       -9.36830        5.73640
C         -4.28210       -7.90020        3.12670
C         -3.69090       -9.05910        2.33110
C         -3.53490       -5.80610        4.21610
C         -4.66070       -5.11680        4.68430
C          0.01970       -7.23530        2.58670
C          0.66830       -6.18530        1.96820
S         -0.20710       -4.68850        2.15580
C          1.86830       -6.18750        1.20930
S          2.47310       -4.68150        0.56750
C          3.78810       -5.50590       -0.18190
C          4.74460       -4.96740       -1.06850
C          5.51380       -5.84070       -1.82500
O          5.43690       -7.17950       -1.70050
C          4.89490       -7.72480       -0.47480
C          6.04650       -7.73490        0.55710
C          5.69390       -8.37790        1.89060
C          4.38910       -9.12660       -0.84830
C          5.46740      -10.02730       -1.43910
C          3.76560       -6.87030        0.05640
C          2.67460       -7.24880        0.84570
C          6.30250       -5.18110       -2.77990
C          6.14610       -3.81350       -2.74540
S          5.01660       -3.32160       -1.50900
C          6.73680       -2.82210       -3.57560
C          6.53410       -1.47400       -3.50740
C          7.21440       -0.73950       -4.50830
C          7.19790        0.64470       -4.72500
C          6.45280        1.58040       -3.82170
C          7.27550        1.90010       -2.57210
C          7.93580        1.10260       -5.79850
C          8.67480        0.25720       -6.66520
C          8.69340       -1.12710       -6.44530
C          9.49360       -2.05660       -7.30690
C         10.95460       -2.09110       -6.85440
C          7.96320       -1.58590       -5.36590
S          7.81220       -3.26200       -4.88760
C          9.31090        0.99350       -7.69840
C          9.08240        2.33530       -7.63910
S          8.06660        2.77570       -6.27970
C          9.54690        3.34920       -8.52780
C          9.32360        4.69010       -8.44690
C          9.91010        5.43450       -9.50400
C          9.86860        6.81740       -9.71670
C          9.18040        7.74740       -8.76380
C         10.09390        8.08980       -7.58530
C         10.53760        7.28440      -10.83360
C         11.22570        6.44680      -11.74520
C         11.26620        5.06460      -11.53330
C         11.93850        4.12730      -12.49120
C         10.98920        3.75110      -13.63040
C         10.60260        4.59720      -10.41410
S         10.50600        2.92070       -9.93180
C         11.80780        7.20050      -12.80940
C         11.57800        8.52430      -12.70660
S         10.64160        8.96020      -11.31860
H        -16.82170        9.02930        6.77630
H        -14.37990        9.35730        5.95280
H        -11.07050        7.65980        4.73220
H        -12.41170        8.81050        4.81190
H        -10.54180        9.53400        6.27940
H        -11.95850        9.13610        7.25970
H        -10.61320        7.99910        7.14950
H        -15.13870        2.76270        6.59500
H        -16.38390        3.95640        6.98600
H        -15.77300        2.62020        8.99400
H        -15.35680        4.32170        9.21770
H        -14.09220        3.14950        8.84420
H        -12.83850        2.38840        6.55070
H        -11.12740        0.66880        6.39900
H        -10.87990       -1.63020        6.11710
H         -9.70360       -2.95110        6.08440
H        -10.53150       -2.55200        8.39840
H         -8.80020       -2.22430        8.28000
H         -9.94730       -0.88450        8.32650
H         -5.24280        1.12120        3.33230
H         -6.25870        2.51010        3.74390
H         -4.02780        2.68640        4.82890
H         -5.30610        2.54410        6.03910
H         -4.29730        1.14740        5.65540
H         -4.58140       -0.99570        4.04770
H         -2.90760       -7.36190        6.29700
H         -4.61440       -7.58820        5.90630
H         -4.17680       -9.90170        5.17220
H         -2.43510       -9.65590        5.37090
H         -3.49870       -9.66310        6.78020
H         -5.19860       -8.22020        3.62370
H         -4.55000       -7.10500        2.42550
H         -3.35620       -9.85790        2.98490
H         -2.84210       -8.72540        1.73910
H         -4.44560       -9.45300        1.65390
H         -5.51130       -5.57770        5.15350
H          0.38710       -8.24390        2.59830
H          6.33880       -6.69430        0.72490
H          6.89850       -8.24560        0.10620
H          4.82040       -7.90130        2.32960
H          5.49130       -9.43920        1.77420
H          6.52650       -8.26580        2.58110
H          3.59130       -8.99500       -1.58260
H          3.95990       -9.59470        0.03640
H          6.20750      -10.29870       -0.69100
H          5.96680       -9.52170       -2.26030
H          5.01460      -10.94110       -1.81660
H          2.45960       -8.25790        1.14400
H          6.94930       -5.68400       -3.47490
H          5.90010       -1.03090       -2.76010
H          5.50060        1.13490       -3.52890
H          6.24510        2.50700       -4.36180
H          8.21520        2.37090       -2.85150
H          7.49710        0.99060       -2.01840
H          6.72720        2.57870       -1.92320
H          9.44030       -1.73700       -8.34900
H          9.07100       -3.06130       -7.23460
H         11.02010       -2.43530       -5.82480
H         11.52890       -2.76690       -7.48330
H         11.39570       -1.09870       -6.91440
H          9.91630        0.55160       -8.46980
H          8.75240        5.12640       -7.64680
H          8.26220        7.28810       -8.39380
H          8.91490        8.66650       -9.29100
H         10.37480        7.18790       -7.04610
H         11.00010        8.57430       -7.94130
H          9.58740        8.76360       -6.89860
H         12.23340        3.22160      -11.95600
H         12.83790        4.59060      -12.89980
H         11.47860        3.06960      -14.32200
H         10.67800        4.63920      -14.17600
H         10.10180        3.26360      -13.23310
H         12.37080        6.76140      -13.61310
H         11.90230        9.30420      -13.36790
