212

C         10.22970      -20.51500        3.34790
S          9.90720      -18.85210        3.65210
C          9.82400      -18.54520        1.95330
C          9.48980      -17.33310        1.29720
C          9.21240      -17.37860       -0.06110
O          9.26180      -18.51030       -0.79000
C         10.07750      -19.59960       -0.30340
C         11.52680      -19.30590       -0.75620
C         12.52800      -20.40750       -0.44010
C          9.47630      -20.86440       -0.93640
C          9.44680      -20.82970       -2.45980
C         10.03530      -19.68450        1.20490
C         10.26550      -20.81110        2.02020
C          8.80420      -16.13960       -0.57470
C          8.77680      -15.15020        0.38210
S          9.26530      -15.74890        1.94530
C          8.39190      -13.79220        0.21660
C          8.30410      -12.81970        1.17100
C          7.83030      -11.58160        0.67740
C          7.62740      -10.38270        1.38520
C          7.81130      -10.31810        2.82480
S          8.82080       -9.10650        3.55560
C          8.50080       -9.69180        5.15210
C          9.06730       -9.00980        6.34790
C          8.23210       -7.78200        6.71870
C          7.64950      -10.75510        5.10560
Cl         7.08980      -11.59550        6.49320
C          7.26090      -11.11760        3.78810
Cl         6.14570      -12.38320        3.46990
C          7.23010       -9.27470        0.65050
C          6.99940       -9.31830       -0.74570
C          7.16410      -10.52600       -1.44870
C          6.91540      -10.60310       -2.87870
S          7.70420       -9.51900       -3.98820
C          6.93790      -10.23850       -5.36420
C          7.15710       -9.70130       -6.73550
C          6.30580       -8.45230       -6.97640
C          6.11720      -11.25130       -4.96930
C          6.10570      -11.46520       -3.56370
Cl         5.09670      -12.63570       -2.82360
Cl         5.17570      -12.19660       -6.04830
C          7.57860      -11.62980       -0.71710
S          7.91510      -13.20860       -1.36580
C          6.54490       -8.07760       -1.24650
C          6.42490       -7.10860       -0.28920
S          6.88230       -7.69530        1.29750
C          5.95510       -5.77990       -0.48320
S          5.57300       -4.72870        0.85310
C          5.02120       -3.50810       -0.23760
C          4.51460       -2.22550        0.06730
C          4.33330       -1.32440       -0.97470
O          4.66440       -1.60500       -2.25090
C          4.63450       -2.99300       -2.66680
C          3.14970       -3.31360       -2.97590
C          2.76450       -4.78760       -2.98380
C          5.55500       -2.98180       -3.90520
C          5.32710       -4.03890       -4.97720
C          5.14490       -3.89130       -1.56540
C          5.68060       -5.17350       -1.69190
C          3.82090       -0.09300       -0.55110
C          3.59980       -0.04600        0.80900
S          4.05150       -1.54250        1.58680
C          2.99780        1.00190        1.54970
S          2.26890        2.35530        0.72160
C          1.73540        3.01170        2.22800
C          0.85480        4.09670        2.43300
C          0.27490        4.24410        3.68840
O          0.58640        3.47260        4.74370
C          1.82100        2.72040        4.70880
C          1.59800        1.53770        5.66340
C          1.24950        1.96140        7.08550
C          2.94630        3.67910        5.16180
C          4.31340        3.02340        5.29490
C          2.12540        2.23790        3.31000
C          2.83160        1.09870        2.91630
C         -0.73540        5.21500        3.70840
C         -0.92440        5.81430        2.48270
S          0.17600        5.19110        1.28120
C         -1.91120        6.76910        2.11860
C         -2.11420        7.33060        0.89020
C         -3.25470        8.16490        0.82880
C         -3.75370        8.86620       -0.28430
C         -3.03460        8.87770       -1.54740
S         -1.36870        9.37540       -1.61960
C         -1.29370        9.15460       -3.33420
C         -0.05980        9.48050       -4.10070
C          0.00670       10.97630       -4.41820
C         -2.49680        8.72470       -3.80790
Cl        -2.80960        8.39080       -5.46150
C         -3.48470        8.56250       -2.79910
Cl        -5.04630        7.94420       -3.13760
C         -4.95140        9.54830       -0.11450
C         -5.65170        9.56550        1.11730
C         -5.11610        8.92570        2.25010
C         -5.77980        9.03330        3.53760
S         -6.15160        7.63420        4.50030
C         -6.90300        8.58580        5.73430
C         -7.54190        7.95600        6.92270
C         -9.03280        7.71190        6.67590
C         -6.86100        9.90840        5.40620
C         -6.21920       10.16750        4.16630
Cl        -5.96250       11.76310        3.58490
Cl        -7.51630       11.15760        6.38320
C         -3.94060        8.21290        2.06830
S         -3.11880        7.27690        3.28510
C         -6.87490       10.26570        1.01940
C         -7.08820       10.82380       -0.20830
S         -5.78120       10.48930       -1.32060
C         -8.22050       11.60470       -0.59040
C         -9.33000       11.83670        0.16980
C        -10.27040       12.69410       -0.44720
C        -11.51140       13.11790        0.05850
C        -11.92400       12.76020        1.40410
S        -13.47750       12.04100        1.71160
C        -13.16040       11.88870        3.40600
C        -14.18700       11.33940        4.33360
C        -15.22560       12.40520        4.69060
C        -11.92630       12.38490        3.70340
Cl       -11.25260       12.40330        5.28230
C        -11.22110       12.87830        2.57280
Cl        -9.67730       13.61980        2.71250
C        -12.30810       13.87470       -0.79190
C        -11.90300       14.25180       -2.09420
C        -10.64260       13.86820       -2.57950
C        -10.18460       14.24530       -3.90770
S        -11.11050       13.86020       -5.32850
C         -9.92740       14.55330       -6.38450
C        -10.08920       14.50740       -7.86380
C         -9.53980       13.19660       -8.43210
C         -8.88100       15.04510       -5.66340
C         -9.02320       14.87430       -4.25980
Cl        -7.87730       15.47890       -3.13820
Cl        -7.51570       15.81290       -6.36300
C         -9.85280       13.09110       -1.74120
S         -8.29740       12.41790       -2.13630
C        -12.89030       15.05400       -2.73820
C        -13.97650       15.26590       -1.96820
S        -13.88100       14.51770       -0.41140
H         10.37670      -21.17800        4.17650
H         11.83860      -18.38210       -0.25980
H         11.50920      -19.11020       -1.82940
H         12.54180      -20.62230        0.62580
H         13.52490      -20.08970       -0.73640
H         12.29030      -21.32130       -0.97800
H          8.45420      -20.95520       -0.56170
H         10.03820      -21.73340       -0.59720
H          8.88370      -21.68130       -2.83430
H         10.45020      -20.87700       -2.87460
H          8.96730      -19.91760       -2.80300
H         10.45010      -21.80260        1.64970
H          8.53050      -15.97750       -1.60090
H          8.57950      -12.99240        2.19550
H         10.09270       -8.70060        6.13770
H          9.07700       -9.71400        7.18160
H          7.21100       -8.07660        6.94740
H          8.21290       -7.07630        5.89160
H          8.65670       -7.29020        7.58980
H          8.21180       -9.45050       -6.86370
H          6.88970      -10.47320       -7.45890
H          6.57080       -7.67310       -6.26530
H          6.47010       -8.07620       -7.98240
H          5.25070       -8.68700       -6.86010
H          6.28940       -7.91810       -2.27680
H          2.89410       -2.84860       -3.92930
H          2.55740       -2.81400       -2.20350
H          1.70470       -4.87650       -3.21200
H          2.94000       -5.23990       -2.01090
H          3.32040       -5.34790       -3.72780
H          5.42270       -1.99690       -4.35890
H          6.58640       -3.04080       -3.55040
H          4.32660       -3.97220       -5.39410
H          6.03810       -3.87450       -5.78420
H          5.48190       -5.04500       -4.59890
H          5.86660       -5.66220       -2.62810
H          3.61350        0.72790       -1.21230
H          2.49120        0.91500        5.67160
H          0.77600        0.94550        5.25510
H          0.41920        2.66160        7.07420
H          2.09830        2.43030        7.57600
H          0.96110        1.08880        7.66650
H          3.00260        4.48480        4.42400
H          2.64790        4.12520        6.11140
H          5.05850        3.77860        5.53310
H          4.31800        2.28110        6.08840
H          4.60260        2.54040        4.36440
H          3.21600        0.34920        3.58400
H         -1.31860        5.45400        4.57850
H         -1.47480        7.12580        0.05050
H          0.81640        9.19400       -3.51640
H         -0.06450        8.90840       -5.03020
H         -0.85710       11.27510       -5.00660
H          0.01840       11.55670       -3.49870
H          0.90770       11.19840       -4.98350
H         -7.04620        7.00880        7.13950
H         -7.42080        8.62080        7.78040
H         -9.48750        7.26110        7.55380
H         -9.17100        7.04480        5.82850
H         -9.53750        8.65130        6.46540
H         -7.57570       10.34250        1.82840
H         -9.48350       11.38990        1.13300
H        -13.68880       10.99260        5.24060
H        -14.68650       10.49140        3.86140
H        -15.72850       12.75610        3.79250
H        -15.96720       11.99160        5.36860
H        -14.74550       13.25240        5.17360
H         -9.54950       15.34950       -8.30120
H        -11.14700       14.59850       -8.11640
H         -8.48290       13.09880       -8.19820
H        -10.07010       12.34860       -8.00540
H         -9.66160       13.17790       -9.51170
H        -12.77670       15.44960       -3.73060
H        -14.85600       15.82930       -2.21110
