198

C          2.57750       -8.37250       13.25770
S          1.46790       -8.66480       11.97390
C          1.04780       -6.98820       11.93870
C          0.17990       -6.31960       11.03820
C          0.18300       -4.93260       11.03090
O          0.95020       -4.18410       11.84540
C          1.46560       -4.78510       13.05490
C          2.74050       -3.99170       13.37440
C          3.79990       -4.14750       12.28960
C          0.37250       -4.58410       14.13330
C          0.71440       -5.12240       15.51510
C          1.74290       -6.25660       12.87810
C          2.62020       -7.06470       13.63000
C         -0.64220       -4.39240       10.03410
C         -1.27910       -5.35830        9.28840
S         -0.86230       -6.96510        9.82190
C         -2.14870       -5.16410        8.18110
C         -2.73870       -6.11180        7.39470
C         -3.47440       -5.57180        6.31320
C         -4.11700       -6.25780        5.26680
C         -4.06810       -7.70760        5.16830
S         -5.51720       -8.65270        5.00460
C         -4.63250      -10.13790        4.92570
C         -5.32760      -11.43740        4.71440
C         -5.62350      -11.65810        3.22900
C         -3.29400       -9.89720        5.01100
Cl        -2.09480      -11.12340        4.95490
C         -2.96970       -8.52120        5.15370
Cl        -1.34980       -7.95600        5.21400
C         -4.74700       -5.48900        4.29940
C         -4.75610       -4.07330        4.32320
C         -4.12170       -3.38510        5.37290
C         -4.10130       -1.93200        5.42380
S         -3.52430       -0.98290        4.08480
C         -3.80000        0.50800        4.91800
C         -3.45290        1.81610        4.29740
C         -1.99200        2.18190        4.57040
C         -4.29940        0.26770        6.16270
C         -4.47410       -1.11220        6.45240
Cl        -5.16630       -1.66170        7.92020
Cl        -4.70210        1.50170        7.28470
C         -3.48300       -4.15420        6.33520
S         -2.52900       -3.53670        7.65220
C         -5.39830       -3.53010        3.18760
C         -5.83200       -4.47090        2.29770
S         -5.52340       -6.10270        2.86370
C         -6.34780       -4.22920        0.99630
S         -6.41830       -2.58910        0.40140
C         -6.86300       -3.16290       -1.16380
C         -6.79710       -2.43330       -2.37260
C         -6.62400       -3.15250       -3.55070
O         -6.74090       -4.49060       -3.61420
C         -7.41780       -5.16260       -2.52250
C         -6.96780       -6.62660       -2.65640
C         -7.85450       -7.65980       -1.97060
C         -8.93900       -4.96090       -2.70260
C         -9.44430       -5.37500       -4.07990
C         -7.00300       -4.54200       -1.20780
C         -6.69750       -5.13750        0.02070
C         -6.18530       -2.35210       -4.61570
C         -6.03420       -1.02930       -4.25870
S         -6.48850       -0.75080       -2.59930
C         -5.38660        0.01820       -4.97500
C         -4.51680       -0.10930       -6.02220
C         -3.77140        1.06580       -6.28060
C         -2.66190        1.22430       -7.13260
C         -2.22920        0.18870       -8.05550
S         -1.94410       -1.45260       -7.55630
C         -1.44470       -1.93550       -9.14210
C         -1.07930       -3.34810       -9.43750
C         -2.32920       -4.21690       -9.59560
C         -1.51110       -0.87870       -9.99930
Cl        -1.10880       -0.96840      -11.66480
C         -1.94490        0.32730       -9.38640
Cl        -2.16120        1.77890      -10.27040
C         -1.93690        2.40200       -7.00420
C         -2.32850        3.47050       -6.15950
C         -3.50900        3.36110       -5.40180
C         -3.98330        4.42860       -4.53820
S         -2.95600        5.20270       -3.36670
C         -4.23670        6.21420       -2.78750
C         -3.99200        7.23050       -1.72750
C         -3.21520        8.42670       -2.28160
C         -5.38400        5.96080       -3.47650
C         -5.24730        4.94520       -4.46140
Cl        -6.53680        4.49280       -5.49490
Cl        -6.86970        6.77310       -3.19860
C         -4.16580        2.13780       -5.44190
S         -5.43540        1.65530       -4.35550
C         -1.35430        4.49320       -6.11390
C         -0.21910        4.19850       -6.81820
S         -0.36500        2.69000       -7.69490
C          1.02290        4.88950       -6.75150
S          2.50540        4.10200       -7.22920
C          3.43190        5.40280       -6.57400
C          4.82800        5.45540       -6.36600
C          5.32630        6.41250       -5.48970
O          4.56910        7.36640       -4.91840
C          3.27190        7.65080       -5.48960
C          2.45870        8.25550       -4.33670
C          2.26170        7.27400       -3.18690
C          3.50690        8.67370       -6.62730
C          2.24970        9.09930       -7.37240
C          2.63190        6.40820       -6.05350
C          1.27150        6.11040       -6.15790
C          6.68270        6.22770       -5.19230
C          7.23060        5.14180       -5.84380
S          6.05740        4.34190       -6.85490
C          8.55560        4.64110       -5.73290
S          9.13040        3.36690       -6.77690
C         10.64580        3.34520       -5.95250
C         11.80810        2.60330       -6.27980
C         13.00530        2.97420       -5.69320
O         13.10820        3.97280       -4.79150
C         11.92050        4.31460       -4.03300
C         12.25010        5.73260       -3.52610
C         11.57060        6.20520       -2.24780
C         11.79890        3.25180       -2.91090
C         10.41170        3.08110       -2.30360
C         10.70030        4.27010       -4.92270
C          9.51860        5.00820       -4.81480
C         14.10330        2.23410       -6.18280
C         13.72430        1.31600       -7.11250
S         12.03240        1.32500       -7.42260
H          3.13320       -9.19360       13.66380
H          2.46200       -2.94020       13.46040
H          3.13810       -4.32260       14.33270
H          4.11350       -5.18550       12.20100
H          3.40200       -3.82380       11.33130
H          4.67050       -3.54110       12.52700
H         -0.53330       -5.07840       13.77030
H          0.16410       -3.51360       14.19220
H          0.93440       -6.18630       15.47290
H         -0.13300       -4.97600       16.18060
H          1.56990       -4.60380       15.93960
H          3.25960       -6.69910       14.41260
H         -0.75920       -3.33850        9.86120
H         -2.63680       -7.16450        7.58600
H         -6.26350      -11.44430        5.27560
H         -4.68950      -12.24130        5.08530
H         -4.69810      -11.66900        2.65870
H         -6.13280      -12.60730        3.08600
H         -6.25630      -10.85940        2.84920
H         -4.10570        2.58540        4.71450
H         -3.61920        1.76060        3.22030
H         -1.33020        1.42390        4.15820
H         -1.75510        3.13870        4.11290
H         -1.81560        2.25310        5.64050
H         -5.51220       -2.47630        3.00940
H         -6.91620       -6.84540       -3.72410
H         -5.95150       -6.69470       -2.26240
H         -8.04110       -7.40470       -0.93150
H         -8.81270       -7.75670       -2.47240
H         -7.36100       -8.62860       -2.00010
H         -9.45820       -5.51180       -1.91850
H         -9.15130       -3.89840       -2.55530
H         -9.33320       -6.44350       -4.24040
H         -8.88960       -4.85320       -4.85570
H        -10.49700       -5.12040       -4.17720
H         -6.69050       -6.19420        0.21420
H         -5.96140       -2.73850       -5.59180
H         -4.35390       -1.04020       -6.53160
H         -0.49680       -3.37030      -10.36000
H         -0.46500       -3.74240       -8.62580
H         -2.94900       -3.84190      -10.40630
H         -2.04590       -5.24180       -9.81920
H         -2.91260       -4.20810       -8.67780
H         -4.95520        7.56380       -1.33810
H         -3.42350        6.77730       -0.91270
H         -2.25000        8.10310       -2.66440
H         -3.05190        9.16210       -1.49850
H         -3.77130        8.89590       -3.08950
H         -1.45620        5.38100       -5.51940
H          3.00230        9.12970       -3.97510
H          1.49250        8.58470       -4.71620
H          1.69540        6.40320       -3.50950
H          1.72370        7.75550       -2.37400
H          3.22640        6.93950       -2.81430
H          4.20520        8.21690       -7.33420
H          3.99800        9.54730       -6.19330
H          1.73300        8.23540       -7.78360
H          2.51970        9.75850       -8.19370
H          1.56700        9.63600       -6.71920
H          0.48290        6.75190       -5.81140
H          7.22780        6.86570       -4.52340
H         12.03130        6.43240       -4.33560
H         13.33100        5.74570       -3.36820
H         11.91510        7.21210       -2.02110
H         11.82300        5.56780       -1.40550
H         10.48980        6.23690       -2.34790
H         12.09440        2.29540       -3.35180
H         12.52810        3.48850       -2.13460
H          9.69880        2.74890       -3.05420
H         10.04410        4.00400       -1.86810
H         10.45470        2.32700       -1.52080
H          9.34580        5.77530       -4.08520
H         15.11370        2.38760       -5.85360
H         14.34440        0.61620       -7.63550
