137

C          6.11660        3.22060       12.04280
C          6.40350        2.30700       11.05460
N          7.61740        1.82010       10.69880
C          7.64320        0.96210        9.71500
C          8.98090        0.42910        9.31790
C          6.45630        0.53540        9.02510
C          6.52070       -0.44220        7.89990
N          5.27310        0.98900        9.35450
C          5.22500        1.87260       10.36260
C          4.06000        2.47350       10.84040
S          4.43420        3.55880       12.13310
C          2.77030        2.26280       10.33540
C          1.58350        2.89180       10.71730
N          1.47800        3.81640       11.68630
C          0.28690        4.31570       11.90190
C          0.16680        5.34600       12.97480
C         -0.85190        3.89580       11.14270
C         -2.20350        4.47610       11.40300
N         -0.76480        2.99600       10.19390
C          0.45140        2.47100        9.95430
C          0.77890        1.50770        8.98970
S          2.48120        1.14380        9.04560
C         -0.08200        0.92550        8.04050
S          0.48770       -0.27890        6.90820
C         -1.06930       -0.33530        6.15840
C         -1.44740       -1.01320        4.98310
C         -2.63170       -0.63680        4.35550
O         -3.48620        0.26810        4.86360
C         -3.40340        0.57850        6.26660
C         -3.97760        2.00070        6.44970
C         -5.00790        2.41440        5.40370
C         -4.17460       -0.50280        7.06320
C         -5.64790       -0.63420        6.70160
C         -1.97440        0.53000        6.76020
C         -1.41750        1.22790        7.82760
C         -2.79300       -1.22870        3.09690
C         -1.76020       -2.08130        2.76950
S         -0.56520       -2.16500        4.04160
C         -1.54560       -2.77430        1.55270
S         -2.40830       -2.31190        0.10460
C         -1.48570       -3.44000       -0.82700
C         -1.43490       -3.57500       -2.23020
C         -0.39270       -4.31220       -2.78270
O          0.50480       -5.00170       -2.05940
C          0.23620       -5.25860       -0.66950
C          1.60270       -5.36460        0.04420
C          2.75450       -5.82160       -0.84510
C         -0.61480       -6.54860       -0.56060
C          0.03120       -7.79210       -1.15620
C         -0.59050       -4.15580       -0.04780
C         -0.62610       -3.77000        1.29290
C         -0.30910       -4.18040       -4.17430
C         -1.27800       -3.34850       -4.69420
S         -2.34160       -2.74310       -3.44760
C         -1.41380       -2.90270       -6.03090
S         -0.24080       -3.35750       -7.24290
C         -1.01650       -2.33660       -8.40280
C         -0.56270       -1.99120       -9.69270
C         -1.13700       -0.88760      -10.32000
O         -2.15970       -0.19040       -9.79200
C         -2.97480       -0.82930       -8.78470
C         -4.00110       -1.71560       -9.52770
C         -5.02280       -2.38750       -8.62150
C         -3.61410        0.32230       -7.99390
C         -4.43540        1.27130       -8.85850
C         -2.13530       -1.70210       -7.88210
C         -2.35030       -2.02570       -6.54190
C         -0.48590       -0.53310      -11.50540
C          0.57400       -1.36730      -11.80100
S          0.76920       -2.61820      -10.59840
C          1.44630       -1.26620      -12.90980
C          1.48590       -0.25650      -13.87380
N          0.67690        0.81850      -13.94230
C          0.89080        1.66590      -14.91430
C         -0.00130        2.86100      -14.98280
C          1.93710        1.46840      -15.88090
C          2.15810        2.45530      -16.97910
N          2.73030        0.43460      -15.84210
C          2.53280       -0.45470      -14.83990
C          3.26090       -1.59760      -14.60730
S          2.69290       -2.42820      -13.22570
H          6.79990        3.70500       12.70940
H          9.00560       -0.65460        9.42170
H          9.19400        0.67330        8.27820
H          9.74300        0.86950        9.95430
H          6.95500       -1.38320        8.23470
H          7.13980       -0.05440        7.09200
H          5.51540       -0.62120        7.52870
H         -0.52680        5.01500       13.74640
H         -0.20790        6.28250       12.56390
H          1.14510        5.51220       13.41670
H         -2.19110        5.55400       11.24830
H         -2.92460        4.02550       10.72700
H         -2.50780        4.28690       12.43130
H         -3.14730        2.70840        6.39930
H         -4.41200        2.06600        7.44800
H         -5.34320        3.42790        5.61340
H         -4.56610        2.39370        4.41190
H         -5.87020        1.75680        5.40460
H         -4.06420       -0.27930        8.12600
H         -3.67620       -1.45780        6.87190
H         -5.76260       -0.73790        5.62550
H         -6.06490       -1.51790        7.18000
H         -6.21220        0.23110        7.03770
H         -1.92660        1.94310        8.44580
H         -3.62540       -1.03390        2.44620
H          1.49390       -6.04400        0.89070
H          1.85660       -4.37740        0.43690
H          2.57180       -6.80280       -1.26900
H          3.66710       -5.86190       -0.25440
H          2.90090       -5.12080       -1.66170
H         -0.84700       -6.71170        0.49370
H         -1.55730       -6.35470       -1.08140
H          0.36910       -7.59030       -2.16960
H         -0.69490       -8.60160       -1.18890
H          0.87660       -8.11900       -0.55740
H         -0.00960       -4.18880        2.06770
H          0.44790       -4.65120       -4.77380
H         -3.43680       -2.48240      -10.06640
H         -4.50530       -1.09730      -10.27170
H         -5.64740       -3.05670       -9.20860
H         -4.52830       -2.97190       -7.84910
H         -5.66740       -1.65450       -8.14410
H         -2.80090        0.87990       -7.52420
H         -4.23860       -0.09310       -7.20440
H         -3.84440        1.61180       -9.70370
H         -5.33460        0.78720       -9.23020
H         -4.73350        2.13620       -8.27050
H         -3.14710       -1.63810       -5.93320
H         -0.75160        0.30020      -12.12710
H         -0.53400        2.88640      -15.93230
H          0.58260        3.77660      -14.89970
H         -0.71960        2.81990      -14.16890
H          1.26540        2.54570      -17.59620
H          2.98910        2.12280      -17.59450
H          2.38470        3.43760      -16.56740
H          4.08830       -1.97910      -15.16920
