
  xtb     03012220313D
 energy: -288.140427040893 gnorm: 0.000494584510 xtb: 6.4.1 (unknown)
185197  0     0  0            999 V2000
    1.0406   -4.1083   13.4060 C   0  0  0  0  0  0  0  0  0  0  0  0
    2.1342   -3.5520   12.8284 C   0  0  0  0  0  0  0  0  0  0  0  0
    1.9293   -3.1933   11.4743 C   0  0  0  0  0  0  0  0  0  0  0  0
    2.9366   -2.5135   10.6543 C   0  0  0  0  0  0  0  0  0  0  0  0
    4.2154   -3.0341   10.5372 C   0  0  0  0  0  0  0  0  0  0  0  0
    5.1549   -2.4086    9.7209 C   0  0  0  0  0  0  0  0  0  0  0  0
    4.8033   -1.2690    9.0052 C   0  0  0  0  0  0  0  0  0  0  0  0
    3.5252   -0.7335    9.1422 C   0  0  0  0  0  0  0  0  0  0  0  0
    3.0863    0.3978    8.5171 O   0  0  0  0  0  0  0  0  0  0  0  0
    3.7084    0.8204    7.3230 C   0  0  0  0  0  0  0  0  0  0  0  0
    3.4622   -0.1489    6.1702 C   0  0  0  0  0  0  0  0  0  0  0  0
    2.6030   -1.3456    9.9808 C   0  0  0  0  0  0  0  0  0  0  0  0
    6.3849   -2.9947    9.7069 O   0  0  0  0  0  0  0  0  0  0  0  0
    7.3992   -2.5050    8.8558 C   0  0  0  0  0  0  0  0  0  0  0  0
    7.2130   -2.9438    7.4059 C   0  0  0  0  0  0  0  0  0  0  0  0
    0.6611   -3.5090   11.0349 C   0  0  0  0  0  0  0  0  0  0  0  0
   -0.2796   -4.2324   12.3130 S   0  0  0  0  0  0  0  0  0  0  0  0
    0.0807   -3.3685    9.7350 C   0  0  0  0  0  0  0  0  0  0  0  0
   -1.2561   -3.3279    9.4300 C   0  0  0  0  0  0  0  0  0  0  0  0
   -1.5322   -3.2063    8.0562 C   0  0  0  0  0  0  0  0  0  0  0  0
   -2.8932   -3.1654    7.5112 C   0  0  0  0  0  0  0  0  0  0  0  0
   -3.8202   -2.2707    8.0227 C   0  0  0  0  0  0  0  0  0  0  0  0
   -5.1042   -2.2094    7.4875 C   0  0  0  0  0  0  0  0  0  0  0  0
   -5.4519   -3.0331    6.4221 C   0  0  0  0  0  0  0  0  0  0  0  0
   -4.5245   -3.9399    5.9168 C   0  0  0  0  0  0  0  0  0  0  0  0
   -4.7659   -4.8062    4.8912 O   0  0  0  0  0  0  0  0  0  0  0  0
   -5.8495   -4.5735    4.0170 C   0  0  0  0  0  0  0  0  0  0  0  0
   -5.6401   -3.3390    3.1435 C   0  0  0  0  0  0  0  0  0  0  0  0
   -3.2562   -4.0205    6.4789 C   0  0  0  0  0  0  0  0  0  0  0  0
   -5.9259   -1.2844    8.0585 O   0  0  0  0  0  0  0  0  0  0  0  0
   -7.2888   -1.2224    7.6953 C   0  0  0  0  0  0  0  0  0  0  0  0
   -8.1111   -2.3642    8.2872 C   0  0  0  0  0  0  0  0  0  0  0  0
   -0.3817   -3.1569    7.2904 C   0  0  0  0  0  0  0  0  0  0  0  0
    1.0444   -3.2829    8.2884 S   0  0  0  0  0  0  0  0  0  0  0  0
   -0.2228   -2.9436    5.8893 C   0  0  0  0  0  0  0  0  0  0  0  0
    0.8888   -3.2174    5.1278 C   0  0  0  0  0  0  0  0  0  0  0  0
    0.7514   -2.8911    3.7690 C   0  0  0  0  0  0  0  0  0  0  0  0
    1.7797   -3.1805    2.7566 C   0  0  0  0  0  0  0  0  0  0  0  0
    1.5302   -4.1327    1.7854 C   0  0  0  0  0  0  0  0  0  0  0  0
    2.4938   -4.4186    0.8165 C   0  0  0  0  0  0  0  0  0  0  0  0
    3.6994   -3.7366    0.8416 C   0  0  0  0  0  0  0  0  0  0  0  0
    3.9539   -2.7816    1.8277 C   0  0  0  0  0  0  0  0  0  0  0  0
    5.1717   -2.1771    1.7181 O   0  0  0  0  0  0  0  0  0  0  0  0
    5.5725   -1.2246    2.6791 C   0  0  0  0  0  0  0  0  0  0  0  0
    6.0521   -1.8657    3.9784 C   0  0  0  0  0  0  0  0  0  0  0  0
    2.9988   -2.5088    2.7951 C   0  0  0  0  0  0  0  0  0  0  0  0
    2.1355   -5.3562   -0.0986 O   0  0  0  0  0  0  0  0  0  0  0  0
    3.0615   -5.7722   -1.0817 C   0  0  0  0  0  0  0  0  0  0  0  0
    4.1111   -6.7340   -0.5315 C   0  0  0  0  0  0  0  0  0  0  0  0
   -0.4738   -2.3159    3.4843 C   0  0  0  0  0  0  0  0  0  0  0  0
   -1.4629   -2.2033    4.9190 S   0  0  0  0  0  0  0  0  0  0  0  0
   -0.9794   -1.7917    2.2643 C   0  0  0  0  0  0  0  0  0  0  0  0
   -0.0158   -1.6723    0.8147 S   0  0  0  0  0  0  0  0  0  0  0  0
   -1.3339   -0.9233   -0.0196 C   0  0  0  0  0  0  0  0  0  0  0  0
   -1.3555   -0.4024   -1.3326 C   0  0  0  0  0  0  0  0  0  0  0  0
   -2.4148    0.4166   -1.6986 C   0  0  0  0  0  0  0  0  0  0  0  0
   -3.4448    0.7043   -0.8779 O   0  0  0  0  0  0  0  0  0  0  0  0
   -3.7277   -0.2056    0.1991 C   0  0  0  0  0  0  0  0  0  0  0  0
   -4.4555    0.6352    1.2629 C   0  0  0  0  0  0  0  0  0  0  0  0
   -5.7227    1.3133    0.7583 C   0  0  0  0  0  0  0  0  0  0  0  0
   -4.5927   -1.3967   -0.3117 C   0  0  0  0  0  0  0  0  0  0  0  0
   -5.3154   -1.1324   -1.6290 C   0  0  0  0  0  0  0  0  0  0  0  0
   -2.4527   -0.7741    0.7825 C   0  0  0  0  0  0  0  0  0  0  0  0
   -2.2432   -1.2712    2.0700 C   0  0  0  0  0  0  0  0  0  0  0  0
   -2.2649    0.9650   -2.9794 C   0  0  0  0  0  0  0  0  0  0  0  0
   -1.1133    0.5452   -3.6069 C   0  0  0  0  0  0  0  0  0  0  0  0
   -0.1872   -0.5385   -2.5984 S   0  0  0  0  0  0  0  0  0  0  0  0
   -0.6476    0.8905   -4.9031 C   0  0  0  0  0  0  0  0  0  0  0  0
    0.3799    0.3234   -5.6153 C   0  0  0  0  0  0  0  0  0  0  0  0
    0.5835    0.8938   -6.8842 C   0  0  0  0  0  0  0  0  0  0  0  0
    1.5812    0.3717   -7.8264 C   0  0  0  0  0  0  0  0  0  0  0  0
    2.9069    0.2482   -7.4184 C   0  0  0  0  0  0  0  0  0  0  0  0
    3.8447   -0.2700   -8.2984 C   0  0  0  0  0  0  0  0  0  0  0  0
    3.4571   -0.6607   -9.5816 C   0  0  0  0  0  0  0  0  0  0  0  0
    2.1351   -0.5503   -9.9819 C   0  0  0  0  0  0  0  0  0  0  0  0
    1.6424   -0.9276  -11.1912 O   0  0  0  0  0  0  0  0  0  0  0  0
    2.5303   -1.2952  -12.2272 C   0  0  0  0  0  0  0  0  0  0  0  0
    3.2424   -0.0925  -12.8392 C   0  0  0  0  0  0  0  0  0  0  0  0
    1.1927   -0.0384   -9.0891 C   0  0  0  0  0  0  0  0  0  0  0  0
    5.1730   -0.4284   -8.0384 O   0  0  0  0  0  0  0  0  0  0  0  0
    5.6684   -0.1783   -6.7390 C   0  0  0  0  0  0  0  0  0  0  0  0
    5.3240   -1.2905   -5.7523 C   0  0  0  0  0  0  0  0  0  0  0  0
   -0.2798    1.9419   -7.1410 C   0  0  0  0  0  0  0  0  0  0  0  0
   -1.3811    2.1847   -5.8073 S   0  0  0  0  0  0  0  0  0  0  0  0
   -0.3236    2.8550   -8.2373 C   0  0  0  0  0  0  0  0  0  0  0  0
   -1.2872    3.8023   -8.4701 C   0  0  0  0  0  0  0  0  0  0  0  0
   -1.0325    4.6140   -9.6001 C   0  0  0  0  0  0  0  0  0  0  0  0
   -1.9056    5.6968  -10.0537 C   0  0  0  0  0  0  0  0  0  0  0  0
   -2.0249    5.9852  -11.4027 C   0  0  0  0  0  0  0  0  0  0  0  0
   -2.8522    7.0230  -11.8335 C   0  0  0  0  0  0  0  0  0  0  0  0
   -3.5549    7.7657  -10.8986 C   0  0  0  0  0  0  0  0  0  0  0  0
   -3.4358    7.4788   -9.5370 C   0  0  0  0  0  0  0  0  0  0  0  0
   -4.1606    8.2993   -8.7239 O   0  0  0  0  0  0  0  0  0  0  0  0
   -4.1872    8.0631   -7.3312 C   0  0  0  0  0  0  0  0  0  0  0  0
   -5.0922    6.8957   -6.9472 C   0  0  0  0  0  0  0  0  0  0  0  0
   -2.6170    6.4443   -9.1143 C   0  0  0  0  0  0  0  0  0  0  0  0
   -2.8756    7.2239  -13.1795 O   0  0  0  0  0  0  0  0  0  0  0  0
   -3.7615    8.1749  -13.7338 C   0  0  0  0  0  0  0  0  0  0  0  0
   -5.2043    7.6793  -13.7767 C   0  0  0  0  0  0  0  0  0  0  0  0
    0.1445    4.2674  -10.2054 C   0  0  0  0  0  0  0  0  0  0  0  0
    0.9485    2.9694   -9.4231 S   0  0  0  0  0  0  0  0  0  0  0  0
    0.9210   -4.4525   14.4139 H   0  0  0  0  0  0  0  0  0  0  0  0
    3.0609   -3.3750   13.3443 H   0  0  0  0  0  0  0  0  0  0  0  0
    4.4986   -3.9366   11.0543 H   0  0  0  0  0  0  0  0  0  0  0  0
    5.5190   -0.7887    8.3590 H   0  0  0  0  0  0  0  0  0  0  0  0
    4.7840    0.9846    7.4700 H   0  0  0  0  0  0  0  0  0  0  0  0
    3.2454    1.7866    7.1057 H   0  0  0  0  0  0  0  0  0  0  0  0
    3.9158    0.2395    5.2620 H   0  0  0  0  0  0  0  0  0  0  0  0
    3.8863   -1.1251    6.3961 H   0  0  0  0  0  0  0  0  0  0  0  0
    2.3930   -0.2720    6.0129 H   0  0  0  0  0  0  0  0  0  0  0  0
    1.6245   -0.9050   10.0828 H   0  0  0  0  0  0  0  0  0  0  0  0
    8.3208   -2.9367    9.2563 H   0  0  0  0  0  0  0  0  0  0  0  0
    7.4754   -1.4126    8.9283 H   0  0  0  0  0  0  0  0  0  0  0  0
    6.2742   -2.5706    7.0053 H   0  0  0  0  0  0  0  0  0  0  0  0
    7.1989   -4.0290    7.3495 H   0  0  0  0  0  0  0  0  0  0  0  0
    8.0317   -2.5681    6.7981 H   0  0  0  0  0  0  0  0  0  0  0  0
   -2.0255   -3.3878   10.1797 H   0  0  0  0  0  0  0  0  0  0  0  0
   -3.5600   -1.5964    8.8223 H   0  0  0  0  0  0  0  0  0  0  0  0
   -6.4369   -2.9743    5.9904 H   0  0  0  0  0  0  0  0  0  0  0  0
   -5.8867   -5.4696    3.3918 H   0  0  0  0  0  0  0  0  0  0  0  0
   -6.7962   -4.5046    4.5687 H   0  0  0  0  0  0  0  0  0  0  0  0
   -5.5750   -2.4419    3.7556 H   0  0  0  0  0  0  0  0  0  0  0  0
   -4.7138   -3.4388    2.5826 H   0  0  0  0  0  0  0  0  0  0  0  0
   -6.4690   -3.2359    2.4481 H   0  0  0  0  0  0  0  0  0  0  0  0
   -2.5624   -4.7476    6.0891 H   0  0  0  0  0  0  0  0  0  0  0  0
   -7.4018   -1.1837    6.6041 H   0  0  0  0  0  0  0  0  0  0  0  0
   -7.6329   -0.2686    8.1054 H   0  0  0  0  0  0  0  0  0  0  0  0
   -7.7587   -3.3269    7.9246 H   0  0  0  0  0  0  0  0  0  0  0  0
   -9.1564   -2.2437    8.0158 H   0  0  0  0  0  0  0  0  0  0  0  0
   -8.0234   -2.3558    9.3706 H   0  0  0  0  0  0  0  0  0  0  0  0
    1.7706   -3.6788    5.5372 H   0  0  0  0  0  0  0  0  0  0  0  0
    0.5930   -4.6648    1.7588 H   0  0  0  0  0  0  0  0  0  0  0  0
    4.4754   -3.9008    0.1128 H   0  0  0  0  0  0  0  0  0  0  0  0
    6.4002   -0.6899    2.2036 H   0  0  0  0  0  0  0  0  0  0  0  0
    4.7650   -0.5072    2.8712 H   0  0  0  0  0  0  0  0  0  0  0  0
    6.8774   -2.5426    3.7726 H   0  0  0  0  0  0  0  0  0  0  0  0
    5.2517   -2.4346    4.4445 H   0  0  0  0  0  0  0  0  0  0  0  0
    6.3905   -1.0938    4.6644 H   0  0  0  0  0  0  0  0  0  0  0  0
    3.1575   -1.7759    3.5694 H   0  0  0  0  0  0  0  0  0  0  0  0
    2.4488   -6.2824   -1.8305 H   0  0  0  0  0  0  0  0  0  0  0  0
    3.5360   -4.9053   -1.5573 H   0  0  0  0  0  0  0  0  0  0  0  0
    4.7614   -7.0666   -1.3360 H   0  0  0  0  0  0  0  0  0  0  0  0
    4.7133   -6.2531    0.2352 H   0  0  0  0  0  0  0  0  0  0  0  0
    3.6220   -7.5992   -0.0910 H   0  0  0  0  0  0  0  0  0  0  0  0
   -4.6964   -0.0096    2.1083 H   0  0  0  0  0  0  0  0  0  0  0  0
   -3.7552    1.3992    1.6077 H   0  0  0  0  0  0  0  0  0  0  0  0
   -5.5053    1.8961   -0.1320 H   0  0  0  0  0  0  0  0  0  0  0  0
   -6.1092    1.9813    1.5248 H   0  0  0  0  0  0  0  0  0  0  0  0
   -6.4918    0.5819    0.5253 H   0  0  0  0  0  0  0  0  0  0  0  0
   -5.3176   -1.6450    0.4645 H   0  0  0  0  0  0  0  0  0  0  0  0
   -3.9436   -2.2664   -0.4437 H   0  0  0  0  0  0  0  0  0  0  0  0
   -4.6052   -1.0311   -2.4461 H   0  0  0  0  0  0  0  0  0  0  0  0
   -5.9742   -1.9686   -1.8535 H   0  0  0  0  0  0  0  0  0  0  0  0
   -5.9076   -0.2241   -1.5798 H   0  0  0  0  0  0  0  0  0  0  0  0
   -2.9743   -1.2655    2.8579 H   0  0  0  0  0  0  0  0  0  0  0  0
   -2.9708    1.6376   -3.4307 H   0  0  0  0  0  0  0  0  0  0  0  0
    0.9541   -0.5053   -5.2398 H   0  0  0  0  0  0  0  0  0  0  0  0
    3.1746    0.5796   -6.4282 H   0  0  0  0  0  0  0  0  0  0  0  0
    4.2282   -1.0510  -10.2248 H   0  0  0  0  0  0  0  0  0  0  0  0
    3.2541   -2.0395  -11.8733 H   0  0  0  0  0  0  0  0  0  0  0  0
    1.8890   -1.7690  -12.9760 H   0  0  0  0  0  0  0  0  0  0  0  0
    3.8634    0.4059  -12.0990 H   0  0  0  0  0  0  0  0  0  0  0  0
    2.5084    0.6204  -13.2063 H   0  0  0  0  0  0  0  0  0  0  0  0
    3.8672   -0.4166  -13.6670 H   0  0  0  0  0  0  0  0  0  0  0  0
    0.1632    0.0256   -9.4023 H   0  0  0  0  0  0  0  0  0  0  0  0
    6.7529   -0.1229   -6.8708 H   0  0  0  0  0  0  0  0  0  0  0  0
    5.3170    0.7932   -6.3704 H   0  0  0  0  0  0  0  0  0  0  0  0
    5.7112   -2.2388   -6.1168 H   0  0  0  0  0  0  0  0  0  0  0  0
    5.7695   -1.0739   -4.7852 H   0  0  0  0  0  0  0  0  0  0  0  0
    4.2475   -1.3830   -5.6326 H   0  0  0  0  0  0  0  0  0  0  0  0
   -2.1663    3.8865   -7.8559 H   0  0  0  0  0  0  0  0  0  0  0  0
   -1.4971    5.4077  -12.1435 H   0  0  0  0  0  0  0  0  0  0  0  0
   -4.2015    8.5833  -11.1702 H   0  0  0  0  0  0  0  0  0  0  0  0
   -4.5814    8.9915   -6.9077 H   0  0  0  0  0  0  0  0  0  0  0  0
   -3.1717    7.9133   -6.9443 H   0  0  0  0  0  0  0  0  0  0  0  0
   -6.1038    7.0829   -7.2983 H   0  0  0  0  0  0  0  0  0  0  0  0
   -4.7407    5.9691   -7.3940 H   0  0  0  0  0  0  0  0  0  0  0  0
   -5.1073    6.7837   -5.8665 H   0  0  0  0  0  0  0  0  0  0  0  0
   -2.4920    6.2157   -8.0691 H   0  0  0  0  0  0  0  0  0  0  0  0
   -3.3914    8.3266  -14.7519 H   0  0  0  0  0  0  0  0  0  0  0  0
   -3.6923    9.1286  -13.1965 H   0  0  0  0  0  0  0  0  0  0  0  0
   -5.5807    7.4981  -12.7731 H   0  0  0  0  0  0  0  0  0  0  0  0
   -5.8329    8.4206  -14.2626 H   0  0  0  0  0  0  0  0  0  0  0  0
   -5.2565    6.7486  -14.3361 H   0  0  0  0  0  0  0  0  0  0  0  0
    0.5999    4.7205  -11.0631 H   0  0  0  0  0  0  0  0  0  0  0  0
  1  2  2  0  0  0  0
  2  3  1  0  0  0  0
  3  4  1  0  0  0  0
  4  5  2  0  0  0  0
  5  6  1  0  0  0  0
  6  7  2  0  0  0  0
  7  8  1  0  0  0  0
  8  9  1  0  0  0  0
  9 10  1  0  0  0  0
 10 11  1  0  0  0  0
  8 12  2  0  0  0  0
  6 13  1  0  0  0  0
 13 14  1  0  0  0  0
 14 15  1  0  0  0  0
  3 16  2  0  0  0  0
 16 17  1  0  0  0  0
 16 18  1  0  0  0  0
 18 19  2  0  0  0  0
 19 20  1  0  0  0  0
 20 21  1  0  0  0  0
 21 22  2  0  0  0  0
 22 23  1  0  0  0  0
 23 24  2  0  0  0  0
 24 25  1  0  0  0  0
 25 26  1  0  0  0  0
 26 27  1  0  0  0  0
 27 28  1  0  0  0  0
 25 29  2  0  0  0  0
 23 30  1  0  0  0  0
 30 31  1  0  0  0  0
 31 32  1  0  0  0  0
 20 33  2  0  0  0  0
 33 34  1  0  0  0  0
 33 35  1  0  0  0  0
 35 36  2  0  0  0  0
 36 37  1  0  0  0  0
 37 38  1  0  0  0  0
 38 39  2  0  0  0  0
 39 40  1  0  0  0  0
 40 41  2  0  0  0  0
 41 42  1  0  0  0  0
 42 43  1  0  0  0  0
 43 44  1  0  0  0  0
 44 45  1  0  0  0  0
 42 46  2  0  0  0  0
 40 47  1  0  0  0  0
 47 48  1  0  0  0  0
 48 49  1  0  0  0  0
 37 50  2  0  0  0  0
 50 51  1  0  0  0  0
 50 52  1  0  0  0  0
 52 53  1  0  0  0  0
 53 54  1  0  0  0  0
 54 55  1  0  0  0  0
 55 56  2  0  0  0  0
 56 57  1  0  0  0  0
 57 58  1  0  0  0  0
 58 59  1  0  0  0  0
 59 60  1  0  0  0  0
 58 61  1  0  0  0  0
 61 62  1  0  0  0  0
 58 63  1  0  0  0  0
 63 64  1  0  0  0  0
 56 65  1  0  0  0  0
 65 66  2  0  0  0  0
 66 67  1  0  0  0  0
 66 68  1  0  0  0  0
 68 69  2  0  0  0  0
 69 70  1  0  0  0  0
 70 71  1  0  0  0  0
 71 72  2  0  0  0  0
 72 73  1  0  0  0  0
 73 74  2  0  0  0  0
 74 75  1  0  0  0  0
 75 76  1  0  0  0  0
 76 77  1  0  0  0  0
 77 78  1  0  0  0  0
 75 79  2  0  0  0  0
 73 80  1  0  0  0  0
 80 81  1  0  0  0  0
 81 82  1  0  0  0  0
 70 83  2  0  0  0  0
 83 84  1  0  0  0  0
 83 85  1  0  0  0  0
 85 86  2  0  0  0  0
 86 87  1  0  0  0  0
 87 88  1  0  0  0  0
 88 89  2  0  0  0  0
 89 90  1  0  0  0  0
 90 91  2  0  0  0  0
 91 92  1  0  0  0  0
 92 93  1  0  0  0  0
 93 94  1  0  0  0  0
 94 95  1  0  0  0  0
 92 96  2  0  0  0  0
 90 97  1  0  0  0  0
 97 98  1  0  0  0  0
 98 99  1  0  0  0  0
 87100  2  0  0  0  0
100101  1  0  0  0  0
 17  1  1  0  0  0  0
 34 18  1  0  0  0  0
 51 35  1  0  0  0  0
 64 52  2  0  0  0  0
 84 68  1  0  0  0  0
101 85  1  0  0  0  0
 12  4  1  0  0  0  0
 29 21  1  0  0  0  0
 46 38  1  0  0  0  0
 63 54  2  0  0  0  0
 79 71  1  0  0  0  0
 96 88  1  0  0  0  0
 67 55  1  0  0  0  0
  1102  1  0  0  0  0
  2103  1  0  0  0  0
  5104  1  0  0  0  0
  7105  1  0  0  0  0
 10106  1  0  0  0  0
 10107  1  0  0  0  0
 11108  1  0  0  0  0
 11109  1  0  0  0  0
 11110  1  0  0  0  0
 12111  1  0  0  0  0
 14112  1  0  0  0  0
 14113  1  0  0  0  0
 15114  1  0  0  0  0
 15115  1  0  0  0  0
 15116  1  0  0  0  0
 19117  1  0  0  0  0
 22118  1  0  0  0  0
 24119  1  0  0  0  0
 27120  1  0  0  0  0
 27121  1  0  0  0  0
 28122  1  0  0  0  0
 28123  1  0  0  0  0
 28124  1  0  0  0  0
 29125  1  0  0  0  0
 31126  1  0  0  0  0
 31127  1  0  0  0  0
 32128  1  0  0  0  0
 32129  1  0  0  0  0
 32130  1  0  0  0  0
 36131  1  0  0  0  0
 39132  1  0  0  0  0
 41133  1  0  0  0  0
 44134  1  0  0  0  0
 44135  1  0  0  0  0
 45136  1  0  0  0  0
 45137  1  0  0  0  0
 45138  1  0  0  0  0
 46139  1  0  0  0  0
 48140  1  0  0  0  0
 48141  1  0  0  0  0
 49142  1  0  0  0  0
 49143  1  0  0  0  0
 49144  1  0  0  0  0
 59145  1  0  0  0  0
 59146  1  0  0  0  0
 60147  1  0  0  0  0
 60148  1  0  0  0  0
 60149  1  0  0  0  0
 61150  1  0  0  0  0
 61151  1  0  0  0  0
 62152  1  0  0  0  0
 62153  1  0  0  0  0
 62154  1  0  0  0  0
 64155  1  0  0  0  0
 65156  1  0  0  0  0
 69157  1  0  0  0  0
 72158  1  0  0  0  0
 74159  1  0  0  0  0
 77160  1  0  0  0  0
 77161  1  0  0  0  0
 78162  1  0  0  0  0
 78163  1  0  0  0  0
 78164  1  0  0  0  0
 79165  1  0  0  0  0
 81166  1  0  0  0  0
 81167  1  0  0  0  0
 82168  1  0  0  0  0
 82169  1  0  0  0  0
 82170  1  0  0  0  0
 86171  1  0  0  0  0
 89172  1  0  0  0  0
 91173  1  0  0  0  0
 94174  1  0  0  0  0
 94175  1  0  0  0  0
 95176  1  0  0  0  0
 95177  1  0  0  0  0
 95178  1  0  0  0  0
 96179  1  0  0  0  0
 98180  1  0  0  0  0
 98181  1  0  0  0  0
 99182  1  0  0  0  0
 99183  1  0  0  0  0
 99184  1  0  0  0  0
100185  1  0  0  0  0
M  END
