
  xtb     03012206443D
 energy: -290.027430157694 gnorm: 0.000874712869 xtb: 6.4.1 (unknown)
165182  0     0  0            999 V2000
    2.7169    1.9017    9.8851 C   0  0  0  0  0  0  0  0  0  0  0  0
    2.4702    1.4516   11.5142 S   0  0  0  0  0  0  0  0  0  0  0  0
    1.7238    1.4573    9.0614 C   0  0  0  0  0  0  0  0  0  0  0  0
    1.7426    1.6613    7.6008 C   0  0  0  0  0  0  0  0  0  0  0  0
    2.6111    2.2980    7.0237 O   0  0  0  0  0  0  0  0  0  0  0  0
    0.6300    1.0035    6.9419 C   0  0  0  0  0  0  0  0  0  0  0  0
    0.3468    0.8710    5.5995 C   0  0  0  0  0  0  0  0  0  0  0  0
   -0.7922    0.1547    5.4651 N   0  0  0  0  0  0  0  0  0  0  0  0
   -1.4390   -0.1699    4.2189 C   0  0  0  0  0  0  0  0  0  0  0  0
   -2.5660    0.8124    3.9082 C   0  0  0  0  0  0  0  0  0  0  0  0
   -1.2749   -0.1564    6.6931 C   0  0  0  0  0  0  0  0  0  0  0  0
   -0.4200    0.3449    7.6474 C   0  0  0  0  0  0  0  0  0  0  0  0
   -0.5169    0.2657    9.1000 C   0  0  0  0  0  0  0  0  0  0  0  0
   -1.5137   -0.1324    9.6851 O   0  0  0  0  0  0  0  0  0  0  0  0
    0.7058    0.7374    9.7701 C   0  0  0  0  0  0  0  0  0  0  0  0
    0.9922    0.6064   11.1162 C   0  0  0  0  0  0  0  0  0  0  0  0
    0.3150   -0.0639   12.1977 C   0  0  0  0  0  0  0  0  0  0  0  0
   -0.3274   -1.2477   12.1751 C   0  0  0  0  0  0  0  0  0  0  0  0
   -0.4261   -2.1323   11.0534 C   0  0  0  0  0  0  0  0  0  0  0  0
    0.8495   -2.2665    9.8797 S   0  0  0  0  0  0  0  0  0  0  0  0
   -0.1844   -3.1784    8.8455 C   0  0  0  0  0  0  0  0  0  0  0  0
    0.0349   -3.4408    7.4819 C   0  0  0  0  0  0  0  0  0  0  0  0
   -0.9329   -4.1609    6.7851 C   0  0  0  0  0  0  0  0  0  0  0  0
   -1.9369   -4.8049    7.4205 O   0  0  0  0  0  0  0  0  0  0  0  0
   -2.4721   -4.1858    8.6208 C   0  0  0  0  0  0  0  0  0  0  0  0
   -3.0356   -5.3415    9.4652 C   0  0  0  0  0  0  0  0  0  0  0  0
   -4.1005   -6.1688    8.7555 C   0  0  0  0  0  0  0  0  0  0  0  0
   -3.5480   -3.1952    8.1196 C   0  0  0  0  0  0  0  0  0  0  0  0
   -4.2223   -2.3344    9.1771 C   0  0  0  0  0  0  0  0  0  0  0  0
   -1.4114   -3.4585    9.4179 C   0  0  0  0  0  0  0  0  0  0  0  0
   -1.5232   -2.8870   10.6922 C   0  0  0  0  0  0  0  0  0  0  0  0
   -0.7115   -4.1185    5.4122 C   0  0  0  0  0  0  0  0  0  0  0  0
    0.3888   -3.3376    5.0590 C   0  0  0  0  0  0  0  0  0  0  0  0
    1.2189   -2.7202    6.4680 S   0  0  0  0  0  0  0  0  0  0  0  0
    0.6897   -2.9279    3.7397 C   0  0  0  0  0  0  0  0  0  0  0  0
   -0.2208   -3.6201    2.4190 S   0  0  0  0  0  0  0  0  0  0  0  0
    1.4953   -1.8818    3.2843 C   0  0  0  0  0  0  0  0  0  0  0  0
    2.4370   -1.1547    4.1200 C   0  0  0  0  0  0  0  0  0  0  0  0
    2.7763   -1.5200    5.2432 O   0  0  0  0  0  0  0  0  0  0  0  0
    2.9419    0.0510    3.5039 C   0  0  0  0  0  0  0  0  0  0  0  0
    3.6862    1.0689    4.0583 C   0  0  0  0  0  0  0  0  0  0  0  0
    3.8774    2.0181    3.1134 N   0  0  0  0  0  0  0  0  0  0  0  0
    4.5223    3.2819    3.3677 C   0  0  0  0  0  0  0  0  0  0  0  0
    3.6202    4.1859    4.2056 C   0  0  0  0  0  0  0  0  0  0  0  0
    3.2818    1.6401    1.9578 C   0  0  0  0  0  0  0  0  0  0  0  0
    2.6791    0.4132    2.1525 C   0  0  0  0  0  0  0  0  0  0  0  0
    1.8968   -0.4067    1.2428 C   0  0  0  0  0  0  0  0  0  0  0  0
    1.6988   -0.1016    0.0739 O   0  0  0  0  0  0  0  0  0  0  0  0
    1.3097   -1.5889    1.9006 C   0  0  0  0  0  0  0  0  0  0  0  0
    0.4370   -2.4729    1.2766 C   0  0  0  0  0  0  0  0  0  0  0  0
    0.0778   -2.5069   -0.0895 C   0  0  0  0  0  0  0  0  0  0  0  0
   -0.7859   -3.3986   -0.6353 C   0  0  0  0  0  0  0  0  0  0  0  0
   -1.1330   -3.4009   -2.0072 C   0  0  0  0  0  0  0  0  0  0  0  0
   -0.4014   -2.2687   -3.1087 S   0  0  0  0  0  0  0  0  0  0  0  0
   -2.0537   -4.2161   -2.6602 C   0  0  0  0  0  0  0  0  0  0  0  0
   -2.8181   -5.2835   -1.9915 C   0  0  0  0  0  0  0  0  0  0  0  0
   -2.7499   -5.5360   -0.7981 O   0  0  0  0  0  0  0  0  0  0  0  0
   -3.6702   -6.0160   -2.9141 C   0  0  0  0  0  0  0  0  0  0  0  0
   -4.4923   -7.0959   -2.6761 C   0  0  0  0  0  0  0  0  0  0  0  0
   -5.1001   -7.4412   -3.8359 N   0  0  0  0  0  0  0  0  0  0  0  0
   -5.9730   -8.5737   -4.0125 C   0  0  0  0  0  0  0  0  0  0  0  0
   -5.1796   -9.8222   -4.3942 C   0  0  0  0  0  0  0  0  0  0  0  0
   -4.6855   -6.6151   -4.8265 C   0  0  0  0  0  0  0  0  0  0  0  0
   -3.7949   -5.7069   -4.2985 C   0  0  0  0  0  0  0  0  0  0  0  0
   -3.0799   -4.6260   -4.9597 C   0  0  0  0  0  0  0  0  0  0  0  0
   -3.2102   -4.3652   -6.1453 O   0  0  0  0  0  0  0  0  0  0  0  0
   -2.1820   -3.9043   -4.0422 C   0  0  0  0  0  0  0  0  0  0  0  0
   -1.3560   -2.8557   -4.4389 C   0  0  0  0  0  0  0  0  0  0  0  0
   -1.2692   -2.2474   -5.7156 C   0  0  0  0  0  0  0  0  0  0  0  0
   -0.3382   -1.3189   -6.0410 C   0  0  0  0  0  0  0  0  0  0  0  0
   -0.2852   -0.6448   -7.2860 C   0  0  0  0  0  0  0  0  0  0  0  0
   -1.5814   -0.7735   -8.4366 S   0  0  0  0  0  0  0  0  0  0  0  0
    0.7066    0.2191   -7.7414 C   0  0  0  0  0  0  0  0  0  0  0  0
    1.8537    0.6669   -6.9366 C   0  0  0  0  0  0  0  0  0  0  0  0
    2.0849    0.2885   -5.7958 O   0  0  0  0  0  0  0  0  0  0  0  0
    2.6670    1.6563   -7.6212 C   0  0  0  0  0  0  0  0  0  0  0  0
    3.7645    2.3579   -7.1682 C   0  0  0  0  0  0  0  0  0  0  0  0
    4.2207    3.1461   -8.1674 N   0  0  0  0  0  0  0  0  0  0  0  0
    5.3449    4.0462   -8.0789 C   0  0  0  0  0  0  0  0  0  0  0  0
    4.9287    5.4910   -8.3380 C   0  0  0  0  0  0  0  0  0  0  0  0
    3.4471    2.9748   -9.2656 C   0  0  0  0  0  0  0  0  0  0  0  0
    2.4618    2.0589   -8.9709 C   0  0  0  0  0  0  0  0  0  0  0  0
    1.3693    1.5746   -9.7972 C   0  0  0  0  0  0  0  0  0  0  0  0
    1.2568    1.8269  -10.9865 O   0  0  0  0  0  0  0  0  0  0  0  0
    0.4212    0.7409   -9.0364 C   0  0  0  0  0  0  0  0  0  0  0  0
   -0.8204    0.3517   -9.5051 C   0  0  0  0  0  0  0  0  0  0  0  0
   -1.6151    0.8823  -10.5839 C   0  0  0  0  0  0  0  0  0  0  0  0
   -1.7375    2.1874  -10.8687 C   0  0  0  0  0  0  0  0  0  0  0  0
   -1.0025    3.2554  -10.2345 C   0  0  0  0  0  0  0  0  0  0  0  0
   -0.2414    4.4005  -11.2872 S   0  0  0  0  0  0  0  0  0  0  0  0
   -0.6429    3.4644   -8.9180 C   0  0  0  0  0  0  0  0  0  0  0  0
   -1.2239    2.7426   -7.7709 C   0  0  0  0  0  0  0  0  0  0  0  0
   -2.2083    2.0230   -7.8469 O   0  0  0  0  0  0  0  0  0  0  0  0
   -0.5009    2.9887   -6.5345 C   0  0  0  0  0  0  0  0  0  0  0  0
   -0.6388    2.3977   -5.2970 C   0  0  0  0  0  0  0  0  0  0  0  0
    0.2828    2.9272   -4.4579 N   0  0  0  0  0  0  0  0  0  0  0  0
    0.4747    2.5472   -3.0774 C   0  0  0  0  0  0  0  0  0  0  0  0
    0.7517    1.0558   -2.9399 C   0  0  0  0  0  0  0  0  0  0  0  0
    1.0129    3.8510   -5.1187 C   0  0  0  0  0  0  0  0  0  0  0  0
    0.5613    3.9290   -6.4200 C   0  0  0  0  0  0  0  0  0  0  0  0
    1.0098    4.7859   -7.4989 C   0  0  0  0  0  0  0  0  0  0  0  0
    1.8943    5.6221   -7.3584 O   0  0  0  0  0  0  0  0  0  0  0  0
    0.3287    4.5051   -8.7733 C   0  0  0  0  0  0  0  0  0  0  0  0
    0.6358    5.1203   -9.9747 C   0  0  0  0  0  0  0  0  0  0  0  0
    1.5512    6.2038  -10.1973 C   0  0  0  0  0  0  0  0  0  0  0  0
    1.8442    6.7048  -11.3953 C   0  0  0  0  0  0  0  0  0  0  0  0
    3.5850    2.4632    9.6005 H   0  0  0  0  0  0  0  0  0  0  0  0
    0.8911    1.2324    4.7501 H   0  0  0  0  0  0  0  0  0  0  0  0
   -1.8371   -1.1867    4.2853 H   0  0  0  0  0  0  0  0  0  0  0  0
   -0.6900   -0.1410    3.4236 H   0  0  0  0  0  0  0  0  0  0  0  0
   -3.3182    0.7893    4.6930 H   0  0  0  0  0  0  0  0  0  0  0  0
   -2.1754    1.8245    3.8335 H   0  0  0  0  0  0  0  0  0  0  0  0
   -3.0357    0.5482    2.9651 H   0  0  0  0  0  0  0  0  0  0  0  0
   -2.1817   -0.7130    6.8193 H   0  0  0  0  0  0  0  0  0  0  0  0
    0.3667    0.4630   13.1427 H   0  0  0  0  0  0  0  0  0  0  0  0
   -0.8666   -1.5537   13.0625 H   0  0  0  0  0  0  0  0  0  0  0  0
   -3.4370   -4.9318   10.3919 H   0  0  0  0  0  0  0  0  0  0  0  0
   -2.1934   -5.9885    9.7207 H   0  0  0  0  0  0  0  0  0  0  0  0
   -5.0240   -5.6079    8.6390 H   0  0  0  0  0  0  0  0  0  0  0  0
   -4.3179   -7.0609    9.3379 H   0  0  0  0  0  0  0  0  0  0  0  0
   -3.7441   -6.4716    7.7751 H   0  0  0  0  0  0  0  0  0  0  0  0
   -4.2920   -3.7757    7.5717 H   0  0  0  0  0  0  0  0  0  0  0  0
   -3.0518   -2.5434    7.3954 H   0  0  0  0  0  0  0  0  0  0  0  0
   -3.5152   -1.6330    9.6123 H   0  0  0  0  0  0  0  0  0  0  0  0
   -4.6557   -2.9458    9.9642 H   0  0  0  0  0  0  0  0  0  0  0  0
   -5.0247   -1.7624    8.7153 H   0  0  0  0  0  0  0  0  0  0  0  0
   -2.3981   -2.9433   11.3130 H   0  0  0  0  0  0  0  0  0  0  0  0
   -1.3451   -4.5949    4.6855 H   0  0  0  0  0  0  0  0  0  0  0  0
    4.0427    1.1774    5.0629 H   0  0  0  0  0  0  0  0  0  0  0  0
    5.4576    3.0958    3.9030 H   0  0  0  0  0  0  0  0  0  0  0  0
    4.7543    3.7515    2.4085 H   0  0  0  0  0  0  0  0  0  0  0  0
    2.7039    4.4125    3.6649 H   0  0  0  0  0  0  0  0  0  0  0  0
    4.1328    5.1175    4.4271 H   0  0  0  0  0  0  0  0  0  0  0  0
    3.3598    3.6972    5.1421 H   0  0  0  0  0  0  0  0  0  0  0  0
    3.3156    2.2462    1.0742 H   0  0  0  0  0  0  0  0  0  0  0  0
    0.5454   -1.7530   -0.7107 H   0  0  0  0  0  0  0  0  0  0  0  0
   -1.2661   -4.1515   -0.0230 H   0  0  0  0  0  0  0  0  0  0  0  0
   -4.6740   -7.6206   -1.7592 H   0  0  0  0  0  0  0  0  0  0  0  0
   -6.6965   -8.3367   -4.7970 H   0  0  0  0  0  0  0  0  0  0  0  0
   -6.5135   -8.7452   -3.0781 H   0  0  0  0  0  0  0  0  0  0  0  0
   -4.4600  -10.0655   -3.6162 H   0  0  0  0  0  0  0  0  0  0  0  0
   -5.8520  -10.6654   -4.5248 H   0  0  0  0  0  0  0  0  0  0  0  0
   -4.6402   -9.6576   -5.3239 H   0  0  0  0  0  0  0  0  0  0  0  0
   -5.0414   -6.7085   -5.8332 H   0  0  0  0  0  0  0  0  0  0  0  0
   -2.0022   -2.5707   -6.4438 H   0  0  0  0  0  0  0  0  0  0  0  0
    0.4367   -1.0486   -5.3338 H   0  0  0  0  0  0  0  0  0  0  0  0
    4.2319    2.3321   -6.2038 H   0  0  0  0  0  0  0  0  0  0  0  0
    5.7664    3.9510   -7.0757 H   0  0  0  0  0  0  0  0  0  0  0  0
    6.1065    3.7377   -8.8042 H   0  0  0  0  0  0  0  0  0  0  0  0
    4.0728    5.7493   -7.7192 H   0  0  0  0  0  0  0  0  0  0  0  0
    5.7524    6.1599   -8.1048 H   0  0  0  0  0  0  0  0  0  0  0  0
    4.6515    5.6322   -9.3793 H   0  0  0  0  0  0  0  0  0  0  0  0
    3.6240    3.5065  -10.1789 H   0  0  0  0  0  0  0  0  0  0  0  0
   -2.2287    0.1695  -11.1173 H   0  0  0  0  0  0  0  0  0  0  0  0
   -2.3555    2.4819  -11.7064 H   0  0  0  0  0  0  0  0  0  0  0  0
   -1.3269    1.6383   -4.9843 H   0  0  0  0  0  0  0  0  0  0  0  0
    1.3173    3.1257   -2.6927 H   0  0  0  0  0  0  0  0  0  0  0  0
   -0.4198    2.8188   -2.5051 H   0  0  0  0  0  0  0  0  0  0  0  0
    1.0696    0.8229   -1.9282 H   0  0  0  0  0  0  0  0  0  0  0  0
   -0.1436    0.4822   -3.1607 H   0  0  0  0  0  0  0  0  0  0  0  0
    1.5327    0.7550   -3.6334 H   0  0  0  0  0  0  0  0  0  0  0  0
    1.8016    4.4007   -4.6444 H   0  0  0  0  0  0  0  0  0  0  0  0
    2.0084    6.5970   -9.3000 H   0  0  0  0  0  0  0  0  0  0  0  0
    1.3981    6.3136  -12.2956 H   0  0  0  0  0  0  0  0  0  0  0  0
    2.5373    7.5195  -11.5100 H   0  0  0  0  0  0  0  0  0  0  0  0
  1  2  1  0  0  0  0
  1  3  2  0  0  0  0
  3  4  1  0  0  0  0
  4  5  2  0  0  0  0
  4  6  1  0  0  0  0
  6  7  2  0  0  0  0
  7  8  1  0  0  0  0
  8  9  1  0  0  0  0
  9 10  1  0  0  0  0
  8 11  1  0  0  0  0
 11 12  2  0  0  0  0
 12 13  1  0  0  0  0
 13 14  2  0  0  0  0
 13 15  1  0  0  0  0
 15 16  2  0  0  0  0
 16 17  1  0  0  0  0
 17 18  2  0  0  0  0
 18 19  1  0  0  0  0
 19 20  1  0  0  0  0
 20 21  1  0  0  0  0
 21 22  1  0  0  0  0
 22 23  2  0  0  0  0
 23 24  1  0  0  0  0
 24 25  1  0  0  0  0
 25 26  1  0  0  0  0
 26 27  1  0  0  0  0
 25 28  1  0  0  0  0
 28 29  1  0  0  0  0
 25 30  1  0  0  0  0
 30 31  1  0  0  0  0
 23 32  1  0  0  0  0
 32 33  2  0  0  0  0
 33 34  1  0  0  0  0
 33 35  1  0  0  0  0
 35 36  1  0  0  0  0
 35 37  2  0  0  0  0
 37 38  1  0  0  0  0
 38 39  2  0  0  0  0
 38 40  1  0  0  0  0
 40 41  2  0  0  0  0
 41 42  1  0  0  0  0
 42 43  1  0  0  0  0
 43 44  1  0  0  0  0
 42 45  1  0  0  0  0
 45 46  2  0  0  0  0
 46 47  1  0  0  0  0
 47 48  2  0  0  0  0
 47 49  1  0  0  0  0
 49 50  2  0  0  0  0
 50 51  1  0  0  0  0
 51 52  2  0  0  0  0
 52 53  1  0  0  0  0
 53 54  1  0  0  0  0
 53 55  2  0  0  0  0
 55 56  1  0  0  0  0
 56 57  2  0  0  0  0
 56 58  1  0  0  0  0
 58 59  2  0  0  0  0
 59 60  1  0  0  0  0
 60 61  1  0  0  0  0
 61 62  1  0  0  0  0
 60 63  1  0  0  0  0
 63 64  2  0  0  0  0
 64 65  1  0  0  0  0
 65 66  2  0  0  0  0
 65 67  1  0  0  0  0
 67 68  2  0  0  0  0
 68 69  1  0  0  0  0
 69 70  2  0  0  0  0
 70 71  1  0  0  0  0
 71 72  1  0  0  0  0
 71 73  2  0  0  0  0
 73 74  1  0  0  0  0
 74 75  2  0  0  0  0
 74 76  1  0  0  0  0
 76 77  2  0  0  0  0
 77 78  1  0  0  0  0
 78 79  1  0  0  0  0
 79 80  1  0  0  0  0
 78 81  1  0  0  0  0
 81 82  2  0  0  0  0
 82 83  1  0  0  0  0
 83 84  2  0  0  0  0
 83 85  1  0  0  0  0
 85 86  2  0  0  0  0
 86 87  1  0  0  0  0
 87 88  2  0  0  0  0
 88 89  1  0  0  0  0
 89 90  1  0  0  0  0
 89 91  2  0  0  0  0
 91 92  1  0  0  0  0
 92 93  2  0  0  0  0
 92 94  1  0  0  0  0
 94 95  2  0  0  0  0
 95 96  1  0  0  0  0
 96 97  1  0  0  0  0
 97 98  1  0  0  0  0
 96 99  1  0  0  0  0
 99100  2  0  0  0  0
100101  1  0  0  0  0
101102  2  0  0  0  0
101103  1  0  0  0  0
103104  2  0  0  0  0
104105  1  0  0  0  0
105106  2  0  0  0  0
 16  2  1  0  0  0  0
 31 19  2  0  0  0  0
 50 36  1  0  0  0  0
 68 54  1  0  0  0  0
 86 72  1  0  0  0  0
104 90  1  0  0  0  0
 15  3  1  0  0  0  0
 30 21  2  0  0  0  0
 49 37  1  0  0  0  0
 67 55  1  0  0  0  0
 85 73  1  0  0  0  0
103 91  1  0  0  0  0
 12  6  1  0  0  0  0
 34 22  1  0  0  0  0
 46 40  1  0  0  0  0
 64 58  1  0  0  0  0
 82 76  1  0  0  0  0
100 94  1  0  0  0  0
  1107  1  0  0  0  0
  7108  1  0  0  0  0
  9109  1  0  0  0  0
  9110  1  0  0  0  0
 10111  1  0  0  0  0
 10112  1  0  0  0  0
 10113  1  0  0  0  0
 11114  1  0  0  0  0
 17115  1  0  0  0  0
 18116  1  0  0  0  0
 26117  1  0  0  0  0
 26118  1  0  0  0  0
 27119  1  0  0  0  0
 27120  1  0  0  0  0
 27121  1  0  0  0  0
 28122  1  0  0  0  0
 28123  1  0  0  0  0
 29124  1  0  0  0  0
 29125  1  0  0  0  0
 29126  1  0  0  0  0
 31127  1  0  0  0  0
 32128  1  0  0  0  0
 41129  1  0  0  0  0
 43130  1  0  0  0  0
 43131  1  0  0  0  0
 44132  1  0  0  0  0
 44133  1  0  0  0  0
 44134  1  0  0  0  0
 45135  1  0  0  0  0
 51136  1  0  0  0  0
 52137  1  0  0  0  0
 59138  1  0  0  0  0
 61139  1  0  0  0  0
 61140  1  0  0  0  0
 62141  1  0  0  0  0
 62142  1  0  0  0  0
 62143  1  0  0  0  0
 63144  1  0  0  0  0
 69145  1  0  0  0  0
 70146  1  0  0  0  0
 77147  1  0  0  0  0
 79148  1  0  0  0  0
 79149  1  0  0  0  0
 80150  1  0  0  0  0
 80151  1  0  0  0  0
 80152  1  0  0  0  0
 81153  1  0  0  0  0
 87154  1  0  0  0  0
 88155  1  0  0  0  0
 95156  1  0  0  0  0
 97157  1  0  0  0  0
 97158  1  0  0  0  0
 98159  1  0  0  0  0
 98160  1  0  0  0  0
 98161  1  0  0  0  0
 99162  1  0  0  0  0
105163  1  0  0  0  0
106164  1  0  0  0  0
106165  1  0  0  0  0
M  END
