
  xtb     02282218063D
 energy: -387.020517415952 gnorm: 0.000288115365 xtb: 6.4.1 (unknown)
240267  0     0  0            999 V2000
    5.8071   -3.4605   12.5161 C   0  0  0  0  0  0  0  0  0  0  0  0
    6.7829   -3.0389   11.6869 C   0  0  0  0  0  0  0  0  0  0  0  0
    6.2834   -2.5457   10.4453 C   0  0  0  0  0  0  0  0  0  0  0  0
    7.0163   -2.0684    9.3435 C   0  0  0  0  0  0  0  0  0  0  0  0
    8.4580   -1.9231    9.3988 C   0  0  0  0  0  0  0  0  0  0  0  0
    9.2143   -1.3992   10.4082 C   0  0  0  0  0  0  0  0  0  0  0  0
   10.5938   -1.3810   10.1193 C   0  0  0  0  0  0  0  0  0  0  0  0
   10.8978   -1.8978    8.8982 C   0  0  0  0  0  0  0  0  0  0  0  0
   12.2292   -2.0089    8.2391 C   0  0  0  0  0  0  0  0  0  0  0  0
   12.3714   -0.9864    7.1097 C   0  0  0  0  0  0  0  0  0  0  0  0
    9.4661   -2.4107    8.0663 S   0  0  0  0  0  0  0  0  0  0  0  0
    6.2821   -1.7195    8.2161 C   0  0  0  0  0  0  0  0  0  0  0  0
    4.8702   -1.7910    8.1585 C   0  0  0  0  0  0  0  0  0  0  0  0
    4.1366   -2.2817    9.2547 C   0  0  0  0  0  0  0  0  0  0  0  0
    2.6981   -2.4286    9.1776 C   0  0  0  0  0  0  0  0  0  0  0  0
    1.9571   -2.8981    8.1279 C   0  0  0  0  0  0  0  0  0  0  0  0
    0.5723   -2.9082    8.3805 C   0  0  0  0  0  0  0  0  0  0  0  0
    0.2473   -2.4378    9.6159 C   0  0  0  0  0  0  0  0  0  0  0  0
   -1.0995   -2.3459   10.2452 C   0  0  0  0  0  0  0  0  0  0  0  0
   -1.4315   -3.6323   11.0048 C   0  0  0  0  0  0  0  0  0  0  0  0
    1.6639   -1.9908   10.5074 S   0  0  0  0  0  0  0  0  0  0  0  0
    4.8737   -2.6337   10.3811 C   0  0  0  0  0  0  0  0  0  0  0  0
    4.2178   -3.2926   11.8566 S   0  0  0  0  0  0  0  0  0  0  0  0
    4.3684   -1.2839    6.9345 C   0  0  0  0  0  0  0  0  0  0  0  0
    5.3388   -0.8748    6.0706 C   0  0  0  0  0  0  0  0  0  0  0  0
    6.9465   -1.0840    6.7329 S   0  0  0  0  0  0  0  0  0  0  0  0
    5.1516   -0.3575    4.7563 C   0  0  0  0  0  0  0  0  0  0  0  0
    6.0918   -0.0765    3.8118 C   0  0  0  0  0  0  0  0  0  0  0  0
    5.5475    0.3732    2.5816 C   0  0  0  0  0  0  0  0  0  0  0  0
    6.2331    0.6768    1.3879 C   0  0  0  0  0  0  0  0  0  0  0  0
    7.6597    0.4593    1.2690 C   0  0  0  0  0  0  0  0  0  0  0  0
    8.3946   -0.5972    1.7305 C   0  0  0  0  0  0  0  0  0  0  0  0
    9.7669   -0.4946    1.4304 C   0  0  0  0  0  0  0  0  0  0  0  0
   10.0890    0.6393    0.7501 C   0  0  0  0  0  0  0  0  0  0  0  0
   11.4194    1.0693    0.2362 C   0  0  0  0  0  0  0  0  0  0  0  0
   11.5027    0.9039   -1.2827 C   0  0  0  0  0  0  0  0  0  0  0  0
    8.6826    1.6055    0.4497 S   0  0  0  0  0  0  0  0  0  0  0  0
    5.4609    1.1666    0.3394 C   0  0  0  0  0  0  0  0  0  0  0  0
    4.0574    1.3153    0.4229 C   0  0  0  0  0  0  0  0  0  0  0  0
    3.3574    0.9011    1.5717 C   0  0  0  0  0  0  0  0  0  0  0  0
    1.9095    0.8245    1.5754 C   0  0  0  0  0  0  0  0  0  0  0  0
    1.1184    0.3343    0.5731 C   0  0  0  0  0  0  0  0  0  0  0  0
   -0.2488    0.2983    0.9073 C   0  0  0  0  0  0  0  0  0  0  0  0
   -0.5147    0.7698    2.1561 C   0  0  0  0  0  0  0  0  0  0  0  0
   -1.8385    0.8624    2.8345 C   0  0  0  0  0  0  0  0  0  0  0  0
   -2.0689    2.2151    3.5037 C   0  0  0  0  0  0  0  0  0  0  0  0
    0.9432    1.2607    2.9583 S   0  0  0  0  0  0  0  0  0  0  0  0
    4.1363    0.4753    2.6400 C   0  0  0  0  0  0  0  0  0  0  0  0
    3.5256   -0.0481    4.1850 S   0  0  0  0  0  0  0  0  0  0  0  0
    3.5179    1.8814   -0.7580 C   0  0  0  0  0  0  0  0  0  0  0  0
    4.4377    2.0855   -1.7386 C   0  0  0  0  0  0  0  0  0  0  0  0
    6.0477    1.6161   -1.2454 S   0  0  0  0  0  0  0  0  0  0  0  0
    4.1146    2.5745   -3.0515 C   0  0  0  0  0  0  0  0  0  0  0  0
    4.4157    2.0500   -4.2679 C   0  0  0  0  0  0  0  0  0  0  0  0
    3.6485    2.6053   -5.3296 C   0  0  0  0  0  0  0  0  0  0  0  0
    3.5621    2.1546   -6.6627 C   0  0  0  0  0  0  0  0  0  0  0  0
    4.3776    1.0672   -7.1697 C   0  0  0  0  0  0  0  0  0  0  0  0
    4.6658   -0.1390   -6.5992 C   0  0  0  0  0  0  0  0  0  0  0  0
    5.4754   -0.9594   -7.4111 C   0  0  0  0  0  0  0  0  0  0  0  0
    5.8140   -0.3842   -8.5964 C   0  0  0  0  0  0  0  0  0  0  0  0
    6.6191   -0.9574   -9.7112 C   0  0  0  0  0  0  0  0  0  0  0  0
    5.7268   -1.3469  -10.8916 C   0  0  0  0  0  0  0  0  0  0  0  0
    5.1186    1.1964   -8.7404 S   0  0  0  0  0  0  0  0  0  0  0  0
    2.5705    2.7357   -7.4439 C   0  0  0  0  0  0  0  0  0  0  0  0
    1.7677    3.8115   -7.0011 C   0  0  0  0  0  0  0  0  0  0  0  0
    1.9496    4.3626   -5.7159 C   0  0  0  0  0  0  0  0  0  0  0  0
    1.2361    5.5468   -5.2940 C   0  0  0  0  0  0  0  0  0  0  0  0
    0.7779    5.9007   -4.0550 C   0  0  0  0  0  0  0  0  0  0  0  0
    0.1778    7.1739   -4.0213 C   0  0  0  0  0  0  0  0  0  0  0  0
    0.1894    7.8140   -5.2224 C   0  0  0  0  0  0  0  0  0  0  0  0
   -0.3782    9.1461   -5.5721 C   0  0  0  0  0  0  0  0  0  0  0  0
   -1.6627    9.0025   -6.3915 C   0  0  0  0  0  0  0  0  0  0  0  0
    0.9376    6.8328   -6.4368 S   0  0  0  0  0  0  0  0  0  0  0  0
    2.8213    3.6649   -4.8837 C   0  0  0  0  0  0  0  0  0  0  0  0
    2.9736    3.8976   -3.1656 S   0  0  0  0  0  0  0  0  0  0  0  0
    0.6645    4.0310   -7.8559 C   0  0  0  0  0  0  0  0  0  0  0  0
    0.5689    3.1352   -8.8829 C   0  0  0  0  0  0  0  0  0  0  0  0
    1.9811    2.0933   -8.9631 S   0  0  0  0  0  0  0  0  0  0  0  0
   -0.6459    2.8062   -9.5503 C   0  0  0  0  0  0  0  0  0  0  0  0
   -2.1098    3.4905   -8.8703 S   0  0  0  0  0  0  0  0  0  0  0  0
   -3.0547    2.2782   -9.6539 C   0  0  0  0  0  0  0  0  0  0  0  0
   -4.2803    1.7821   -9.1477 C   0  0  0  0  0  0  0  0  0  0  0  0
   -4.5606    0.4386   -9.3739 C   0  0  0  0  0  0  0  0  0  0  0  0
   -3.9413   -0.2871  -10.3202 O   0  0  0  0  0  0  0  0  0  0  0  0
   -3.0488    0.3975  -11.2430 C   0  0  0  0  0  0  0  0  0  0  0  0
   -2.1240   -0.7145  -11.7586 C   0  0  0  0  0  0  0  0  0  0  0  0
   -1.3438   -0.3740  -13.0232 C   0  0  0  0  0  0  0  0  0  0  0  0
   -3.9125    1.0436  -12.3485 C   0  0  0  0  0  0  0  0  0  0  0  0
   -4.8269    0.0520  -13.0583 C   0  0  0  0  0  0  0  0  0  0  0  0
   -2.3037    1.4868  -10.5092 C   0  0  0  0  0  0  0  0  0  0  0  0
   -0.9335    1.7810  -10.4241 C   0  0  0  0  0  0  0  0  0  0  0  0
   -5.3872   -0.1212   -8.3828 C   0  0  0  0  0  0  0  0  0  0  0  0
   -5.6995    0.7727   -7.3822 C   0  0  0  0  0  0  0  0  0  0  0  0
   -5.0916    2.3693   -7.7354 S   0  0  0  0  0  0  0  0  0  0  0  0
   -6.1248    0.4920   -6.0472 C   0  0  0  0  0  0  0  0  0  0  0  0
   -6.7424   -0.6041   -5.5194 C   0  0  0  0  0  0  0  0  0  0  0  0
   -6.6597   -0.6770   -4.1022 C   0  0  0  0  0  0  0  0  0  0  0  0
   -7.0850   -1.7197   -3.2519 C   0  0  0  0  0  0  0  0  0  0  0  0
   -7.9405   -2.7893   -3.7191 C   0  0  0  0  0  0  0  0  0  0  0  0
   -7.9339   -4.1104   -3.3679 C   0  0  0  0  0  0  0  0  0  0  0  0
   -8.9583   -4.8574   -3.9815 C   0  0  0  0  0  0  0  0  0  0  0  0
   -9.7590   -4.1171   -4.7956 C   0  0  0  0  0  0  0  0  0  0  0  0
  -10.9585   -4.5502   -5.5657 C   0  0  0  0  0  0  0  0  0  0  0  0
  -12.2467   -4.0428   -4.9142 C   0  0  0  0  0  0  0  0  0  0  0  0
   -9.2490   -2.4616   -4.8249 S   0  0  0  0  0  0  0  0  0  0  0  0
   -6.6347   -1.6663   -1.9337 C   0  0  0  0  0  0  0  0  0  0  0  0
   -5.8121   -0.6288   -1.4310 C   0  0  0  0  0  0  0  0  0  0  0  0
   -5.4778    0.4639   -2.2497 C   0  0  0  0  0  0  0  0  0  0  0  0
   -4.6390    1.5637   -1.8183 C   0  0  0  0  0  0  0  0  0  0  0  0
   -4.7620    2.8854   -2.1412 C   0  0  0  0  0  0  0  0  0  0  0  0
   -3.7013    3.6799   -1.6627 C   0  0  0  0  0  0  0  0  0  0  0  0
   -2.7564    2.9756   -0.9835 C   0  0  0  0  0  0  0  0  0  0  0  0
   -1.4633    3.4613   -0.4278 C   0  0  0  0  0  0  0  0  0  0  0  0
   -0.3127    3.1443   -1.3851 C   0  0  0  0  0  0  0  0  0  0  0  0
   -3.1796    1.2973   -0.9050 S   0  0  0  0  0  0  0  0  0  0  0  0
   -5.9237    0.4058   -3.5649 C   0  0  0  0  0  0  0  0  0  0  0  0
   -5.4827    1.5473   -4.7985 S   0  0  0  0  0  0  0  0  0  0  0  0
   -5.4418   -0.8477   -0.0810 C   0  0  0  0  0  0  0  0  0  0  0  0
   -5.9615   -1.9874    0.4507 C   0  0  0  0  0  0  0  0  0  0  0  0
   -6.9675   -2.8482   -0.6934 S   0  0  0  0  0  0  0  0  0  0  0  0
   -5.7228   -2.4965    1.7688 C   0  0  0  0  0  0  0  0  0  0  0  0
   -4.5854   -2.3490    2.5036 C   0  0  0  0  0  0  0  0  0  0  0  0
   -4.6601   -2.9466    3.7882 C   0  0  0  0  0  0  0  0  0  0  0  0
   -3.6608   -3.0059    4.7763 C   0  0  0  0  0  0  0  0  0  0  0  0
   -2.2948   -2.5790    4.5422 C   0  0  0  0  0  0  0  0  0  0  0  0
   -1.4496   -1.9034    5.3783 C   0  0  0  0  0  0  0  0  0  0  0  0
   -0.1414   -1.7761    4.8685 C   0  0  0  0  0  0  0  0  0  0  0  0
    0.0255   -2.3668    3.6531 C   0  0  0  0  0  0  0  0  0  0  0  0
    1.2735   -2.5088    2.8524 C   0  0  0  0  0  0  0  0  0  0  0  0
    2.2690   -3.4452    3.5386 C   0  0  0  0  0  0  0  0  0  0  0  0
   -1.4551   -3.0673    3.0935 S   0  0  0  0  0  0  0  0  0  0  0  0
   -4.0298   -3.5775    5.9902 C   0  0  0  0  0  0  0  0  0  0  0  0
   -5.3047   -4.1345    6.2359 C   0  0  0  0  0  0  0  0  0  0  0  0
   -6.2752   -4.1499    5.2189 C   0  0  0  0  0  0  0  0  0  0  0  0
   -7.5527   -4.8081    5.4093 C   0  0  0  0  0  0  0  0  0  0  0  0
   -7.7946   -6.0220    5.9877 C   0  0  0  0  0  0  0  0  0  0  0  0
   -9.1602   -6.3692    6.0035 C   0  0  0  0  0  0  0  0  0  0  0  0
   -9.9647   -5.4257    5.4432 C   0  0  0  0  0  0  0  0  0  0  0  0
  -11.4494   -5.4248    5.3195 C   0  0  0  0  0  0  0  0  0  0  0  0
  -12.0888   -4.4490    6.3095 C   0  0  0  0  0  0  0  0  0  0  0  0
   -9.0383   -4.0768    4.8727 S   0  0  0  0  0  0  0  0  0  0  0  0
   -5.9303   -3.5250    4.0251 C   0  0  0  0  0  0  0  0  0  0  0  0
   -6.9584   -3.3891    2.6249 S   0  0  0  0  0  0  0  0  0  0  0  0
   -5.4118   -4.6345    7.5683 C   0  0  0  0  0  0  0  0  0  0  0  0
   -4.2744   -4.4953    8.2771 C   0  0  0  0  0  0  0  0  0  0  0  0
   -2.9964   -3.7451    7.3841 S   0  0  0  0  0  0  0  0  0  0  0  0
    5.9117   -3.8737   13.5004 H   0  0  0  0  0  0  0  0  0  0  0  0
    7.8295   -3.0913   11.9238 H   0  0  0  0  0  0  0  0  0  0  0  0
    8.7908   -0.9994   11.3125 H   0  0  0  0  0  0  0  0  0  0  0  0
   11.3349   -0.9956   10.7975 H   0  0  0  0  0  0  0  0  0  0  0  0
   13.0076   -1.8437    8.9871 H   0  0  0  0  0  0  0  0  0  0  0  0
   12.3551   -3.0143    7.8294 H   0  0  0  0  0  0  0  0  0  0  0  0
   12.2627    0.0236    7.4985 H   0  0  0  0  0  0  0  0  0  0  0  0
   11.6035   -1.1497    6.3569 H   0  0  0  0  0  0  0  0  0  0  0  0
   13.3473   -1.0757    6.6390 H   0  0  0  0  0  0  0  0  0  0  0  0
    2.3952   -3.2694    7.2184 H   0  0  0  0  0  0  0  0  0  0  0  0
   -0.1584   -3.2485    7.6686 H   0  0  0  0  0  0  0  0  0  0  0  0
   -1.8459   -2.1842    9.4647 H   0  0  0  0  0  0  0  0  0  0  0  0
   -1.1276   -1.5009   10.9358 H   0  0  0  0  0  0  0  0  0  0  0  0
   -2.4138   -3.5561   11.4650 H   0  0  0  0  0  0  0  0  0  0  0  0
   -0.6948   -3.8107   11.7848 H   0  0  0  0  0  0  0  0  0  0  0  0
   -1.4254   -4.4800   10.3233 H   0  0  0  0  0  0  0  0  0  0  0  0
    3.3212   -1.1998    6.7075 H   0  0  0  0  0  0  0  0  0  0  0  0
    7.1451   -0.1776    4.0005 H   0  0  0  0  0  0  0  0  0  0  0  0
    7.9592   -1.4434    2.2314 H   0  0  0  0  0  0  0  0  0  0  0  0
   10.4909   -1.2386    1.7129 H   0  0  0  0  0  0  0  0  0  0  0  0
   12.1940    0.4675    0.7163 H   0  0  0  0  0  0  0  0  0  0  0  0
   11.5916    2.1178    0.4916 H   0  0  0  0  0  0  0  0  0  0  0  0
   12.4783    1.2189   -1.6443 H   0  0  0  0  0  0  0  0  0  0  0  0
   10.7387    1.5068   -1.7683 H   0  0  0  0  0  0  0  0  0  0  0  0
   11.3477   -0.1368   -1.5586 H   0  0  0  0  0  0  0  0  0  0  0  0
    1.5132   -0.0317   -0.3581 H   0  0  0  0  0  0  0  0  0  0  0  0
   -1.0112   -0.0695    0.2437 H   0  0  0  0  0  0  0  0  0  0  0  0
   -2.6160    0.6768    2.0892 H   0  0  0  0  0  0  0  0  0  0  0  0
   -1.9077    0.0803    3.5970 H   0  0  0  0  0  0  0  0  0  0  0  0
   -2.0444    3.0184    2.7704 H   0  0  0  0  0  0  0  0  0  0  0  0
   -3.0378    2.2284    3.9967 H   0  0  0  0  0  0  0  0  0  0  0  0
   -1.2978    2.4026    4.2476 H   0  0  0  0  0  0  0  0  0  0  0  0
    2.4780    2.1222   -0.8792 H   0  0  0  0  0  0  0  0  0  0  0  0
    5.1223    1.2509   -4.3959 H   0  0  0  0  0  0  0  0  0  0  0  0
    4.2728   -0.4513   -5.6482 H   0  0  0  0  0  0  0  0  0  0  0  0
    5.7956   -1.9450   -7.1214 H   0  0  0  0  0  0  0  0  0  0  0  0
    7.1514   -1.8378   -9.3446 H   0  0  0  0  0  0  0  0  0  0  0  0
    7.3575   -0.2252  -10.0472 H   0  0  0  0  0  0  0  0  0  0  0  0
    6.3259   -1.7648  -11.6968 H   0  0  0  0  0  0  0  0  0  0  0  0
    4.9928   -2.0874  -10.5819 H   0  0  0  0  0  0  0  0  0  0  0  0
    5.1982   -0.4733  -11.2661 H   0  0  0  0  0  0  0  0  0  0  0  0
    0.8368    5.2607   -3.1949 H   0  0  0  0  0  0  0  0  0  0  0  0
   -0.2443    7.6031   -3.1296 H   0  0  0  0  0  0  0  0  0  0  0  0
   -0.5883    9.6914   -4.6495 H   0  0  0  0  0  0  0  0  0  0  0  0
    0.3523    9.7180   -6.1497 H   0  0  0  0  0  0  0  0  0  0  0  0
   -2.4081    8.4423   -5.8317 H   0  0  0  0  0  0  0  0  0  0  0  0
   -1.4593    8.4734   -7.3198 H   0  0  0  0  0  0  0  0  0  0  0  0
   -2.0693    9.9819   -6.6307 H   0  0  0  0  0  0  0  0  0  0  0  0
   -0.1169    4.7388   -7.6451 H   0  0  0  0  0  0  0  0  0  0  0  0
   -2.7447   -1.5938  -11.9363 H   0  0  0  0  0  0  0  0  0  0  0  0
   -1.4311   -0.9651  -10.9525 H   0  0  0  0  0  0  0  0  0  0  0  0
   -0.8289    0.5780  -12.9297 H   0  0  0  0  0  0  0  0  0  0  0  0
   -0.6019   -1.1478  -13.2074 H   0  0  0  0  0  0  0  0  0  0  0  0
   -1.9968   -0.3225  -13.8897 H   0  0  0  0  0  0  0  0  0  0  0  0
   -4.5272    1.8153  -11.8778 H   0  0  0  0  0  0  0  0  0  0  0  0
   -3.2523    1.5382  -13.0613 H   0  0  0  0  0  0  0  0  0  0  0  0
   -5.4284   -0.4884  -12.3315 H   0  0  0  0  0  0  0  0  0  0  0  0
   -5.4942    0.5840  -13.7325 H   0  0  0  0  0  0  0  0  0  0  0  0
   -4.2586   -0.6697  -13.6380 H   0  0  0  0  0  0  0  0  0  0  0  0
   -0.1538    1.2337  -10.9218 H   0  0  0  0  0  0  0  0  0  0  0  0
   -5.6463   -1.1629   -8.3534 H   0  0  0  0  0  0  0  0  0  0  0  0
   -7.1953   -1.3638   -6.1290 H   0  0  0  0  0  0  0  0  0  0  0  0
   -7.1976   -4.5452   -2.7168 H   0  0  0  0  0  0  0  0  0  0  0  0
   -9.0942   -5.9129   -3.8243 H   0  0  0  0  0  0  0  0  0  0  0  0
  -10.9727   -5.6414   -5.6091 H   0  0  0  0  0  0  0  0  0  0  0  0
  -10.8997   -4.1667   -6.5875 H   0  0  0  0  0  0  0  0  0  0  0  0
  -12.3298   -4.4205   -3.8976 H   0  0  0  0  0  0  0  0  0  0  0  0
  -13.1130   -4.3740   -5.4814 H   0  0  0  0  0  0  0  0  0  0  0  0
  -12.2473   -2.9556   -4.8797 H   0  0  0  0  0  0  0  0  0  0  0  0
   -5.6018    3.2827   -2.6824 H   0  0  0  0  0  0  0  0  0  0  0  0
   -3.6397    4.7417   -1.8237 H   0  0  0  0  0  0  0  0  0  0  0  0
   -1.2629    2.9854    0.5341 H   0  0  0  0  0  0  0  0  0  0  0  0
   -1.5283    4.5412   -0.2773 H   0  0  0  0  0  0  0  0  0  0  0  0
   -0.5235    3.5423   -2.3754 H   0  0  0  0  0  0  0  0  0  0  0  0
   -0.1811    2.0679   -1.4697 H   0  0  0  0  0  0  0  0  0  0  0  0
    0.6117    3.5845   -1.0179 H   0  0  0  0  0  0  0  0  0  0  0  0
   -4.8294   -0.1724    0.4864 H   0  0  0  0  0  0  0  0  0  0  0  0
   -3.7147   -1.8385    2.1348 H   0  0  0  0  0  0  0  0  0  0  0  0
   -1.7618   -1.4842    6.3184 H   0  0  0  0  0  0  0  0  0  0  0  0
    0.6484   -1.2612    5.3859 H   0  0  0  0  0  0  0  0  0  0  0  0
    1.0273   -2.8927    1.8608 H   0  0  0  0  0  0  0  0  0  0  0  0
    1.7406   -1.5299    2.7306 H   0  0  0  0  0  0  0  0  0  0  0  0
    1.8314   -4.4304    3.6836 H   0  0  0  0  0  0  0  0  0  0  0  0
    3.1654   -3.5471    2.9318 H   0  0  0  0  0  0  0  0  0  0  0  0
    2.5535   -3.0449    4.5085 H   0  0  0  0  0  0  0  0  0  0  0  0
   -7.0133   -6.6651    6.3525 H   0  0  0  0  0  0  0  0  0  0  0  0
   -9.5310   -7.2930    6.4119 H   0  0  0  0  0  0  0  0  0  0  0  0
  -11.7325   -5.1396    4.3033 H   0  0  0  0  0  0  0  0  0  0  0  0
  -11.8185   -6.4353    5.5077 H   0  0  0  0  0  0  0  0  0  0  0  0
  -13.1709   -4.4607    6.2061 H   0  0  0  0  0  0  0  0  0  0  0  0
  -11.7315   -3.4386    6.1241 H   0  0  0  0  0  0  0  0  0  0  0  0
  -11.8333   -4.7240    7.3304 H   0  0  0  0  0  0  0  0  0  0  0  0
   -6.3151   -5.0565    7.9688 H   0  0  0  0  0  0  0  0  0  0  0  0
   -4.0887   -4.7800    9.2941 H   0  0  0  0  0  0  0  0  0  0  0  0
  1  2  2  0  0  0  0
  2  3  1  0  0  0  0
  3  4  2  0  0  0  0
  4  5  1  0  0  0  0
  5  6  2  0  0  0  0
  6  7  1  0  0  0  0
  7  8  2  0  0  0  0
  8  9  1  0  0  0  0
  9 10  1  0  0  0  0
  8 11  1  0  0  0  0
  4 12  1  0  0  0  0
 12 13  2  0  0  0  0
 13 14  1  0  0  0  0
 14 15  1  0  0  0  0
 15 16  2  0  0  0  0
 16 17  1  0  0  0  0
 17 18  2  0  0  0  0
 18 19  1  0  0  0  0
 19 20  1  0  0  0  0
 18 21  1  0  0  0  0
 14 22  2  0  0  0  0
 22 23  1  0  0  0  0
 13 24  1  0  0  0  0
 24 25  2  0  0  0  0
 25 26  1  0  0  0  0
 25 27  1  0  0  0  0
 27 28  2  0  0  0  0
 28 29  1  0  0  0  0
 29 30  2  0  0  0  0
 30 31  1  0  0  0  0
 31 32  2  0  0  0  0
 32 33  1  0  0  0  0
 33 34  2  0  0  0  0
 34 35  1  0  0  0  0
 35 36  1  0  0  0  0
 34 37  1  0  0  0  0
 30 38  1  0  0  0  0
 38 39  2  0  0  0  0
 39 40  1  0  0  0  0
 40 41  1  0  0  0  0
 41 42  2  0  0  0  0
 42 43  1  0  0  0  0
 43 44  2  0  0  0  0
 44 45  1  0  0  0  0
 45 46  1  0  0  0  0
 44 47  1  0  0  0  0
 40 48  2  0  0  0  0
 48 49  1  0  0  0  0
 39 50  1  0  0  0  0
 50 51  2  0  0  0  0
 51 52  1  0  0  0  0
 51 53  1  0  0  0  0
 53 54  2  0  0  0  0
 54 55  1  0  0  0  0
 55 56  2  0  0  0  0
 56 57  1  0  0  0  0
 57 58  2  0  0  0  0
 58 59  1  0  0  0  0
 59 60  2  0  0  0  0
 60 61  1  0  0  0  0
 61 62  1  0  0  0  0
 60 63  1  0  0  0  0
 56 64  1  0  0  0  0
 64 65  2  0  0  0  0
 65 66  1  0  0  0  0
 66 67  1  0  0  0  0
 67 68  2  0  0  0  0
 68 69  1  0  0  0  0
 69 70  2  0  0  0  0
 70 71  1  0  0  0  0
 71 72  1  0  0  0  0
 70 73  1  0  0  0  0
 66 74  2  0  0  0  0
 74 75  1  0  0  0  0
 65 76  1  0  0  0  0
 76 77  2  0  0  0  0
 77 78  1  0  0  0  0
 77 79  1  0  0  0  0
 79 80  1  0  0  0  0
 80 81  1  0  0  0  0
 81 82  1  0  0  0  0
 82 83  2  0  0  0  0
 83 84  1  0  0  0  0
 84 85  1  0  0  0  0
 85 86  1  0  0  0  0
 86 87  1  0  0  0  0
 85 88  1  0  0  0  0
 88 89  1  0  0  0  0
 85 90  1  0  0  0  0
 90 91  1  0  0  0  0
 83 92  1  0  0  0  0
 92 93  2  0  0  0  0
 93 94  1  0  0  0  0
 93 95  1  0  0  0  0
 95 96  2  0  0  0  0
 96 97  1  0  0  0  0
 97 98  2  0  0  0  0
 98 99  1  0  0  0  0
 99100  2  0  0  0  0
100101  1  0  0  0  0
101102  2  0  0  0  0
102103  1  0  0  0  0
103104  1  0  0  0  0
102105  1  0  0  0  0
 98106  1  0  0  0  0
106107  2  0  0  0  0
107108  1  0  0  0  0
108109  1  0  0  0  0
109110  2  0  0  0  0
110111  1  0  0  0  0
111112  2  0  0  0  0
112113  1  0  0  0  0
113114  1  0  0  0  0
112115  1  0  0  0  0
108116  2  0  0  0  0
116117  1  0  0  0  0
107118  1  0  0  0  0
118119  2  0  0  0  0
119120  1  0  0  0  0
119121  1  0  0  0  0
121122  2  0  0  0  0
122123  1  0  0  0  0
123124  2  0  0  0  0
124125  1  0  0  0  0
125126  2  0  0  0  0
126127  1  0  0  0  0
127128  2  0  0  0  0
128129  1  0  0  0  0
129130  1  0  0  0  0
128131  1  0  0  0  0
124132  1  0  0  0  0
132133  2  0  0  0  0
133134  1  0  0  0  0
134135  1  0  0  0  0
135136  2  0  0  0  0
136137  1  0  0  0  0
137138  2  0  0  0  0
138139  1  0  0  0  0
139140  1  0  0  0  0
138141  1  0  0  0  0
134142  2  0  0  0  0
142143  1  0  0  0  0
133144  1  0  0  0  0
144145  2  0  0  0  0
145146  1  0  0  0  0
 23  1  1  0  0  0  0
 49 27  1  0  0  0  0
 75 53  1  0  0  0  0
 91 79  2  0  0  0  0
117 95  1  0  0  0  0
143121  1  0  0  0  0
 22  3  1  0  0  0  0
 48 29  1  0  0  0  0
 74 55  1  0  0  0  0
 90 81  2  0  0  0  0
116 97  1  0  0  0  0
142123  1  0  0  0  0
 11  5  1  0  0  0  0
 26 12  1  0  0  0  0
 37 31  1  0  0  0  0
 52 38  1  0  0  0  0
 63 57  1  0  0  0  0
 78 64  1  0  0  0  0
 94 82  1  0  0  0  0
105 99  1  0  0  0  0
120106  1  0  0  0  0
131125  1  0  0  0  0
146132  1  0  0  0  0
 21 15  1  0  0  0  0
 47 41  1  0  0  0  0
 73 67  1  0  0  0  0
115109  1  0  0  0  0
141135  1  0  0  0  0
  1147  1  0  0  0  0
  2148  1  0  0  0  0
  6149  1  0  0  0  0
  7150  1  0  0  0  0
  9151  1  0  0  0  0
  9152  1  0  0  0  0
 10153  1  0  0  0  0
 10154  1  0  0  0  0
 10155  1  0  0  0  0
 16156  1  0  0  0  0
 17157  1  0  0  0  0
 19158  1  0  0  0  0
 19159  1  0  0  0  0
 20160  1  0  0  0  0
 20161  1  0  0  0  0
 20162  1  0  0  0  0
 24163  1  0  0  0  0
 28164  1  0  0  0  0
 32165  1  0  0  0  0
 33166  1  0  0  0  0
 35167  1  0  0  0  0
 35168  1  0  0  0  0
 36169  1  0  0  0  0
 36170  1  0  0  0  0
 36171  1  0  0  0  0
 42172  1  0  0  0  0
 43173  1  0  0  0  0
 45174  1  0  0  0  0
 45175  1  0  0  0  0
 46176  1  0  0  0  0
 46177  1  0  0  0  0
 46178  1  0  0  0  0
 50179  1  0  0  0  0
 54180  1  0  0  0  0
 58181  1  0  0  0  0
 59182  1  0  0  0  0
 61183  1  0  0  0  0
 61184  1  0  0  0  0
 62185  1  0  0  0  0
 62186  1  0  0  0  0
 62187  1  0  0  0  0
 68188  1  0  0  0  0
 69189  1  0  0  0  0
 71190  1  0  0  0  0
 71191  1  0  0  0  0
 72192  1  0  0  0  0
 72193  1  0  0  0  0
 72194  1  0  0  0  0
 76195  1  0  0  0  0
 86196  1  0  0  0  0
 86197  1  0  0  0  0
 87198  1  0  0  0  0
 87199  1  0  0  0  0
 87200  1  0  0  0  0
 88201  1  0  0  0  0
 88202  1  0  0  0  0
 89203  1  0  0  0  0
 89204  1  0  0  0  0
 89205  1  0  0  0  0
 91206  1  0  0  0  0
 92207  1  0  0  0  0
 96208  1  0  0  0  0
100209  1  0  0  0  0
101210  1  0  0  0  0
103211  1  0  0  0  0
103212  1  0  0  0  0
104213  1  0  0  0  0
104214  1  0  0  0  0
104215  1  0  0  0  0
110216  1  0  0  0  0
111217  1  0  0  0  0
113218  1  0  0  0  0
113219  1  0  0  0  0
114220  1  0  0  0  0
114221  1  0  0  0  0
114222  1  0  0  0  0
118223  1  0  0  0  0
122224  1  0  0  0  0
126225  1  0  0  0  0
127226  1  0  0  0  0
129227  1  0  0  0  0
129228  1  0  0  0  0
130229  1  0  0  0  0
130230  1  0  0  0  0
130231  1  0  0  0  0
136232  1  0  0  0  0
137233  1  0  0  0  0
139234  1  0  0  0  0
139235  1  0  0  0  0
140236  1  0  0  0  0
140237  1  0  0  0  0
140238  1  0  0  0  0
144239  1  0  0  0  0
145240  1  0  0  0  0
M  END
