165

C         -1.51230        2.19410       13.56450
C         -2.31630        1.06680       13.68670
N         -2.93250        0.64690       14.80030
S         -3.75090       -0.69010       14.46910
N         -3.38320       -0.82440       12.90810
C         -2.58670        0.18780       12.56340
C         -2.03420        0.44930       11.29090
C         -1.21310        1.59690       11.20170
C         -0.95900        2.45820       12.31610
N         -0.16830        3.54500       12.14000
C          0.35300        3.78350       10.96820
C          1.24870        4.98310       10.87240
C          2.70470        4.57770       11.11400
C          0.10780        2.91690        9.85720
C          0.63320        3.14710        8.47260
C         -0.39500        3.92440        7.64690
N         -0.66030        1.87150       10.01110
C         -2.26100       -0.34690       10.14170
S         -1.55470        0.09390        8.61100
C         -2.31070       -1.27500        7.86240
C         -2.22090       -1.68890        6.52860
C         -2.75180       -2.93570        6.17830
O         -3.34840       -3.76440        7.05110
C         -3.84560       -3.23280        8.29200
C         -5.29060       -2.72590        8.05460
C         -6.25780       -3.78810        7.55030
C         -3.76290       -4.36340        9.34400
C         -3.78700       -5.77410        8.76510
C         -3.05220       -2.03720        8.76350
C         -3.02520       -1.50260       10.04330
C         -2.52910       -3.25070        4.84020
C         -1.85280       -2.25190        4.15640
S         -1.47410       -0.89390        5.18080
C         -1.47330       -2.23960        2.79170
C         -1.73370       -3.28830        1.88410
N         -2.36320       -4.43510        2.14290
S         -2.47400       -5.28440        0.78070
N         -1.74080       -4.25950       -0.20520
C         -1.34390       -3.19000        0.49150
C         -0.67620       -2.06680       -0.02420
C         -0.38940       -1.03400        0.88950
C         -0.80000       -1.11840        2.25400
N         -0.54690       -0.09480        3.08360
C          0.08860        0.96660        2.66550
C          0.32540        2.03930        3.68470
C          1.55870        1.69830        4.52500
C          0.57540        1.00790        1.32360
C          1.35270        2.16460        0.76940
C          0.39000        3.21570        0.21120
N          0.33490        0.03180        0.49300
C         -0.30370       -1.96690       -1.41760
C         -0.55180       -0.80330       -2.16300
N         -1.15500        0.30850       -1.72920
S         -1.31350        1.32090       -2.96170
N         -0.65990        0.42260       -4.11450
C         -0.25600       -0.73470       -3.57910
C          0.31150       -1.81950       -4.26270
C          0.61520       -2.95980       -3.49810
C          0.29370       -3.03970       -2.10400
N          0.59070       -4.16820       -1.42470
C          1.12470       -5.18080       -2.04090
C          1.30220       -6.43090       -1.23400
C          0.09350       -7.34720       -1.44160
C          1.51320       -5.07230       -3.41760
C          2.27560       -6.16350       -4.11030
C          2.66130       -5.79190       -5.53550
N          1.27200       -3.98320       -4.08430
C          0.54390       -1.78930       -5.69170
C          0.15340       -2.85410       -6.51730
N         -0.49040       -3.96400       -6.13910
S         -0.80700       -4.84410       -7.43900
N         -0.18280       -3.88100       -8.55560
C          0.33220       -2.80350       -7.95290
C          0.90210       -1.68720       -8.57910
C          1.32030       -0.63640       -7.74540
C          1.13950       -0.68490       -6.32410
N          1.57170        0.34820       -5.56870
C          2.09620        1.39450       -6.13390
C          2.55400        2.48680       -5.21270
C          3.97890        2.21470       -4.72510
C          2.29580        1.43490       -7.55420
C          2.95550        2.60530       -8.22470
C          3.25310        2.34570       -9.69530
N          1.93670        0.43180       -8.29830
C          1.00140       -1.59090      -10.02200
C          1.50630       -2.63630      -10.80650
N          1.98090       -3.81060      -10.37670
S          2.45440       -4.66740      -11.64070
N          2.12160       -3.61840      -12.80480
C          1.60400       -2.51340      -12.24830
C          1.22720       -1.34530      -12.89920
C          0.73340       -0.30460      -12.12300
C          0.58700       -0.43350      -10.70000
N         -0.01520        0.55690      -10.00520
C         -0.34840        1.66050      -10.60660
C         -1.08910        2.66780       -9.77730
C         -2.59910        2.47070       -9.93090
C         -0.07370        1.84420      -12.00480
C         -0.29970        3.14700      -12.71220
C          0.89180        4.08180      -12.48870
N          0.40930        0.87120      -12.72020
H         -1.32150        2.84190       14.40240
H          0.94550        5.69110       11.64440
H          1.14910        5.45940        9.89670
H          2.80620        4.14000       12.10390
H          3.35220        5.44890       11.05020
H          3.03440        3.84480       10.38030
H          0.78880        2.17290        8.00720
H          1.57910        3.68720        8.49840
H         -0.60770        4.89090        8.10000
H         -0.02220        4.08760        6.63870
H         -1.32020        3.35720        7.58850
H         -5.22930       -1.92140        7.31550
H         -5.65570       -2.29280        8.98770
H         -7.19650       -3.32090        7.26050
H         -6.46860       -4.52320        8.32200
H         -5.84070       -4.29290        6.68260
H         -4.58560       -4.23560       10.04840
H         -2.82940       -4.24180        9.89850
H         -2.93890       -5.92520        8.10380
H         -3.72760       -6.49570        9.57710
H         -4.69380       -5.96000        8.20000
H         -3.53510       -1.90920       10.89700
H         -2.83800       -4.16460        4.36920
H          0.45420        3.00890        3.20500
H         -0.54350        2.07660        4.34280
H          1.73590        2.47500        5.26470
H          2.44330        1.60680        3.89760
H          1.39870        0.75510        5.04030
H          1.97570        1.78880       -0.04300
H          1.99350        2.60590        1.53330
H         -0.24860        2.76090       -0.54210
H         -0.24400        3.62100        0.99700
H          0.94590        4.03270       -0.24290
H          2.21890       -6.95180       -1.51280
H          1.35820       -6.14850       -0.18200
H          0.01690       -7.66090       -2.48010
H         -0.81750       -6.81650       -1.17600
H          0.18080       -8.23310       -0.81700
H          1.66420       -7.07000       -4.11540
H          3.17690       -6.38310       -3.52950
H          3.21770       -6.60270       -5.99970
H          1.77130       -5.59190       -6.12380
H          3.27280       -4.89410       -5.53830
H          1.88400        2.49760       -4.35210
H          2.50630        3.45510       -5.71190
H          4.01140        1.26300       -4.20100
H          4.30110        3.00020       -4.04550
H          4.67660        2.17120       -5.55880
H          2.29120        3.47080       -8.12980
H          3.88160        2.84730       -7.69760
H          2.33600        2.12140      -10.23080
H          3.72300        3.21750      -10.14530
H          3.91750        1.49250       -9.79960
H          1.33280       -1.23350      -13.96510
H         -0.81450        2.50590       -8.73390
H         -0.81570        3.68390      -10.06290
H         -2.87470        1.46930       -9.60980
H         -3.13670        3.19230       -9.32020
H         -2.90610        2.59540      -10.96750
H         -1.21610        3.62320      -12.36270
H         -0.39380        2.93810      -13.77840
H          0.73260        5.02240      -13.01070
H          1.03160        4.29170      -11.43020
H          1.80060        3.62170      -12.86900
