226

C          3.71240       -3.45320       11.73300
S          3.02460       -4.53590       10.58420
C          2.26060       -3.21270        9.77500
C          1.38020       -3.25070        8.66460
C          0.67220       -2.10030        8.34990
O          0.77190       -0.95860        9.06020
C          2.00590       -0.72270        9.77370
C          1.65390        0.28920       10.87530
C          1.03270        1.57760       10.34920
C          3.02060       -0.18260        8.73880
C          4.39850        0.13770        9.29960
C          2.53300       -2.00360       10.37980
C          3.36710       -2.15730       11.50610
C         -0.19210       -2.27260        7.25970
C         -0.13290       -3.54170        6.72770
S          0.99120       -4.55450        7.59720
C         -0.83610       -4.05280        5.60780
S         -2.02920       -3.08020        4.78690
C         -2.34620       -4.37150        3.68270
C         -3.23220       -4.38720        2.58380
C         -3.17070       -5.45740        1.69860
O         -2.31590       -6.48630        1.82830
C         -1.71690       -6.74270        3.11150
C         -2.66470       -7.66590        3.91600
C         -2.96360       -9.00040        3.24670
C         -0.32770       -7.37130        2.85060
C         -0.19240       -8.08200        1.50820
C         -1.55610       -5.48060        3.92850
C         -0.70960       -5.29630        5.02380
C         -4.03390       -5.30580        0.60530
C         -4.76260       -4.13770        0.65970
S         -4.38950       -3.20840        2.08950
C         -5.62710       -3.58990       -0.32470
C         -6.33150       -2.42160       -0.24710
C         -6.92370       -2.03540       -1.47000
C         -7.58770       -0.83370       -1.76620
C         -7.69520        0.25150       -0.80130
S         -9.21060        1.01920       -0.44590
C         -8.45880        2.20910        0.56380
C         -9.26340        3.28610        1.20250
C         -9.78370        4.27380        0.15660
C         -7.11140        2.01140        0.60620
Cl        -6.01890        2.99220        1.49350
C         -6.67410        0.90180       -0.16700
Cl        -5.01500        0.49490       -0.33930
C         -7.95280       -0.62310       -3.08600
C         -7.65980       -1.53680       -4.12680
C         -7.03570       -2.75940       -3.82290
C         -6.65410       -3.67360       -4.89230
S         -7.84530       -4.48180       -5.86240
C         -6.63790       -5.25990       -6.82980
C         -7.01200       -6.22470       -7.90030
C         -7.26520       -7.61670       -7.31650
C         -5.39200       -4.90130       -6.41070
C         -5.39690       -3.99470       -5.31630
Cl        -3.96580       -3.32310       -4.65520
Cl        -3.94160       -5.47040       -7.12810
C         -6.67520       -2.97630       -2.50260
S         -5.74430       -4.32610       -1.91440
C         -7.73530       -0.92870       -5.40450
C         -8.00590        0.41250       -5.34800
S         -8.46510        0.91250       -3.72270
C         -7.43420        1.41900       -6.19060
C         -6.43100        1.18640       -7.09520
C         -5.43630        2.19590       -7.09740
C         -4.11290        2.07930       -7.56000
C         -3.66300        0.97920       -8.39770
S         -3.97990       -0.68650       -7.99820
C         -3.04280       -1.27100       -9.32920
C         -2.84110       -2.72980       -9.54290
C         -1.65500       -3.23690       -8.71900
C         -2.51460       -0.22770      -10.02880
Cl        -1.53090       -0.41160      -11.42200
C         -2.85740        1.04610       -9.50060
Cl        -2.35150        2.51330      -10.22610
C         -3.17710        2.94640       -6.99950
C         -3.51820        3.94470       -6.05850
C         -4.86080        4.15530       -5.71480
C         -5.23320        5.06420       -4.63180
S         -5.31110        6.78440       -4.82490
C         -5.79160        7.02100       -3.17710
C         -6.10740        8.37790       -2.65210
C         -7.56640        8.74550       -2.93300
C         -5.88290        5.82370       -2.53300
C         -5.55970        4.71010       -3.35400
Cl        -5.53830        3.09650       -2.76770
Cl        -6.32240        5.64780       -0.88510
C         -5.78360        3.26550       -6.23150
S         -7.39420        3.07290       -5.59390
C         -2.38950        4.38470       -5.31330
C         -1.24300        3.74380       -5.64730
S         -1.45330        2.67970       -7.02940
C         -0.09170        3.55750       -4.78660
C         -0.19040        2.78440       -3.67410
C          1.04150        2.59110       -3.00010
C          1.28060        1.80940       -1.85580
C          0.23530        0.97710       -1.28110
S         -0.69140       -0.08730       -2.30600
C         -1.57050       -0.74820       -0.97080
C         -2.57400       -1.82890       -1.17340
C         -1.89550       -3.18580       -1.36770
C         -1.15940       -0.17360        0.19430
Cl        -1.79630       -0.58150        1.73510
C         -0.14130        0.80550        0.02270
Cl         0.46500        1.72430        1.33380
C          2.58550        1.79680       -1.37660
C          3.63720        2.51630       -1.99910
C          3.38920        3.30360       -3.13760
C          4.45560        4.06160       -3.76690
S          4.76390        3.94870       -5.47420
C          6.09530        5.04960       -5.38600
C          6.83760        5.45950       -6.60950
C          6.10380        6.58860       -7.33730
C          6.26890        5.48240       -4.10510
C          5.34440        4.92330       -3.18330
Cl         5.31410        5.37230       -1.52620
Cl         7.49090        6.58740       -3.62510
C          2.09030        3.29940       -3.63050
S          1.53150        4.13400       -5.05850
C          4.88770        2.24840       -1.39140
C          4.80940        1.38670       -0.33870
S          3.17250        0.84420       -0.04420
C          5.88930        0.91410        0.46320
C          5.83970        0.09100        1.54760
C          7.11680       -0.21990        2.08110
C          7.43730       -1.06790        3.15600
C          6.41670       -1.82050        3.86360
S          6.35940       -1.82310        5.60300
C          4.98610       -2.86900        5.63730
C          4.41700       -3.36330        6.91960
C          4.81740       -4.81770        7.17530
C          4.59920       -3.18730        4.36920
Cl         3.24660       -4.18230        4.01360
C          5.41050       -2.60200        3.36100
Cl         5.19040       -2.95600        1.69510
C          8.78000       -1.14760        3.51420
C          9.80630       -0.45040        2.83460
C          9.49170        0.35370        1.72910
C         10.51510        1.05040        0.96650
S         10.40300        2.75910        0.66740
C         11.86400        2.77180       -0.26040
C         12.34780        4.02510       -0.90180
C         11.46370        4.40720       -2.09100
C         12.39210        1.51740       -0.32920
C         11.63330        0.53950        0.36990
Cl        12.05420       -1.12470        0.37880
Cl        13.83580        1.12640       -1.17170
C          8.15030        0.45550        1.38720
S          7.52610        1.39110        0.06050
C         11.08330       -0.68200        3.42450
C         11.02950       -1.53560        4.46630
S          9.43400       -2.10680        4.81330
H          4.33600       -3.84630       12.51040
H          2.55470        0.51920       11.44300
H          0.94510       -0.19990       11.54740
H          0.67720        2.17870       11.18270
H          1.75670        2.16550        9.79150
H          0.19160        1.34890        9.70120
H          3.11750       -0.94060        7.95690
H          2.58840        0.70520        8.27590
H          4.35000        0.95150       10.01820
H          4.83050       -0.73240        9.78900
H          5.06070        0.43680        8.49040
H          3.70410       -1.34800       12.12740
H         -0.82770       -1.49830        6.87160
H         -2.22590       -7.82750        4.90230
H         -3.60260       -7.11930        4.05530
H         -3.74880       -9.51730        3.79380
H         -2.08310       -9.63650        3.23360
H         -3.30120       -8.84030        2.22580
H         -0.10910       -8.06610        3.66250
H          0.41840       -6.57370        2.88500
H          0.81010       -8.49540        1.42250
H         -0.91150       -8.88760        1.40670
H         -0.34900       -7.38190        0.69270
H         -0.02010       -6.03360        5.39410
H         -4.11160       -6.01450       -0.19860
H         -6.39370       -1.84180        0.65600
H        -10.10910        2.84350        1.73380
H         -8.63310        3.80740        1.92490
H        -10.36170        5.05830        0.63800
H         -8.95350        4.72940       -0.37650
H        -10.41740        3.76110       -0.56330
H         -7.91360       -5.87440       -8.40590
H         -6.19900       -6.27490       -8.62700
H         -6.37220       -7.98420       -6.81760
H         -8.07700       -7.58030       -6.59400
H         -7.53290       -8.31070       -8.10850
H         -7.44180       -1.43500       -6.30600
H         -6.31410        0.24550       -7.59820
H         -3.74270       -3.26940       -9.24750
H         -2.65470       -2.90860      -10.60350
H         -1.83360       -3.06940       -7.65960
H         -1.51500       -4.30160       -8.88470
H         -0.74510       -2.71540       -9.00530
H         -5.45030        9.11120       -3.12240
H         -5.92960        8.38720       -1.57500
H         -8.23290        8.02900       -2.45980
H         -7.75660        8.74280       -4.00360
H         -7.78340        9.73580       -2.54190
H         -2.46130        5.07710       -4.49370
H         -1.12130        2.35260       -3.35600
H         -3.18250       -1.60070       -2.05170
H         -3.22700       -1.86440       -0.29990
H         -1.32570       -3.45470       -0.48140
H         -1.22060       -3.15010       -2.22000
H         -2.64320       -3.95340       -1.54770
H          7.83430        5.79630       -6.31900
H          6.93710        4.60240       -7.27760
H          6.65330        6.87680       -8.22920
H          6.01050        7.45640       -6.68930
H          5.10800        6.26360       -7.62880
H          5.82130        2.65740       -1.73180
H          4.91230       -0.26660        1.95580
H          4.77250       -2.73650        7.73850
H          3.32860       -3.29780        6.86830
H          4.45590       -5.45420        6.37270
H          5.89940       -4.90750        7.23360
H          4.38440       -5.16160        8.11060
H         12.33650        4.83590       -0.17020
H         13.37490        3.87190       -1.23660
H         11.82870        5.32240       -2.54910
H         11.47150        3.61650       -2.83720
H         10.43880        4.56480       -1.76350
H         11.98750       -0.21590        3.07970
H         11.83940       -1.87870        5.07980
