
  xtb     03012201283D
 energy: -449.188012437611 gnorm: 0.000644021356 xtb: 6.4.1 (unknown)
272292  0     0  0            999 V2000
    4.8855   -1.1185  -10.3154 C   0  0  0  0  0  0  0  0  0  0  0  0
    4.1908   -1.8503   -9.3363 C   0  0  0  0  0  0  0  0  0  0  0  0
    3.7408   -3.0878   -9.6104 N   0  0  0  0  0  0  0  0  0  0  0  0
    3.1315   -3.7669   -8.6688 C   0  0  0  0  0  0  0  0  0  0  0  0
    2.5191   -5.0415   -9.0393 C   0  0  0  0  0  0  0  0  0  0  0  0
    3.1251   -5.8574   -9.9822 C   0  0  0  0  0  0  0  0  0  0  0  0
    2.5854   -7.0960  -10.2893 C   0  0  0  0  0  0  0  0  0  0  0  0
    1.4372   -7.5479   -9.6572 C   0  0  0  0  0  0  0  0  0  0  0  0
    0.8526   -8.7601   -9.8348 O   0  0  0  0  0  0  0  0  0  0  0  0
    1.2989   -9.6109  -10.8698 C   0  0  0  0  0  0  0  0  0  0  0  0
    0.8460   -9.1447  -12.2505 C   0  0  0  0  0  0  0  0  0  0  0  0
    0.7995   -6.7080   -8.7091 C   0  0  0  0  0  0  0  0  0  0  0  0
    1.3317   -5.4653   -8.4322 C   0  0  0  0  0  0  0  0  0  0  0  0
   -0.3125   -7.2209   -8.1257 O   0  0  0  0  0  0  0  0  0  0  0  0
   -0.8853   -6.5273   -7.0342 C   0  0  0  0  0  0  0  0  0  0  0  0
   -1.9486   -7.4277   -6.4255 C   0  0  0  0  0  0  0  0  0  0  0  0
    3.0898   -3.2581   -7.3212 C   0  0  0  0  0  0  0  0  0  0  0  0
    2.7071   -4.0947   -6.1842 C   0  0  0  0  0  0  0  0  0  0  0  0
    1.9590   -3.5612   -5.1469 C   0  0  0  0  0  0  0  0  0  0  0  0
    1.5324   -4.3722   -4.1069 C   0  0  0  0  0  0  0  0  0  0  0  0
    1.8448   -5.7219   -4.0840 C   0  0  0  0  0  0  0  0  0  0  0  0
    1.4429   -6.6038   -3.1359 O   0  0  0  0  0  0  0  0  0  0  0  0
    0.6421   -6.1427   -2.0671 C   0  0  0  0  0  0  0  0  0  0  0  0
    0.3370   -7.3367   -1.1764 C   0  0  0  0  0  0  0  0  0  0  0  0
    2.6408   -6.2674   -5.1229 C   0  0  0  0  0  0  0  0  0  0  0  0
    2.8833   -7.6009   -5.0223 O   0  0  0  0  0  0  0  0  0  0  0  0
    3.5604   -8.2689   -6.0665 C   0  0  0  0  0  0  0  0  0  0  0  0
    5.0779   -8.1323   -5.9713 C   0  0  0  0  0  0  0  0  0  0  0  0
    3.0727   -5.4456   -6.1431 C   0  0  0  0  0  0  0  0  0  0  0  0
    3.4211   -2.0143   -7.0758 N   0  0  0  0  0  0  0  0  0  0  0  0
    3.9103   -1.2591   -8.0735 C   0  0  0  0  0  0  0  0  0  0  0  0
    4.2374    0.0992   -7.8346 C   0  0  0  0  0  0  0  0  0  0  0  0
    4.8882    0.7957   -8.8286 C   0  0  0  0  0  0  0  0  0  0  0  0
    5.2206    0.1796  -10.0494 C   0  0  0  0  0  0  0  0  0  0  0  0
    5.8748    0.9031  -10.9770 F   0  0  0  0  0  0  0  0  0  0  0  0
    5.1820    2.0957   -8.6740 F   0  0  0  0  0  0  0  0  0  0  0  0
    3.9441    0.7032   -6.5325 C   0  0  0  0  0  0  0  0  0  0  0  0
    4.9955    1.2520   -5.7572 C   0  0  0  0  0  0  0  0  0  0  0  0
    6.2343    1.2359   -6.2656 N   0  0  0  0  0  0  0  0  0  0  0  0
    7.2465    1.7063   -5.5692 C   0  0  0  0  0  0  0  0  0  0  0  0
    8.5316    1.7420   -6.2611 C   0  0  0  0  0  0  0  0  0  0  0  0
    9.5409    2.6410   -5.9495 C   0  0  0  0  0  0  0  0  0  0  0  0
   10.7147    2.6552   -6.6862 C   0  0  0  0  0  0  0  0  0  0  0  0
   10.9032    1.7863   -7.7499 C   0  0  0  0  0  0  0  0  0  0  0  0
   12.0103    1.7229   -8.5260 O   0  0  0  0  0  0  0  0  0  0  0  0
   13.0753    2.6190   -8.2814 C   0  0  0  0  0  0  0  0  0  0  0  0
   14.1542    2.3385   -9.3155 C   0  0  0  0  0  0  0  0  0  0  0  0
    9.8660    0.8826   -8.0925 C   0  0  0  0  0  0  0  0  0  0  0  0
    8.7077    0.8728   -7.3458 C   0  0  0  0  0  0  0  0  0  0  0  0
   10.1122    0.0835   -9.1607 O   0  0  0  0  0  0  0  0  0  0  0  0
    9.0557   -0.7126   -9.6612 C   0  0  0  0  0  0  0  0  0  0  0  0
    9.5462   -1.3854  -10.9332 C   0  0  0  0  0  0  0  0  0  0  0  0
    7.0186    2.1574   -4.2329 C   0  0  0  0  0  0  0  0  0  0  0  0
    8.0778    2.5052   -3.2750 C   0  0  0  0  0  0  0  0  0  0  0  0
    9.0923    1.6086   -2.9829 C   0  0  0  0  0  0  0  0  0  0  0  0
   10.0065    1.8968   -1.9832 C   0  0  0  0  0  0  0  0  0  0  0  0
    9.9461    3.0929   -1.2849 C   0  0  0  0  0  0  0  0  0  0  0  0
   10.8019    3.4856   -0.3047 O   0  0  0  0  0  0  0  0  0  0  0  0
   11.6851    2.5461    0.2707 C   0  0  0  0  0  0  0  0  0  0  0  0
   10.9673    1.5406    1.1669 C   0  0  0  0  0  0  0  0  0  0  0  0
    8.9383    4.0322   -1.6115 C   0  0  0  0  0  0  0  0  0  0  0  0
    8.9626    5.1862   -0.8896 O   0  0  0  0  0  0  0  0  0  0  0  0
    8.2898    6.3279   -1.3812 C   0  0  0  0  0  0  0  0  0  0  0  0
    8.9293    6.8878   -2.6480 C   0  0  0  0  0  0  0  0  0  0  0  0
    8.0051    3.7123   -2.5801 C   0  0  0  0  0  0  0  0  0  0  0  0
    5.8008    2.2174   -3.7466 N   0  0  0  0  0  0  0  0  0  0  0  0
    4.7522    1.7991   -4.4692 C   0  0  0  0  0  0  0  0  0  0  0  0
    3.4278    1.8324   -3.9219 C   0  0  0  0  0  0  0  0  0  0  0  0
    2.4324    1.3009   -4.7343 C   0  0  0  0  0  0  0  0  0  0  0  0
    2.6813    0.7358   -5.9889 C   0  0  0  0  0  0  0  0  0  0  0  0
    1.6308    0.2569   -6.6775 F   0  0  0  0  0  0  0  0  0  0  0  0
    1.1483    1.3094   -4.3207 F   0  0  0  0  0  0  0  0  0  0  0  0
    3.1611    2.3173   -2.5998 C   0  0  0  0  0  0  0  0  0  0  0  0
    1.5922    2.1262   -1.8423 S   0  0  0  0  0  0  0  0  0  0  0  0
    2.1878    2.7754   -0.3634 C   0  0  0  0  0  0  0  0  0  0  0  0
    1.4903    2.9750    0.8454 C   0  0  0  0  0  0  0  0  0  0  0  0
    2.1443    3.6495    1.8712 C   0  0  0  0  0  0  0  0  0  0  0  0
    3.3875    4.1526    1.7752 O   0  0  0  0  0  0  0  0  0  0  0  0
    4.2754    3.6499    0.7529 C   0  0  0  0  0  0  0  0  0  0  0  0
    5.1694    4.8395    0.3669 C   0  0  0  0  0  0  0  0  0  0  0  0
    5.9456    5.4227    1.5416 C   0  0  0  0  0  0  0  0  0  0  0  0
    5.0584    2.4797    1.3957 C   0  0  0  0  0  0  0  0  0  0  0  0
    6.2142    1.9340    0.5678 C   0  0  0  0  0  0  0  0  0  0  0  0
    3.5240    3.1449   -0.4545 C   0  0  0  0  0  0  0  0  0  0  0  0
    4.0544    2.8964   -1.7172 C   0  0  0  0  0  0  0  0  0  0  0  0
    1.3460    3.8052    3.0078 C   0  0  0  0  0  0  0  0  0  0  0  0
    0.0837    3.2638    2.8587 C   0  0  0  0  0  0  0  0  0  0  0  0
   -0.1393    2.5675    1.2776 S   0  0  0  0  0  0  0  0  0  0  0  0
   -0.9704    3.1946    3.8226 C   0  0  0  0  0  0  0  0  0  0  0  0
   -2.2630    2.7284    3.4424 C   0  0  0  0  0  0  0  0  0  0  0  0
   -2.4596    2.4241    2.1525 N   0  0  0  0  0  0  0  0  0  0  0  0
   -3.6346    2.0169    1.7345 C   0  0  0  0  0  0  0  0  0  0  0  0
   -3.8357    1.7765    0.3045 C   0  0  0  0  0  0  0  0  0  0  0  0
   -4.9609    2.2602   -0.3459 C   0  0  0  0  0  0  0  0  0  0  0  0
   -5.1868    1.9476   -1.6765 C   0  0  0  0  0  0  0  0  0  0  0  0
   -4.3126    1.1251   -2.3697 C   0  0  0  0  0  0  0  0  0  0  0  0
   -4.4726    0.6804   -3.6420 O   0  0  0  0  0  0  0  0  0  0  0  0
   -5.5078    1.2040   -4.4470 C   0  0  0  0  0  0  0  0  0  0  0  0
   -5.2038    2.6120   -4.9506 C   0  0  0  0  0  0  0  0  0  0  0  0
   -3.1436    0.6565   -1.7183 C   0  0  0  0  0  0  0  0  0  0  0  0
   -2.9116    1.0033   -0.4006 C   0  0  0  0  0  0  0  0  0  0  0  0
   -2.3453   -0.1381   -2.4669 O   0  0  0  0  0  0  0  0  0  0  0  0
   -1.0975   -0.5391   -1.9365 C   0  0  0  0  0  0  0  0  0  0  0  0
   -0.3628   -1.2957   -3.0301 C   0  0  0  0  0  0  0  0  0  0  0  0
   -4.6862    1.8191    2.6828 C   0  0  0  0  0  0  0  0  0  0  0  0
   -5.9835    1.2359    2.3327 C   0  0  0  0  0  0  0  0  0  0  0  0
   -7.1431    1.7157    2.9209 C   0  0  0  0  0  0  0  0  0  0  0  0
   -8.3763    1.1764    2.5907 C   0  0  0  0  0  0  0  0  0  0  0  0
   -8.4782    0.1553    1.6593 C   0  0  0  0  0  0  0  0  0  0  0  0
   -9.6246   -0.4499    1.2580 O   0  0  0  0  0  0  0  0  0  0  0  0
  -10.8712    0.0170    1.7295 C   0  0  0  0  0  0  0  0  0  0  0  0
  -11.3240    1.2960    1.0298 C   0  0  0  0  0  0  0  0  0  0  0  0
   -7.2954   -0.3448    1.0591 C   0  0  0  0  0  0  0  0  0  0  0  0
   -7.4729   -1.3301    0.1436 O   0  0  0  0  0  0  0  0  0  0  0  0
   -6.3571   -1.7618   -0.6115 C   0  0  0  0  0  0  0  0  0  0  0  0
   -6.8677   -2.6908   -1.7014 C   0  0  0  0  0  0  0  0  0  0  0  0
   -6.0714    0.1814    1.4193 C   0  0  0  0  0  0  0  0  0  0  0  0
   -4.5102    2.1416    3.9432 N   0  0  0  0  0  0  0  0  0  0  0  0
   -3.3339    2.6198    4.3697 C   0  0  0  0  0  0  0  0  0  0  0  0
   -3.1532    2.9639    5.7491 C   0  0  0  0  0  0  0  0  0  0  0  0
   -1.8856    3.4430    6.0728 C   0  0  0  0  0  0  0  0  0  0  0  0
   -0.8425    3.5590    5.1586 C   0  0  0  0  0  0  0  0  0  0  0  0
    0.3238    4.0273    5.6411 F   0  0  0  0  0  0  0  0  0  0  0  0
   -1.6113    3.8129    7.3403 F   0  0  0  0  0  0  0  0  0  0  0  0
   -4.1799    2.7847    6.7293 C   0  0  0  0  0  0  0  0  0  0  0  0
   -3.8950    3.0842    8.4340 S   0  0  0  0  0  0  0  0  0  0  0  0
   -5.4960    2.5851    8.8215 C   0  0  0  0  0  0  0  0  0  0  0  0
   -6.0964    2.4395   10.0892 C   0  0  0  0  0  0  0  0  0  0  0  0
   -7.3317    1.8051   10.1707 C   0  0  0  0  0  0  0  0  0  0  0  0
   -8.0145    1.3427    9.1082 O   0  0  0  0  0  0  0  0  0  0  0  0
   -7.6714    1.8199    7.7946 C   0  0  0  0  0  0  0  0  0  0  0  0
   -7.9673    0.6778    6.7945 C   0  0  0  0  0  0  0  0  0  0  0  0
   -9.0523   -0.2984    7.2367 C   0  0  0  0  0  0  0  0  0  0  0  0
   -8.4878    3.1059    7.5129 C   0  0  0  0  0  0  0  0  0  0  0  0
   -9.9989    2.9268    7.5656 C   0  0  0  0  0  0  0  0  0  0  0  0
   -6.2162    2.2136    7.6952 C   0  0  0  0  0  0  0  0  0  0  0  0
   -5.4710    2.3297    6.5274 C   0  0  0  0  0  0  0  0  0  0  0  0
   -7.7659    1.6245   11.4898 C   0  0  0  0  0  0  0  0  0  0  0  0
   -6.8756    2.1218   12.4204 C   0  0  0  0  0  0  0  0  0  0  0  0
   -5.4802    2.8338   11.6556 S   0  0  0  0  0  0  0  0  0  0  0  0
   -6.9888    2.0852   13.8352 C   0  0  0  0  0  0  0  0  0  0  0  0
   -5.7358    2.7447   14.8560 S   0  0  0  0  0  0  0  0  0  0  0  0
   -6.6090    2.2787   16.2701 C   0  0  0  0  0  0  0  0  0  0  0  0
   -6.2330    2.4288   17.6277 C   0  0  0  0  0  0  0  0  0  0  0  0
   -7.0060    1.8188   18.5990 C   0  0  0  0  0  0  0  0  0  0  0  0
   -8.1024    1.0819   18.3393 O   0  0  0  0  0  0  0  0  0  0  0  0
   -8.7489    1.2121   17.0572 C   0  0  0  0  0  0  0  0  0  0  0  0
   -9.3484   -0.1728   16.7673 C   0  0  0  0  0  0  0  0  0  0  0  0
   -8.2739   -1.2215   16.5035 C   0  0  0  0  0  0  0  0  0  0  0  0
   -9.8387    2.3061   17.1744 C   0  0  0  0  0  0  0  0  0  0  0  0
  -10.8746    2.0262   18.2560 C   0  0  0  0  0  0  0  0  0  0  0  0
   -7.7981    1.6427   15.9659 C   0  0  0  0  0  0  0  0  0  0  0  0
   -8.0113    1.5436   14.5880 C   0  0  0  0  0  0  0  0  0  0  0  0
   -6.4854    1.9994   19.8998 C   0  0  0  0  0  0  0  0  0  0  0  0
   -5.3468    2.7433   19.8949 C   0  0  0  0  0  0  0  0  0  0  0  0
   -4.8717    3.2425   18.3191 S   0  0  0  0  0  0  0  0  0  0  0  0
    5.1204   -1.5729  -11.2635 H   0  0  0  0  0  0  0  0  0  0  0  0
    4.0315   -5.5244  -10.4618 H   0  0  0  0  0  0  0  0  0  0  0  0
    3.0885   -7.7118  -11.0176 H   0  0  0  0  0  0  0  0  0  0  0  0
    2.3897   -9.7286  -10.8354 H   0  0  0  0  0  0  0  0  0  0  0  0
    0.8428  -10.5770  -10.6367 H   0  0  0  0  0  0  0  0  0  0  0  0
    1.2677   -8.1717  -12.4901 H   0  0  0  0  0  0  0  0  0  0  0  0
    1.1616   -9.8626  -13.0025 H   0  0  0  0  0  0  0  0  0  0  0  0
   -0.2376   -9.0629  -12.2713 H   0  0  0  0  0  0  0  0  0  0  0  0
    0.8301   -4.8016   -7.7477 H   0  0  0  0  0  0  0  0  0  0  0  0
   -0.1130   -6.2930   -6.2880 H   0  0  0  0  0  0  0  0  0  0  0  0
   -1.3361   -5.5855   -7.3785 H   0  0  0  0  0  0  0  0  0  0  0  0
   -1.4926   -8.3470   -6.0691 H   0  0  0  0  0  0  0  0  0  0  0  0
   -2.6947   -7.6785   -7.1743 H   0  0  0  0  0  0  0  0  0  0  0  0
   -2.4303   -6.9204   -5.5945 H   0  0  0  0  0  0  0  0  0  0  0  0
    1.6875   -2.5185   -5.1701 H   0  0  0  0  0  0  0  0  0  0  0  0
    0.9377   -3.9401   -3.3196 H   0  0  0  0  0  0  0  0  0  0  0  0
    1.1780   -5.3705   -1.4975 H   0  0  0  0  0  0  0  0  0  0  0  0
   -0.2912   -5.7084   -2.4535 H   0  0  0  0  0  0  0  0  0  0  0  0
    1.2628   -7.7629   -0.8007 H   0  0  0  0  0  0  0  0  0  0  0  0
   -0.1864   -8.0989   -1.7467 H   0  0  0  0  0  0  0  0  0  0  0  0
   -0.2813   -7.0268   -0.3387 H   0  0  0  0  0  0  0  0  0  0  0  0
    3.1954   -7.9288   -7.0446 H   0  0  0  0  0  0  0  0  0  0  0  0
    3.2799   -9.3190   -5.9411 H   0  0  0  0  0  0  0  0  0  0  0  0
    5.3861   -7.0944   -6.0672 H   0  0  0  0  0  0  0  0  0  0  0  0
    5.4190   -8.5024   -5.0078 H   0  0  0  0  0  0  0  0  0  0  0  0
    5.5471   -8.7138   -6.7603 H   0  0  0  0  0  0  0  0  0  0  0  0
    3.6982   -5.8343   -6.9295 H   0  0  0  0  0  0  0  0  0  0  0  0
    9.4163    3.3539   -5.1507 H   0  0  0  0  0  0  0  0  0  0  0  0
   11.4806    3.3676   -6.4244 H   0  0  0  0  0  0  0  0  0  0  0  0
   13.4715    2.4690   -7.2669 H   0  0  0  0  0  0  0  0  0  0  0  0
   12.7242    3.6568   -8.3706 H   0  0  0  0  0  0  0  0  0  0  0  0
   14.9942    3.0115   -9.1685 H   0  0  0  0  0  0  0  0  0  0  0  0
   13.7517    2.4792  -10.3145 H   0  0  0  0  0  0  0  0  0  0  0  0
   14.4962    1.3115   -9.2235 H   0  0  0  0  0  0  0  0  0  0  0  0
    7.8985    0.2002   -7.5767 H   0  0  0  0  0  0  0  0  0  0  0  0
    8.1838   -0.0822   -9.8778 H   0  0  0  0  0  0  0  0  0  0  0  0
    8.7653   -1.4697   -8.9184 H   0  0  0  0  0  0  0  0  0  0  0  0
    8.7624   -2.0171  -11.3415 H   0  0  0  0  0  0  0  0  0  0  0  0
    9.8180   -0.6325  -11.6673 H   0  0  0  0  0  0  0  0  0  0  0  0
   10.4217   -1.9919  -10.7185 H   0  0  0  0  0  0  0  0  0  0  0  0
    9.1583    0.6743   -3.5187 H   0  0  0  0  0  0  0  0  0  0  0  0
   10.7755    1.1735   -1.7640 H   0  0  0  0  0  0  0  0  0  0  0  0
   12.3690    3.1547    0.8684 H   0  0  0  0  0  0  0  0  0  0  0  0
   12.2700    2.0320   -0.5028 H   0  0  0  0  0  0  0  0  0  0  0  0
   11.6928    0.8789    1.6320 H   0  0  0  0  0  0  0  0  0  0  0  0
   10.4198    2.0682    1.9436 H   0  0  0  0  0  0  0  0  0  0  0  0
   10.2610    0.9453    0.5931 H   0  0  0  0  0  0  0  0  0  0  0  0
    8.3763    7.0534   -0.5682 H   0  0  0  0  0  0  0  0  0  0  0  0
    7.2251    6.1218   -1.5459 H   0  0  0  0  0  0  0  0  0  0  0  0
    9.9816    7.0938   -2.4690 H   0  0  0  0  0  0  0  0  0  0  0  0
    8.8509    6.1774   -3.4678 H   0  0  0  0  0  0  0  0  0  0  0  0
    8.4309    7.8100   -2.9335 H   0  0  0  0  0  0  0  0  0  0  0  0
    7.2086    4.3959   -2.8300 H   0  0  0  0  0  0  0  0  0  0  0  0
    4.5163    5.6097   -0.0511 H   0  0  0  0  0  0  0  0  0  0  0  0
    5.8582    4.5158   -0.4113 H   0  0  0  0  0  0  0  0  0  0  0  0
    6.4115    6.3598    1.2467 H   0  0  0  0  0  0  0  0  0  0  0  0
    5.2743    5.6147    2.3738 H   0  0  0  0  0  0  0  0  0  0  0  0
    6.7294    4.7450    1.8679 H   0  0  0  0  0  0  0  0  0  0  0  0
    5.4255    2.8277    2.3627 H   0  0  0  0  0  0  0  0  0  0  0  0
    4.3397    1.6773    1.5879 H   0  0  0  0  0  0  0  0  0  0  0  0
    6.6630    1.0913    1.0895 H   0  0  0  0  0  0  0  0  0  0  0  0
    5.8726    1.5878   -0.4042 H   0  0  0  0  0  0  0  0  0  0  0  0
    6.9851    2.6847    0.4159 H   0  0  0  0  0  0  0  0  0  0  0  0
    5.0652    3.0999   -2.0100 H   0  0  0  0  0  0  0  0  0  0  0  0
    1.6960    4.3026    3.8911 H   0  0  0  0  0  0  0  0  0  0  0  0
   -5.6625    2.8906    0.1783 H   0  0  0  0  0  0  0  0  0  0  0  0
   -6.0687    2.3417   -2.1553 H   0  0  0  0  0  0  0  0  0  0  0  0
   -6.4682    1.1756   -3.9161 H   0  0  0  0  0  0  0  0  0  0  0  0
   -5.5629    0.5130   -5.2928 H   0  0  0  0  0  0  0  0  0  0  0  0
   -4.2609    2.6096   -5.4910 H   0  0  0  0  0  0  0  0  0  0  0  0
   -5.1220    3.3120   -4.1227 H   0  0  0  0  0  0  0  0  0  0  0  0
   -5.9949    2.9431   -5.6180 H   0  0  0  0  0  0  0  0  0  0  0  0
   -2.0303    0.6652    0.1182 H   0  0  0  0  0  0  0  0  0  0  0  0
   -0.5190    0.3421   -1.6322 H   0  0  0  0  0  0  0  0  0  0  0  0
   -1.2497   -1.1831   -1.0574 H   0  0  0  0  0  0  0  0  0  0  0  0
    0.6311   -1.5664   -2.6851 H   0  0  0  0  0  0  0  0  0  0  0  0
   -0.9154   -2.1908   -3.3036 H   0  0  0  0  0  0  0  0  0  0  0  0
   -0.2771   -0.6637   -3.9077 H   0  0  0  0  0  0  0  0  0  0  0  0
   -7.0839    2.5345    3.6209 H   0  0  0  0  0  0  0  0  0  0  0  0
   -9.2585    1.5759    3.0653 H   0  0  0  0  0  0  0  0  0  0  0  0
  -11.5666   -0.7948    1.4986 H   0  0  0  0  0  0  0  0  0  0  0  0
  -10.8505    0.1524    2.8182 H   0  0  0  0  0  0  0  0  0  0  0  0
  -12.3104    1.5800    1.3862 H   0  0  0  0  0  0  0  0  0  0  0  0
  -11.3703    1.1290   -0.0432 H   0  0  0  0  0  0  0  0  0  0  0  0
  -10.6304    2.1112    1.2200 H   0  0  0  0  0  0  0  0  0  0  0  0
   -5.6450   -2.2927    0.0364 H   0  0  0  0  0  0  0  0  0  0  0  0
   -5.8443   -0.8984   -1.0581 H   0  0  0  0  0  0  0  0  0  0  0  0
   -7.5842   -2.1660   -2.3270 H   0  0  0  0  0  0  0  0  0  0  0  0
   -6.0372   -3.0271   -2.3151 H   0  0  0  0  0  0  0  0  0  0  0  0
   -7.3617   -3.5507   -1.2576 H   0  0  0  0  0  0  0  0  0  0  0  0
   -5.1655   -0.2265    1.0042 H   0  0  0  0  0  0  0  0  0  0  0  0
   -8.2338    1.1222    5.8351 H   0  0  0  0  0  0  0  0  0  0  0  0
   -7.0454    0.1106    6.6481 H   0  0  0  0  0  0  0  0  0  0  0  0
   -8.7704   -0.7781    8.1694 H   0  0  0  0  0  0  0  0  0  0  0  0
   -9.1734   -1.0654    6.4746 H   0  0  0  0  0  0  0  0  0  0  0  0
  -10.0055    0.1974    7.3860 H   0  0  0  0  0  0  0  0  0  0  0  0
   -8.1863    3.4890    6.5363 H   0  0  0  0  0  0  0  0  0  0  0  0
   -8.1915    3.8436    8.2645 H   0  0  0  0  0  0  0  0  0  0  0  0
  -10.3517    2.3341    6.7261 H   0  0  0  0  0  0  0  0  0  0  0  0
  -10.4859    3.8987    7.5244 H   0  0  0  0  0  0  0  0  0  0  0  0
  -10.2855    2.4359    8.4922 H   0  0  0  0  0  0  0  0  0  0  0  0
   -5.8281    2.0806    5.5481 H   0  0  0  0  0  0  0  0  0  0  0  0
   -8.6900    1.1392   11.7400 H   0  0  0  0  0  0  0  0  0  0  0  0
   -9.9271   -0.4717   17.6409 H   0  0  0  0  0  0  0  0  0  0  0  0
  -10.0223   -0.0969   15.9136 H   0  0  0  0  0  0  0  0  0  0  0  0
   -8.7305   -2.1992   16.3717 H   0  0  0  0  0  0  0  0  0  0  0  0
   -7.7050   -0.9817   15.6083 H   0  0  0  0  0  0  0  0  0  0  0  0
   -7.5883   -1.2706   17.3460 H   0  0  0  0  0  0  0  0  0  0  0  0
  -10.3231    2.4153   16.2027 H   0  0  0  0  0  0  0  0  0  0  0  0
   -9.3289    3.2469   17.4008 H   0  0  0  0  0  0  0  0  0  0  0  0
  -11.4927    2.9070   18.4126 H   0  0  0  0  0  0  0  0  0  0  0  0
  -11.5221    1.2004   17.9747 H   0  0  0  0  0  0  0  0  0  0  0  0
  -10.3788    1.7794   19.1915 H   0  0  0  0  0  0  0  0  0  0  0  0
   -8.8784    1.0916   14.1439 H   0  0  0  0  0  0  0  0  0  0  0  0
   -6.9429    1.5907   20.7811 H   0  0  0  0  0  0  0  0  0  0  0  0
   -4.7513    3.0385   20.7352 H   0  0  0  0  0  0  0  0  0  0  0  0
  1  2  2  0  0  0  0
  2  3  1  0  0  0  0
  3  4  2  0  0  0  0
  4  5  1  0  0  0  0
  5  6  2  0  0  0  0
  6  7  1  0  0  0  0
  7  8  2  0  0  0  0
  8  9  1  0  0  0  0
  9 10  1  0  0  0  0
 10 11  1  0  0  0  0
  8 12  1  0  0  0  0
 12 13  2  0  0  0  0
 12 14  1  0  0  0  0
 14 15  1  0  0  0  0
 15 16  1  0  0  0  0
  4 17  1  0  0  0  0
 17 18  1  0  0  0  0
 18 19  2  0  0  0  0
 19 20  1  0  0  0  0
 20 21  2  0  0  0  0
 21 22  1  0  0  0  0
 22 23  1  0  0  0  0
 23 24  1  0  0  0  0
 21 25  1  0  0  0  0
 25 26  1  0  0  0  0
 26 27  1  0  0  0  0
 27 28  1  0  0  0  0
 25 29  2  0  0  0  0
 17 30  2  0  0  0  0
 30 31  1  0  0  0  0
 31 32  2  0  0  0  0
 32 33  1  0  0  0  0
 33 34  2  0  0  0  0
 34 35  1  0  0  0  0
 33 36  1  0  0  0  0
 32 37  1  0  0  0  0
 37 38  1  0  0  0  0
 38 39  2  0  0  0  0
 39 40  1  0  0  0  0
 40 41  1  0  0  0  0
 41 42  2  0  0  0  0
 42 43  1  0  0  0  0
 43 44  2  0  0  0  0
 44 45  1  0  0  0  0
 45 46  1  0  0  0  0
 46 47  1  0  0  0  0
 44 48  1  0  0  0  0
 48 49  2  0  0  0  0
 48 50  1  0  0  0  0
 50 51  1  0  0  0  0
 51 52  1  0  0  0  0
 40 53  2  0  0  0  0
 53 54  1  0  0  0  0
 54 55  2  0  0  0  0
 55 56  1  0  0  0  0
 56 57  2  0  0  0  0
 57 58  1  0  0  0  0
 58 59  1  0  0  0  0
 59 60  1  0  0  0  0
 57 61  1  0  0  0  0
 61 62  1  0  0  0  0
 62 63  1  0  0  0  0
 63 64  1  0  0  0  0
 61 65  2  0  0  0  0
 53 66  1  0  0  0  0
 66 67  2  0  0  0  0
 67 68  1  0  0  0  0
 68 69  2  0  0  0  0
 69 70  1  0  0  0  0
 70 71  1  0  0  0  0
 69 72  1  0  0  0  0
 68 73  1  0  0  0  0
 73 74  1  0  0  0  0
 74 75  1  0  0  0  0
 75 76  1  0  0  0  0
 76 77  2  0  0  0  0
 77 78  1  0  0  0  0
 78 79  1  0  0  0  0
 79 80  1  0  0  0  0
 80 81  1  0  0  0  0
 79 82  1  0  0  0  0
 82 83  1  0  0  0  0
 79 84  1  0  0  0  0
 84 85  1  0  0  0  0
 77 86  1  0  0  0  0
 86 87  2  0  0  0  0
 87 88  1  0  0  0  0
 87 89  1  0  0  0  0
 89 90  1  0  0  0  0
 90 91  2  0  0  0  0
 91 92  1  0  0  0  0
 92 93  1  0  0  0  0
 93 94  2  0  0  0  0
 94 95  1  0  0  0  0
 95 96  2  0  0  0  0
 96 97  1  0  0  0  0
 97 98  1  0  0  0  0
 98 99  1  0  0  0  0
 96100  1  0  0  0  0
100101  2  0  0  0  0
100102  1  0  0  0  0
102103  1  0  0  0  0
103104  1  0  0  0  0
 92105  2  0  0  0  0
105106  1  0  0  0  0
106107  2  0  0  0  0
107108  1  0  0  0  0
108109  2  0  0  0  0
109110  1  0  0  0  0
110111  1  0  0  0  0
111112  1  0  0  0  0
109113  1  0  0  0  0
113114  1  0  0  0  0
114115  1  0  0  0  0
115116  1  0  0  0  0
113117  2  0  0  0  0
105118  1  0  0  0  0
118119  2  0  0  0  0
119120  1  0  0  0  0
120121  2  0  0  0  0
121122  1  0  0  0  0
122123  1  0  0  0  0
121124  1  0  0  0  0
120125  1  0  0  0  0
125126  1  0  0  0  0
126127  1  0  0  0  0
127128  1  0  0  0  0
128129  2  0  0  0  0
129130  1  0  0  0  0
130131  1  0  0  0  0
131132  1  0  0  0  0
132133  1  0  0  0  0
131134  1  0  0  0  0
134135  1  0  0  0  0
131136  1  0  0  0  0
136137  1  0  0  0  0
129138  1  0  0  0  0
138139  2  0  0  0  0
139140  1  0  0  0  0
139141  1  0  0  0  0
141142  1  0  0  0  0
142143  1  0  0  0  0
143144  1  0  0  0  0
144145  2  0  0  0  0
145146  1  0  0  0  0
146147  1  0  0  0  0
147148  1  0  0  0  0
148149  1  0  0  0  0
147150  1  0  0  0  0
150151  1  0  0  0  0
147152  1  0  0  0  0
152153  1  0  0  0  0
145154  1  0  0  0  0
154155  2  0  0  0  0
155156  1  0  0  0  0
 34  1  1  0  0  0  0
 70 37  2  0  0  0  0
 85 73  2  0  0  0  0
122 89  2  0  0  0  0
137125  2  0  0  0  0
153141  2  0  0  0  0
 31  2  1  0  0  0  0
 67 38  1  0  0  0  0
 84 75  2  0  0  0  0
119 90  1  0  0  0  0
136127  2  0  0  0  0
152143  2  0  0  0  0
 13  5  1  0  0  0  0
 29 18  1  0  0  0  0
 49 41  1  0  0  0  0
 65 54  1  0  0  0  0
 88 76  1  0  0  0  0
101 93  1  0  0  0  0
117106  1  0  0  0  0
140128  1  0  0  0  0
156144  1  0  0  0  0
  1157  1  0  0  0  0
  6158  1  0  0  0  0
  7159  1  0  0  0  0
 10160  1  0  0  0  0
 10161  1  0  0  0  0
 11162  1  0  0  0  0
 11163  1  0  0  0  0
 11164  1  0  0  0  0
 13165  1  0  0  0  0
 15166  1  0  0  0  0
 15167  1  0  0  0  0
 16168  1  0  0  0  0
 16169  1  0  0  0  0
 16170  1  0  0  0  0
 19171  1  0  0  0  0
 20172  1  0  0  0  0
 23173  1  0  0  0  0
 23174  1  0  0  0  0
 24175  1  0  0  0  0
 24176  1  0  0  0  0
 24177  1  0  0  0  0
 27178  1  0  0  0  0
 27179  1  0  0  0  0
 28180  1  0  0  0  0
 28181  1  0  0  0  0
 28182  1  0  0  0  0
 29183  1  0  0  0  0
 42184  1  0  0  0  0
 43185  1  0  0  0  0
 46186  1  0  0  0  0
 46187  1  0  0  0  0
 47188  1  0  0  0  0
 47189  1  0  0  0  0
 47190  1  0  0  0  0
 49191  1  0  0  0  0
 51192  1  0  0  0  0
 51193  1  0  0  0  0
 52194  1  0  0  0  0
 52195  1  0  0  0  0
 52196  1  0  0  0  0
 55197  1  0  0  0  0
 56198  1  0  0  0  0
 59199  1  0  0  0  0
 59200  1  0  0  0  0
 60201  1  0  0  0  0
 60202  1  0  0  0  0
 60203  1  0  0  0  0
 63204  1  0  0  0  0
 63205  1  0  0  0  0
 64206  1  0  0  0  0
 64207  1  0  0  0  0
 64208  1  0  0  0  0
 65209  1  0  0  0  0
 80210  1  0  0  0  0
 80211  1  0  0  0  0
 81212  1  0  0  0  0
 81213  1  0  0  0  0
 81214  1  0  0  0  0
 82215  1  0  0  0  0
 82216  1  0  0  0  0
 83217  1  0  0  0  0
 83218  1  0  0  0  0
 83219  1  0  0  0  0
 85220  1  0  0  0  0
 86221  1  0  0  0  0
 94222  1  0  0  0  0
 95223  1  0  0  0  0
 98224  1  0  0  0  0
 98225  1  0  0  0  0
 99226  1  0  0  0  0
 99227  1  0  0  0  0
 99228  1  0  0  0  0
101229  1  0  0  0  0
103230  1  0  0  0  0
103231  1  0  0  0  0
104232  1  0  0  0  0
104233  1  0  0  0  0
104234  1  0  0  0  0
107235  1  0  0  0  0
108236  1  0  0  0  0
111237  1  0  0  0  0
111238  1  0  0  0  0
112239  1  0  0  0  0
112240  1  0  0  0  0
112241  1  0  0  0  0
115242  1  0  0  0  0
115243  1  0  0  0  0
116244  1  0  0  0  0
116245  1  0  0  0  0
116246  1  0  0  0  0
117247  1  0  0  0  0
132248  1  0  0  0  0
132249  1  0  0  0  0
133250  1  0  0  0  0
133251  1  0  0  0  0
133252  1  0  0  0  0
134253  1  0  0  0  0
134254  1  0  0  0  0
135255  1  0  0  0  0
135256  1  0  0  0  0
135257  1  0  0  0  0
137258  1  0  0  0  0
138259  1  0  0  0  0
148260  1  0  0  0  0
148261  1  0  0  0  0
149262  1  0  0  0  0
149263  1  0  0  0  0
149264  1  0  0  0  0
150265  1  0  0  0  0
150266  1  0  0  0  0
151267  1  0  0  0  0
151268  1  0  0  0  0
151269  1  0  0  0  0
153270  1  0  0  0  0
154271  1  0  0  0  0
155272  1  0  0  0  0
M  END
