
  xtb     03022207283D
 energy: -237.912603527210 gnorm: 0.000947128901 xtb: 6.4.1 (unknown)
105112  0     0  0            999 V2000
   -4.2617   -0.7686   -2.1546 C   0  0  0  0  0  0  0  0  0  0  0  0
   -4.2025    0.5946   -2.1634 C   0  0  0  0  0  0  0  0  0  0  0  0
   -3.0036    1.4279   -2.4443 C   0  0  0  0  0  0  0  0  0  0  0  0
   -3.1955    2.3112   -3.4336 F   0  0  0  0  0  0  0  0  0  0  0  0
   -2.6097    2.1569   -1.3746 F   0  0  0  0  0  0  0  0  0  0  0  0
   -1.9471    0.6791   -2.7898 F   0  0  0  0  0  0  0  0  0  0  0  0
   -5.7130    1.3458   -1.8121 S   0  0  0  0  0  0  0  0  0  0  0  0
   -6.4473   -0.2092   -1.6634 C   0  0  0  0  0  0  0  0  0  0  0  0
   -7.8076   -0.3326   -1.3740 C   0  0  0  0  0  0  0  0  0  0  0  0
   -8.9266   -0.4548   -1.1490 N   0  0  0  0  0  0  0  0  0  0  0  0
   -5.5579   -1.2592   -1.8671 C   0  0  0  0  0  0  0  0  0  0  0  0
   -6.0072   -2.6286   -1.9286 C   0  0  0  0  0  0  0  0  0  0  0  0
   -5.2940   -3.7659   -1.8279 C   0  0  0  0  0  0  0  0  0  0  0  0
   -3.9398   -3.9757   -1.4071 C   0  0  0  0  0  0  0  0  0  0  0  0
   -3.1609   -3.0305   -0.1605 S   0  0  0  0  0  0  0  0  0  0  0  0
   -1.7650   -4.0493   -0.2316 C   0  0  0  0  0  0  0  0  0  0  0  0
   -0.5483   -3.9143    0.4762 C   0  0  0  0  0  0  0  0  0  0  0  0
    0.5500   -4.6462    0.0518 C   0  0  0  0  0  0  0  0  0  0  0  0
    0.5125   -5.5516   -0.9303 O   0  0  0  0  0  0  0  0  0  0  0  0
   -0.7557   -6.0162   -1.4466 C   0  0  0  0  0  0  0  0  0  0  0  0
   -0.5475   -6.1512   -2.9706 C   0  0  0  0  0  0  0  0  0  0  0  0
    0.6337   -7.0356   -3.3522 C   0  0  0  0  0  0  0  0  0  0  0  0
   -1.0754   -7.3779   -0.7953 C   0  0  0  0  0  0  0  0  0  0  0  0
   -1.3651   -7.2834    0.6985 C   0  0  0  0  0  0  0  0  0  0  0  0
   -1.8800   -5.0406   -1.1876 C   0  0  0  0  0  0  0  0  0  0  0  0
   -3.1295   -5.0120   -1.8174 C   0  0  0  0  0  0  0  0  0  0  0  0
    1.7351   -4.2756    0.7114 C   0  0  0  0  0  0  0  0  0  0  0  0
    1.5476   -3.2820    1.6431 C   0  0  0  0  0  0  0  0  0  0  0  0
   -0.1391   -2.8446    1.7591 S   0  0  0  0  0  0  0  0  0  0  0  0
    2.5829   -2.5890    2.3758 C   0  0  0  0  0  0  0  0  0  0  0  0
    3.7338   -3.1935    2.8398 C   0  0  0  0  0  0  0  0  0  0  0  0
    4.0626   -4.6451    2.8742 C   0  0  0  0  0  0  0  0  0  0  0  0
    2.9879   -5.4158    3.1002 F   0  0  0  0  0  0  0  0  0  0  0  0
    4.6161   -5.0955    1.7315 F   0  0  0  0  0  0  0  0  0  0  0  0
    4.9442   -4.9272    3.8441 F   0  0  0  0  0  0  0  0  0  0  0  0
    4.8846   -2.0941    3.4984 S   0  0  0  0  0  0  0  0  0  0  0  0
    3.8108   -0.7778    3.2005 C   0  0  0  0  0  0  0  0  0  0  0  0
    4.2220    0.5342    3.4494 C   0  0  0  0  0  0  0  0  0  0  0  0
    4.5722    1.6144    3.6163 N   0  0  0  0  0  0  0  0  0  0  0  0
    2.6137   -1.1730    2.6250 C   0  0  0  0  0  0  0  0  0  0  0  0
    1.5079   -0.3173    2.3103 C   0  0  0  0  0  0  0  0  0  0  0  0
    1.2237    0.9017    2.7970 C   0  0  0  0  0  0  0  0  0  0  0  0
   -0.0870    1.4767    2.5951 C   0  0  0  0  0  0  0  0  0  0  0  0
   -0.6351    2.3585    3.5087 C   0  0  0  0  0  0  0  0  0  0  0  0
    0.0947    3.0476    4.6094 C   0  0  0  0  0  0  0  0  0  0  0  0
    1.1429    3.7521    4.1497 F   0  0  0  0  0  0  0  0  0  0  0  0
   -0.6906    3.9094    5.2666 F   0  0  0  0  0  0  0  0  0  0  0  0
    0.5839    2.1954    5.5270 F   0  0  0  0  0  0  0  0  0  0  0  0
   -2.3271    2.6001    3.3356 S   0  0  0  0  0  0  0  0  0  0  0  0
   -2.3319    1.5231    1.9808 C   0  0  0  0  0  0  0  0  0  0  0  0
   -3.5237    1.1837    1.3378 C   0  0  0  0  0  0  0  0  0  0  0  0
   -4.4998    0.8517    0.8345 N   0  0  0  0  0  0  0  0  0  0  0  0
   -1.0739    1.0491    1.6473 C   0  0  0  0  0  0  0  0  0  0  0  0
   -0.8929    0.3389    0.3887 C   0  0  0  0  0  0  0  0  0  0  0  0
    0.1135    0.5046   -0.4758 C   0  0  0  0  0  0  0  0  0  0  0  0
    1.2851    1.3516   -0.2598 C   0  0  0  0  0  0  0  0  0  0  0  0
    2.5738    0.8714   -0.3155 C   0  0  0  0  0  0  0  0  0  0  0  0
    3.0244   -0.4923   -0.7053 C   0  0  0  0  0  0  0  0  0  0  0  0
    3.4392   -0.5562   -1.9790 F   0  0  0  0  0  0  0  0  0  0  0  0
    4.0570   -0.9225    0.0448 F   0  0  0  0  0  0  0  0  0  0  0  0
    2.0647   -1.4234   -0.5815 F   0  0  0  0  0  0  0  0  0  0  0  0
    3.7709    2.0407    0.0853 S   0  0  0  0  0  0  0  0  0  0  0  0
    2.5373    3.2361    0.2716 C   0  0  0  0  0  0  0  0  0  0  0  0
    2.9016    4.5308    0.6493 C   0  0  0  0  0  0  0  0  0  0  0  0
    3.2174    5.5920    0.9507 N   0  0  0  0  0  0  0  0  0  0  0  0
    1.2631    2.7475    0.0361 C   0  0  0  0  0  0  0  0  0  0  0  0
    0.0525    3.5466    0.0100 C   0  0  0  0  0  0  0  0  0  0  0  0
   -0.0767    4.8024   -0.4278 C   0  0  0  0  0  0  0  0  0  0  0  0
    0.9221    5.6328   -1.0891 C   0  0  0  0  0  0  0  0  0  0  0  0
    1.5945    5.2858   -2.2380 C   0  0  0  0  0  0  0  0  0  0  0  0
    1.5028    4.0260   -3.0254 C   0  0  0  0  0  0  0  0  0  0  0  0
    0.3246    3.4004   -2.8996 F   0  0  0  0  0  0  0  0  0  0  0  0
    1.6855    4.2395   -4.3345 F   0  0  0  0  0  0  0  0  0  0  0  0
    2.4400    3.1152   -2.6707 F   0  0  0  0  0  0  0  0  0  0  0  0
    2.6130    6.5378   -2.8469 S   0  0  0  0  0  0  0  0  0  0  0  0
    2.1152    7.5727   -1.5563 C   0  0  0  0  0  0  0  0  0  0  0  0
    2.6103    8.8771   -1.4608 C   0  0  0  0  0  0  0  0  0  0  0  0
    2.9960    9.9546   -1.3872 N   0  0  0  0  0  0  0  0  0  0  0  0
    1.2176    6.9724   -0.6919 C   0  0  0  0  0  0  0  0  0  0  0  0
    0.7064    7.6602    0.4761 C   0  0  0  0  0  0  0  0  0  0  0  0
    0.2053    7.0745    1.5576 C   0  0  0  0  0  0  0  0  0  0  0  0
   -3.4208   -1.3946   -2.3900 H   0  0  0  0  0  0  0  0  0  0  0  0
   -7.0646   -2.7278   -2.1396 H   0  0  0  0  0  0  0  0  0  0  0  0
   -5.8087   -4.6868   -2.0776 H   0  0  0  0  0  0  0  0  0  0  0  0
   -1.4604   -6.5445   -3.4176 H   0  0  0  0  0  0  0  0  0  0  0  0
   -0.3812   -5.1464   -3.3663 H   0  0  0  0  0  0  0  0  0  0  0  0
    0.4352   -8.0792   -3.1243 H   0  0  0  0  0  0  0  0  0  0  0  0
    1.5253   -6.7218   -2.8177 H   0  0  0  0  0  0  0  0  0  0  0  0
    0.8208   -6.9511   -4.4199 H   0  0  0  0  0  0  0  0  0  0  0  0
   -0.2170   -8.0318   -0.9475 H   0  0  0  0  0  0  0  0  0  0  0  0
   -1.9367   -7.8070   -1.3102 H   0  0  0  0  0  0  0  0  0  0  0  0
   -2.2259   -6.6468    0.8931 H   0  0  0  0  0  0  0  0  0  0  0  0
   -0.5073   -6.8828    1.2343 H   0  0  0  0  0  0  0  0  0  0  0  0
   -1.5775   -8.2735    1.0937 H   0  0  0  0  0  0  0  0  0  0  0  0
   -3.4438   -5.7114   -2.5708 H   0  0  0  0  0  0  0  0  0  0  0  0
    2.6883   -4.6906    0.4466 H   0  0  0  0  0  0  0  0  0  0  0  0
    0.7750   -0.7682    1.6631 H   0  0  0  0  0  0  0  0  0  0  0  0
    1.8887    1.4111    3.4772 H   0  0  0  0  0  0  0  0  0  0  0  0
   -1.7211   -0.2987    0.1073 H   0  0  0  0  0  0  0  0  0  0  0  0
    0.1042   -0.0581   -1.3980 H   0  0  0  0  0  0  0  0  0  0  0  0
   -0.8422    3.0453    0.3416 H   0  0  0  0  0  0  0  0  0  0  0  0
   -1.0450    5.2793   -0.3377 H   0  0  0  0  0  0  0  0  0  0  0  0
    0.8027    8.7376    0.4393 H   0  0  0  0  0  0  0  0  0  0  0  0
    0.1544    6.0049    1.6637 H   0  0  0  0  0  0  0  0  0  0  0  0
   -0.1346    7.6584    2.3947 H   0  0  0  0  0  0  0  0  0  0  0  0
  1  2  2  0  0  0  0
  2  3  1  0  0  0  0
  3  4  1  0  0  0  0
  3  5  1  0  0  0  0
  3  6  1  0  0  0  0
  2  7  1  0  0  0  0
  7  8  1  0  0  0  0
  8  9  1  0  0  0  0
  9 10  3  0  0  0  0
  8 11  2  0  0  0  0
 11 12  1  0  0  0  0
 12 13  2  0  0  0  0
 13 14  1  0  0  0  0
 14 15  1  0  0  0  0
 15 16  1  0  0  0  0
 16 17  1  0  0  0  0
 17 18  2  0  0  0  0
 18 19  1  0  0  0  0
 19 20  1  0  0  0  0
 20 21  1  0  0  0  0
 21 22  1  0  0  0  0
 20 23  1  0  0  0  0
 23 24  1  0  0  0  0
 20 25  1  0  0  0  0
 25 26  1  0  0  0  0
 18 27  1  0  0  0  0
 27 28  2  0  0  0  0
 28 29  1  0  0  0  0
 28 30  1  0  0  0  0
 30 31  2  0  0  0  0
 31 32  1  0  0  0  0
 32 33  1  0  0  0  0
 32 34  1  0  0  0  0
 32 35  1  0  0  0  0
 31 36  1  0  0  0  0
 36 37  1  0  0  0  0
 37 38  1  0  0  0  0
 38 39  3  0  0  0  0
 37 40  2  0  0  0  0
 40 41  1  0  0  0  0
 41 42  2  0  0  0  0
 42 43  1  0  0  0  0
 43 44  2  0  0  0  0
 44 45  1  0  0  0  0
 45 46  1  0  0  0  0
 45 47  1  0  0  0  0
 45 48  1  0  0  0  0
 44 49  1  0  0  0  0
 49 50  1  0  0  0  0
 50 51  1  0  0  0  0
 51 52  3  0  0  0  0
 50 53  2  0  0  0  0
 53 54  1  0  0  0  0
 54 55  2  0  0  0  0
 55 56  1  0  0  0  0
 56 57  2  0  0  0  0
 57 58  1  0  0  0  0
 58 59  1  0  0  0  0
 58 60  1  0  0  0  0
 58 61  1  0  0  0  0
 57 62  1  0  0  0  0
 62 63  1  0  0  0  0
 63 64  1  0  0  0  0
 64 65  3  0  0  0  0
 63 66  2  0  0  0  0
 66 67  1  0  0  0  0
 67 68  2  0  0  0  0
 68 69  1  0  0  0  0
 69 70  2  0  0  0  0
 70 71  1  0  0  0  0
 71 72  1  0  0  0  0
 71 73  1  0  0  0  0
 71 74  1  0  0  0  0
 70 75  1  0  0  0  0
 75 76  1  0  0  0  0
 76 77  1  0  0  0  0
 77 78  3  0  0  0  0
 76 79  2  0  0  0  0
 79 80  1  0  0  0  0
 80 81  2  0  0  0  0
 11  1  1  0  0  0  0
 26 14  2  0  0  0  0
 40 30  1  0  0  0  0
 53 43  1  0  0  0  0
 66 56  1  0  0  0  0
 79 69  1  0  0  0  0
 25 16  2  0  0  0  0
 29 17  1  0  0  0  0
  1 82  1  0  0  0  0
 12 83  1  0  0  0  0
 13 84  1  0  0  0  0
 21 85  1  0  0  0  0
 21 86  1  0  0  0  0
 22 87  1  0  0  0  0
 22 88  1  0  0  0  0
 22 89  1  0  0  0  0
 23 90  1  0  0  0  0
 23 91  1  0  0  0  0
 24 92  1  0  0  0  0
 24 93  1  0  0  0  0
 24 94  1  0  0  0  0
 26 95  1  0  0  0  0
 27 96  1  0  0  0  0
 41 97  1  0  0  0  0
 42 98  1  0  0  0  0
 54 99  1  0  0  0  0
 55100  1  0  0  0  0
 67101  1  0  0  0  0
 68102  1  0  0  0  0
 80103  1  0  0  0  0
 81104  1  0  0  0  0
 81105  1  0  0  0  0
M  END
