
  xtb     03012222443D
 energy: -388.105537166392 gnorm: 0.000556302731 xtb: 6.4.1 (unknown)
212235  0     0  0            999 V2000
    6.1763   -3.9700   10.9379 C   0  0  0  0  0  0  0  0  0  0  0  0
    5.0943   -5.1029   10.2216 S   0  0  0  0  0  0  0  0  0  0  0  0
    4.2574   -3.8180    9.4219 C   0  0  0  0  0  0  0  0  0  0  0  0
    3.1517   -3.9004    8.5395 C   0  0  0  0  0  0  0  0  0  0  0  0
    2.7316   -2.7491    7.8923 C   0  0  0  0  0  0  0  0  0  0  0  0
    3.3249   -1.5478    8.0370 O   0  0  0  0  0  0  0  0  0  0  0  0
    4.1896   -1.3170    9.1698 C   0  0  0  0  0  0  0  0  0  0  0  0
    5.2669   -0.3446    8.6633 C   0  0  0  0  0  0  0  0  0  0  0  0
    6.1922   -1.0011    7.6444 C   0  0  0  0  0  0  0  0  0  0  0  0
    3.3393   -0.7110   10.3133 C   0  0  0  0  0  0  0  0  0  0  0  0
    2.5945    0.5587    9.9218 C   0  0  0  0  0  0  0  0  0  0  0  0
    4.8083   -2.5870    9.7005 C   0  0  0  0  0  0  0  0  0  0  0  0
    5.9065   -2.6865   10.5787 C   0  0  0  0  0  0  0  0  0  0  0  0
    1.6625   -2.9775    7.0131 C   0  0  0  0  0  0  0  0  0  0  0  0
    1.2622   -4.2956    6.9889 C   0  0  0  0  0  0  0  0  0  0  0  0
    2.2139   -5.2753    8.0751 S   0  0  0  0  0  0  0  0  0  0  0  0
    0.2435   -4.8864    6.1977 C   0  0  0  0  0  0  0  0  0  0  0  0
   -0.7643   -3.9013    5.1668 S   0  0  0  0  0  0  0  0  0  0  0  0
   -1.5828   -5.3106    4.5899 C   0  0  0  0  0  0  0  0  0  0  0  0
   -2.5284   -5.4005    3.5441 C   0  0  0  0  0  0  0  0  0  0  0  0
   -2.7848   -6.6503    2.9930 C   0  0  0  0  0  0  0  0  0  0  0  0
   -2.2582   -7.7926    3.4680 O   0  0  0  0  0  0  0  0  0  0  0  0
   -1.7223   -7.8035    4.8048 C   0  0  0  0  0  0  0  0  0  0  0  0
   -2.8833   -8.0231    5.8054 C   0  0  0  0  0  0  0  0  0  0  0  0
   -3.6643   -9.3145    5.6036 C   0  0  0  0  0  0  0  0  0  0  0  0
   -0.6517   -8.9165    4.8513 C   0  0  0  0  0  0  0  0  0  0  0  0
   -0.8704  -10.0565    3.8620 C   0  0  0  0  0  0  0  0  0  0  0  0
   -1.0978   -6.4725    5.1632 C   0  0  0  0  0  0  0  0  0  0  0  0
   -0.0741   -6.2240    6.0815 C   0  0  0  0  0  0  0  0  0  0  0  0
   -3.5662   -6.5806    1.8291 C   0  0  0  0  0  0  0  0  0  0  0  0
   -3.9328   -5.2929    1.5123 C   0  0  0  0  0  0  0  0  0  0  0  0
   -3.3157   -4.1396    2.6697 S   0  0  0  0  0  0  0  0  0  0  0  0
   -4.5796   -4.7909    0.3487 C   0  0  0  0  0  0  0  0  0  0  0  0
   -5.0324   -3.5168    0.1671 C   0  0  0  0  0  0  0  0  0  0  0  0
   -5.3470   -3.2123   -1.1765 C   0  0  0  0  0  0  0  0  0  0  0  0
   -5.7103   -1.9654   -1.7100 C   0  0  0  0  0  0  0  0  0  0  0  0
   -5.8103   -0.7763   -0.8793 C   0  0  0  0  0  0  0  0  0  0  0  0
   -7.2037    0.2604   -0.9499 S   0  0  0  0  0  0  0  0  0  0  0  0
   -6.5291    1.3772    0.1895 C   0  0  0  0  0  0  0  0  0  0  0  0
   -7.2437    2.6330    0.5477 C   0  0  0  0  0  0  0  0  0  0  0  0
   -7.3278    3.5727   -0.6573 C   0  0  0  0  0  0  0  0  0  0  0  0
   -5.2991    0.9528    0.5916 C   0  0  0  0  0  0  0  0  0  0  0  0
   -4.3184    1.7778    1.7289 Cl  0  0  0  0  0  0  0  0  0  0  0  0
   -4.8817   -0.2611   -0.0178 C   0  0  0  0  0  0  0  0  0  0  0  0
   -3.3128   -0.9145    0.2352 Cl  0  0  0  0  0  0  0  0  0  0  0  0
   -5.8353   -1.8872   -3.0896 C   0  0  0  0  0  0  0  0  0  0  0  0
   -5.6016   -2.9828   -3.9546 C   0  0  0  0  0  0  0  0  0  0  0  0
   -5.3354   -4.2562   -3.4107 C   0  0  0  0  0  0  0  0  0  0  0  0
   -5.1939   -5.4119   -4.2752 C   0  0  0  0  0  0  0  0  0  0  0  0
   -3.8761   -6.5352   -4.1180 S   0  0  0  0  0  0  0  0  0  0  0  0
   -4.4460   -7.5088   -5.4300 C   0  0  0  0  0  0  0  0  0  0  0  0
   -3.7438   -8.7621   -5.8203 C   0  0  0  0  0  0  0  0  0  0  0  0
   -4.1851   -9.9302   -4.9350 C   0  0  0  0  0  0  0  0  0  0  0  0
   -5.5987   -6.9901   -5.9408 C   0  0  0  0  0  0  0  0  0  0  0  0
   -6.0218   -5.7983   -5.2955 C   0  0  0  0  0  0  0  0  0  0  0  0
   -7.4759   -4.9902   -5.7175 Cl  0  0  0  0  0  0  0  0  0  0  0  0
   -6.4696   -7.6918   -7.2427 Cl  0  0  0  0  0  0  0  0  0  0  0  0
   -5.1743   -4.3291   -2.0322 C   0  0  0  0  0  0  0  0  0  0  0  0
   -4.6537   -5.7311   -1.1325 S   0  0  0  0  0  0  0  0  0  0  0  0
   -5.4754   -2.5672   -5.3074 C   0  0  0  0  0  0  0  0  0  0  0  0
   -5.6249   -1.2231   -5.4761 C   0  0  0  0  0  0  0  0  0  0  0  0
   -6.0400   -0.4082   -3.9752 S   0  0  0  0  0  0  0  0  0  0  0  0
   -5.1645   -0.3701   -6.5324 C   0  0  0  0  0  0  0  0  0  0  0  0
   -4.0453   -0.5740   -7.2882 C   0  0  0  0  0  0  0  0  0  0  0  0
   -3.4546    0.6303   -7.7522 C   0  0  0  0  0  0  0  0  0  0  0  0
   -2.1299    0.7924   -8.2163 C   0  0  0  0  0  0  0  0  0  0  0  0
   -1.4097   -0.3301   -8.7719 C   0  0  0  0  0  0  0  0  0  0  0  0
    0.2735   -0.6305   -8.4505 S   0  0  0  0  0  0  0  0  0  0  0  0
    0.2961   -2.0410   -9.4518 C   0  0  0  0  0  0  0  0  0  0  0  0
    1.5517   -2.8100   -9.6694 C   0  0  0  0  0  0  0  0  0  0  0  0
    2.4011   -2.1631  -10.7663 C   0  0  0  0  0  0  0  0  0  0  0  0
   -0.9308   -2.2474  -10.0103 C   0  0  0  0  0  0  0  0  0  0  0  0
   -1.2901   -3.5418  -11.0791 Cl  0  0  0  0  0  0  0  0  0  0  0  0
   -1.9010   -1.2872   -9.6252 C   0  0  0  0  0  0  0  0  0  0  0  0
   -3.4953   -1.3004  -10.2595 Cl  0  0  0  0  0  0  0  0  0  0  0  0
   -1.5548    2.0384   -7.9809 C   0  0  0  0  0  0  0  0  0  0  0  0
   -2.3033    3.1591   -7.5408 C   0  0  0  0  0  0  0  0  0  0  0  0
   -3.6858    3.0453   -7.3311 C   0  0  0  0  0  0  0  0  0  0  0  0
   -4.5076    4.1546   -6.8546 C   0  0  0  0  0  0  0  0  0  0  0  0
   -5.7845    4.8177   -7.8259 S   0  0  0  0  0  0  0  0  0  0  0  0
   -6.2680    5.9149   -6.5769 C   0  0  0  0  0  0  0  0  0  0  0  0
   -7.4395    6.8172   -6.7508 C   0  0  0  0  0  0  0  0  0  0  0  0
   -8.7383    6.0979   -6.3781 C   0  0  0  0  0  0  0  0  0  0  0  0
   -5.4847    5.7531   -5.4742 C   0  0  0  0  0  0  0  0  0  0  0  0
   -4.4828    4.7583   -5.6317 C   0  0  0  0  0  0  0  0  0  0  0  0
   -3.3990    4.3285   -4.3769 Cl  0  0  0  0  0  0  0  0  0  0  0  0
   -5.6696    6.6456   -4.0203 Cl  0  0  0  0  0  0  0  0  0  0  0  0
   -4.2059    1.7616   -7.3610 C   0  0  0  0  0  0  0  0  0  0  0  0
   -5.6857    1.3040   -6.5617 S   0  0  0  0  0  0  0  0  0  0  0  0
   -1.4731    4.2088   -7.0749 C   0  0  0  0  0  0  0  0  0  0  0  0
   -0.1504    3.8773   -7.0528 C   0  0  0  0  0  0  0  0  0  0  0  0
    0.1579    2.3644   -7.8992 S   0  0  0  0  0  0  0  0  0  0  0  0
    0.7759    4.3180   -6.0469 C   0  0  0  0  0  0  0  0  0  0  0  0
    0.3271    4.5516   -4.7790 C   0  0  0  0  0  0  0  0  0  0  0  0
    1.3410    4.4976   -3.8001 C   0  0  0  0  0  0  0  0  0  0  0  0
    1.1510    4.3976   -2.4135 C   0  0  0  0  0  0  0  0  0  0  0  0
   -0.1946    4.2920   -1.8644 C   0  0  0  0  0  0  0  0  0  0  0  0
   -0.8152    5.3683   -0.6539 S   0  0  0  0  0  0  0  0  0  0  0  0
   -2.3417    4.5475   -0.5938 C   0  0  0  0  0  0  0  0  0  0  0  0
   -3.4320    5.0158    0.3055 C   0  0  0  0  0  0  0  0  0  0  0  0
   -2.9510    5.1792    1.7451 C   0  0  0  0  0  0  0  0  0  0  0  0
   -2.3455    3.4951   -1.4589 C   0  0  0  0  0  0  0  0  0  0  0  0
   -3.6695    2.4270   -1.6878 Cl  0  0  0  0  0  0  0  0  0  0  0  0
   -1.1319    3.3494   -2.1835 C   0  0  0  0  0  0  0  0  0  0  0  0
   -0.8788    2.0738   -3.3079 Cl  0  0  0  0  0  0  0  0  0  0  0  0
    2.2860    4.2324   -1.6408 C   0  0  0  0  0  0  0  0  0  0  0  0
    3.5910    4.1454   -2.1894 C   0  0  0  0  0  0  0  0  0  0  0  0
    3.7708    4.2074   -3.5864 C   0  0  0  0  0  0  0  0  0  0  0  0
    5.0807    4.0647   -4.1971 C   0  0  0  0  0  0  0  0  0  0  0  0
    6.1445    2.7473   -3.7982 S   0  0  0  0  0  0  0  0  0  0  0  0
    7.3496    3.2719   -4.9237 C   0  0  0  0  0  0  0  0  0  0  0  0
    8.6472    2.5538   -5.0535 C   0  0  0  0  0  0  0  0  0  0  0  0
    9.6186    2.9757   -3.9485 C   0  0  0  0  0  0  0  0  0  0  0  0
    6.9421    4.4081   -5.5559 C   0  0  0  0  0  0  0  0  0  0  0  0
    5.6550    4.8554   -5.1544 C   0  0  0  0  0  0  0  0  0  0  0  0
    4.9551    6.2962   -5.7630 Cl  0  0  0  0  0  0  0  0  0  0  0  0
    7.8760    5.2358   -6.7336 Cl  0  0  0  0  0  0  0  0  0  0  0  0
    2.6278    4.3482   -4.3677 C   0  0  0  0  0  0  0  0  0  0  0  0
    2.5187    4.1782   -6.1047 S   0  0  0  0  0  0  0  0  0  0  0  0
    4.5596    3.9036   -1.1828 C   0  0  0  0  0  0  0  0  0  0  0  0
    4.0292    3.7624    0.0678 C   0  0  0  0  0  0  0  0  0  0  0  0
    2.2881    3.9808    0.0783 S   0  0  0  0  0  0  0  0  0  0  0  0
    4.6777    3.4137    1.2834 C   0  0  0  0  0  0  0  0  0  0  0  0
    6.3979    3.1357    1.3655 S   0  0  0  0  0  0  0  0  0  0  0  0
    6.2647    2.6950    3.0310 C   0  0  0  0  0  0  0  0  0  0  0  0
    7.3024    2.3698    3.9401 C   0  0  0  0  0  0  0  0  0  0  0  0
    6.9964    2.3028    5.2884 C   0  0  0  0  0  0  0  0  0  0  0  0
    5.7625    2.4976    5.7883 O   0  0  0  0  0  0  0  0  0  0  0  0
    4.6303    2.3318    4.9030 C   0  0  0  0  0  0  0  0  0  0  0  0
    4.2847    0.8244    4.8994 C   0  0  0  0  0  0  0  0  0  0  0  0
    3.0388    0.4518    4.1090 C   0  0  0  0  0  0  0  0  0  0  0  0
    3.5219    3.2199    5.4903 C   0  0  0  0  0  0  0  0  0  0  0  0
    3.1770    2.8848    6.9358 C   0  0  0  0  0  0  0  0  0  0  0  0
    4.9632    2.7666    3.4947 C   0  0  0  0  0  0  0  0  0  0  0  0
    4.0734    3.1806    2.4995 C   0  0  0  0  0  0  0  0  0  0  0  0
    8.1355    2.0702    6.0912 C   0  0  0  0  0  0  0  0  0  0  0  0
    9.2681    1.9485    5.3477 C   0  0  0  0  0  0  0  0  0  0  0  0
    8.9906    2.1184    3.6595 S   0  0  0  0  0  0  0  0  0  0  0  0
    6.9485   -4.3272   11.5888 H   0  0  0  0  0  0  0  0  0  0  0  0
    5.8406    0.0255    9.5133 H   0  0  0  0  0  0  0  0  0  0  0  0
    4.7641    0.5008    8.1954 H   0  0  0  0  0  0  0  0  0  0  0  0
    5.6068   -1.4510    6.8458 H   0  0  0  0  0  0  0  0  0  0  0  0
    6.8563   -0.2597    7.2072 H   0  0  0  0  0  0  0  0  0  0  0  0
    6.7954   -1.7785    8.1080 H   0  0  0  0  0  0  0  0  0  0  0  0
    2.6139   -1.4723   10.6151 H   0  0  0  0  0  0  0  0  0  0  0  0
    3.9943   -0.5196   11.1648 H   0  0  0  0  0  0  0  0  0  0  0  0
    3.2811    1.3851    9.7623 H   0  0  0  0  0  0  0  0  0  0  0  0
    1.9010    0.8377   10.7113 H   0  0  0  0  0  0  0  0  0  0  0  0
    2.0287    0.3916    9.0088 H   0  0  0  0  0  0  0  0  0  0  0  0
    6.4743   -1.8452   10.9325 H   0  0  0  0  0  0  0  0  0  0  0  0
    1.2084   -2.2118    6.4114 H   0  0  0  0  0  0  0  0  0  0  0  0
   -3.5656   -7.1749    5.6950 H   0  0  0  0  0  0  0  0  0  0  0  0
   -2.4699   -7.9855    6.8152 H   0  0  0  0  0  0  0  0  0  0  0  0
   -3.0667  -10.1798    5.8764 H   0  0  0  0  0  0  0  0  0  0  0  0
   -3.9733   -9.4080    4.5655 H   0  0  0  0  0  0  0  0  0  0  0  0
   -4.5540   -9.3057    6.2294 H   0  0  0  0  0  0  0  0  0  0  0  0
    0.3167   -8.4629    4.6274 H   0  0  0  0  0  0  0  0  0  0  0  0
   -0.6108   -9.3083    5.8684 H   0  0  0  0  0  0  0  0  0  0  0  0
   -1.8149  -10.5616    4.0313 H   0  0  0  0  0  0  0  0  0  0  0  0
   -0.8650   -9.6779    2.8442 H   0  0  0  0  0  0  0  0  0  0  0  0
   -0.0649  -10.7799    3.9678 H   0  0  0  0  0  0  0  0  0  0  0  0
    0.4369   -6.9814    6.6480 H   0  0  0  0  0  0  0  0  0  0  0  0
   -3.8343   -7.4348    1.2352 H   0  0  0  0  0  0  0  0  0  0  0  0
   -5.1045   -2.8116    0.9743 H   0  0  0  0  0  0  0  0  0  0  0  0
   -8.2536    2.3969    0.8910 H   0  0  0  0  0  0  0  0  0  0  0  0
   -6.7047    3.1169    1.3644 H   0  0  0  0  0  0  0  0  0  0  0  0
   -7.8125    4.5034   -0.3745 H   0  0  0  0  0  0  0  0  0  0  0  0
   -7.9000    3.1072   -1.4563 H   0  0  0  0  0  0  0  0  0  0  0  0
   -6.3334    3.7972   -1.0354 H   0  0  0  0  0  0  0  0  0  0  0  0
   -3.9757   -8.9845   -6.8634 H   0  0  0  0  0  0  0  0  0  0  0  0
   -2.6663   -8.6196   -5.7225 H   0  0  0  0  0  0  0  0  0  0  0  0
   -3.6647  -10.8381   -5.2277 H   0  0  0  0  0  0  0  0  0  0  0  0
   -5.2551  -10.0941   -5.0338 H   0  0  0  0  0  0  0  0  0  0  0  0
   -3.9604   -9.7176   -3.8925 H   0  0  0  0  0  0  0  0  0  0  0  0
   -5.2157   -3.2330   -6.1099 H   0  0  0  0  0  0  0  0  0  0  0  0
   -3.5646   -1.5324   -7.3649 H   0  0  0  0  0  0  0  0  0  0  0  0
    1.2934   -3.8302   -9.9590 H   0  0  0  0  0  0  0  0  0  0  0  0
    2.1231   -2.8418   -8.7402 H   0  0  0  0  0  0  0  0  0  0  0  0
    3.3146   -2.7323  -10.9156 H   0  0  0  0  0  0  0  0  0  0  0  0
    2.6639   -1.1455  -10.4873 H   0  0  0  0  0  0  0  0  0  0  0  0
    1.8501   -2.1360  -11.7029 H   0  0  0  0  0  0  0  0  0  0  0  0
   -7.4920    7.1487   -7.7891 H   0  0  0  0  0  0  0  0  0  0  0  0
   -7.3081    7.6911   -6.1098 H   0  0  0  0  0  0  0  0  0  0  0  0
   -9.5857    6.7654   -6.5090 H   0  0  0  0  0  0  0  0  0  0  0  0
   -8.8797    5.2242   -7.0095 H   0  0  0  0  0  0  0  0  0  0  0  0
   -8.7051    5.7743   -5.3408 H   0  0  0  0  0  0  0  0  0  0  0  0
   -1.8577    5.1193   -6.6544 H   0  0  0  0  0  0  0  0  0  0  0  0
   -0.7132    4.6638   -4.5405 H   0  0  0  0  0  0  0  0  0  0  0  0
   -3.8125    5.9747   -0.0592 H   0  0  0  0  0  0  0  0  0  0  0  0
   -4.2443    4.2888    0.2636 H   0  0  0  0  0  0  0  0  0  0  0  0
   -2.5850    4.2308    2.1300 H   0  0  0  0  0  0  0  0  0  0  0  0
   -3.7689    5.5169    2.3760 H   0  0  0  0  0  0  0  0  0  0  0  0
   -2.1452    5.9080    1.7949 H   0  0  0  0  0  0  0  0  0  0  0  0
    8.4746    1.4777   -4.9927 H   0  0  0  0  0  0  0  0  0  0  0  0
    9.0779    2.7854   -6.0292 H   0  0  0  0  0  0  0  0  0  0  0  0
   10.5616    2.4471   -4.0584 H   0  0  0  0  0  0  0  0  0  0  0  0
    9.8097    4.0444   -4.0031 H   0  0  0  0  0  0  0  0  0  0  0  0
    9.2010    2.7461   -2.9710 H   0  0  0  0  0  0  0  0  0  0  0  0
    5.6136    3.8095   -1.3715 H   0  0  0  0  0  0  0  0  0  0  0  0
    5.1480    0.2977    4.4815 H   0  0  0  0  0  0  0  0  0  0  0  0
    4.1722    0.4991    5.9335 H   0  0  0  0  0  0  0  0  0  0  0  0
    3.1222    0.7695    3.0723 H   0  0  0  0  0  0  0  0  0  0  0  0
    2.1492    0.9017    4.5416 H   0  0  0  0  0  0  0  0  0  0  0  0
    2.9123   -0.6283    4.1253 H   0  0  0  0  0  0  0  0  0  0  0  0
    3.8718    4.2534    5.4353 H   0  0  0  0  0  0  0  0  0  0  0  0
    2.6322    3.1324    4.8689 H   0  0  0  0  0  0  0  0  0  0  0  0
    2.4670    3.6123    7.3222 H   0  0  0  0  0  0  0  0  0  0  0  0
    4.0737    2.9163    7.5485 H   0  0  0  0  0  0  0  0  0  0  0  0
    2.7292    1.8980    7.0121 H   0  0  0  0  0  0  0  0  0  0  0  0
    3.0143    3.3050    2.6345 H   0  0  0  0  0  0  0  0  0  0  0  0
    8.1015    2.0080    7.1629 H   0  0  0  0  0  0  0  0  0  0  0  0
   10.2640    1.7591    5.6943 H   0  0  0  0  0  0  0  0  0  0  0  0
  1  2  1  0  0  0  0
  2  3  1  0  0  0  0
  3  4  1  0  0  0  0
  4  5  2  0  0  0  0
  5  6  1  0  0  0  0
  6  7  1  0  0  0  0
  7  8  1  0  0  0  0
  8  9  1  0  0  0  0
  7 10  1  0  0  0  0
 10 11  1  0  0  0  0
  7 12  1  0  0  0  0
 12 13  1  0  0  0  0
  5 14  1  0  0  0  0
 14 15  2  0  0  0  0
 15 16  1  0  0  0  0
 15 17  1  0  0  0  0
 17 18  1  0  0  0  0
 18 19  1  0  0  0  0
 19 20  1  0  0  0  0
 20 21  2  0  0  0  0
 21 22  1  0  0  0  0
 22 23  1  0  0  0  0
 23 24  1  0  0  0  0
 24 25  1  0  0  0  0
 23 26  1  0  0  0  0
 26 27  1  0  0  0  0
 23 28  1  0  0  0  0
 28 29  1  0  0  0  0
 21 30  1  0  0  0  0
 30 31  2  0  0  0  0
 31 32  1  0  0  0  0
 31 33  1  0  0  0  0
 33 34  2  0  0  0  0
 34 35  1  0  0  0  0
 35 36  2  0  0  0  0
 36 37  1  0  0  0  0
 37 38  1  0  0  0  0
 38 39  1  0  0  0  0
 39 40  1  0  0  0  0
 40 41  1  0  0  0  0
 39 42  2  0  0  0  0
 42 43  1  0  0  0  0
 42 44  1  0  0  0  0
 44 45  1  0  0  0  0
 36 46  1  0  0  0  0
 46 47  2  0  0  0  0
 47 48  1  0  0  0  0
 48 49  1  0  0  0  0
 49 50  1  0  0  0  0
 50 51  1  0  0  0  0
 51 52  1  0  0  0  0
 52 53  1  0  0  0  0
 51 54  2  0  0  0  0
 54 55  1  0  0  0  0
 55 56  1  0  0  0  0
 54 57  1  0  0  0  0
 48 58  2  0  0  0  0
 58 59  1  0  0  0  0
 47 60  1  0  0  0  0
 60 61  2  0  0  0  0
 61 62  1  0  0  0  0
 61 63  1  0  0  0  0
 63 64  2  0  0  0  0
 64 65  1  0  0  0  0
 65 66  2  0  0  0  0
 66 67  1  0  0  0  0
 67 68  1  0  0  0  0
 68 69  1  0  0  0  0
 69 70  1  0  0  0  0
 70 71  1  0  0  0  0
 69 72  2  0  0  0  0
 72 73  1  0  0  0  0
 72 74  1  0  0  0  0
 74 75  1  0  0  0  0
 66 76  1  0  0  0  0
 76 77  2  0  0  0  0
 77 78  1  0  0  0  0
 78 79  1  0  0  0  0
 79 80  1  0  0  0  0
 80 81  1  0  0  0  0
 81 82  1  0  0  0  0
 82 83  1  0  0  0  0
 81 84  2  0  0  0  0
 84 85  1  0  0  0  0
 85 86  1  0  0  0  0
 84 87  1  0  0  0  0
 78 88  2  0  0  0  0
 88 89  1  0  0  0  0
 77 90  1  0  0  0  0
 90 91  2  0  0  0  0
 91 92  1  0  0  0  0
 91 93  1  0  0  0  0
 93 94  2  0  0  0  0
 94 95  1  0  0  0  0
 95 96  2  0  0  0  0
 96 97  1  0  0  0  0
 97 98  1  0  0  0  0
 98 99  1  0  0  0  0
 99100  1  0  0  0  0
100101  1  0  0  0  0
 99102  2  0  0  0  0
102103  1  0  0  0  0
102104  1  0  0  0  0
104105  1  0  0  0  0
 96106  1  0  0  0  0
106107  2  0  0  0  0
107108  1  0  0  0  0
108109  1  0  0  0  0
109110  1  0  0  0  0
110111  1  0  0  0  0
111112  1  0  0  0  0
112113  1  0  0  0  0
111114  2  0  0  0  0
114115  1  0  0  0  0
115116  1  0  0  0  0
114117  1  0  0  0  0
108118  2  0  0  0  0
118119  1  0  0  0  0
107120  1  0  0  0  0
120121  2  0  0  0  0
121122  1  0  0  0  0
121123  1  0  0  0  0
123124  1  0  0  0  0
124125  1  0  0  0  0
125126  1  0  0  0  0
126127  2  0  0  0  0
127128  1  0  0  0  0
128129  1  0  0  0  0
129130  1  0  0  0  0
130131  1  0  0  0  0
129132  1  0  0  0  0
132133  1  0  0  0  0
129134  1  0  0  0  0
134135  1  0  0  0  0
127136  1  0  0  0  0
136137  2  0  0  0  0
137138  1  0  0  0  0
 13  1  2  0  0  0  0
 29 17  2  0  0  0  0
 59 33  1  0  0  0  0
 89 63  1  0  0  0  0
119 93  1  0  0  0  0
135123  2  0  0  0  0
 12  3  2  0  0  0  0
 28 19  2  0  0  0  0
 58 35  1  0  0  0  0
 88 65  1  0  0  0  0
118 95  1  0  0  0  0
134125  2  0  0  0  0
 16  4  1  0  0  0  0
 32 20  1  0  0  0  0
 44 37  2  0  0  0  0
 62 46  1  0  0  0  0
 74 67  2  0  0  0  0
 92 76  1  0  0  0  0
104 97  2  0  0  0  0
122106  1  0  0  0  0
138126  1  0  0  0  0
 55 49  2  0  0  0  0
 85 79  2  0  0  0  0
115109  2  0  0  0  0
  1139  1  0  0  0  0
  8140  1  0  0  0  0
  8141  1  0  0  0  0
  9142  1  0  0  0  0
  9143  1  0  0  0  0
  9144  1  0  0  0  0
 10145  1  0  0  0  0
 10146  1  0  0  0  0
 11147  1  0  0  0  0
 11148  1  0  0  0  0
 11149  1  0  0  0  0
 13150  1  0  0  0  0
 14151  1  0  0  0  0
 24152  1  0  0  0  0
 24153  1  0  0  0  0
 25154  1  0  0  0  0
 25155  1  0  0  0  0
 25156  1  0  0  0  0
 26157  1  0  0  0  0
 26158  1  0  0  0  0
 27159  1  0  0  0  0
 27160  1  0  0  0  0
 27161  1  0  0  0  0
 29162  1  0  0  0  0
 30163  1  0  0  0  0
 34164  1  0  0  0  0
 40165  1  0  0  0  0
 40166  1  0  0  0  0
 41167  1  0  0  0  0
 41168  1  0  0  0  0
 41169  1  0  0  0  0
 52170  1  0  0  0  0
 52171  1  0  0  0  0
 53172  1  0  0  0  0
 53173  1  0  0  0  0
 53174  1  0  0  0  0
 60175  1  0  0  0  0
 64176  1  0  0  0  0
 70177  1  0  0  0  0
 70178  1  0  0  0  0
 71179  1  0  0  0  0
 71180  1  0  0  0  0
 71181  1  0  0  0  0
 82182  1  0  0  0  0
 82183  1  0  0  0  0
 83184  1  0  0  0  0
 83185  1  0  0  0  0
 83186  1  0  0  0  0
 90187  1  0  0  0  0
 94188  1  0  0  0  0
100189  1  0  0  0  0
100190  1  0  0  0  0
101191  1  0  0  0  0
101192  1  0  0  0  0
101193  1  0  0  0  0
112194  1  0  0  0  0
112195  1  0  0  0  0
113196  1  0  0  0  0
113197  1  0  0  0  0
113198  1  0  0  0  0
120199  1  0  0  0  0
130200  1  0  0  0  0
130201  1  0  0  0  0
131202  1  0  0  0  0
131203  1  0  0  0  0
131204  1  0  0  0  0
132205  1  0  0  0  0
132206  1  0  0  0  0
133207  1  0  0  0  0
133208  1  0  0  0  0
133209  1  0  0  0  0
135210  1  0  0  0  0
136211  1  0  0  0  0
137212  1  0  0  0  0
M  END
