226

C          1.45730       -3.62820        9.95740
C          0.12340       -3.45170       10.04400
C         -0.54380       -3.67220        8.80420
C         -1.91720       -3.58340        8.52550
C         -2.88100       -3.19340        9.54130
S         -2.69120       -1.72240       10.44840
C         -4.16390       -1.97700       11.32060
C         -4.65650       -0.98040       12.31090
C         -5.42980        0.14370       11.61740
C         -4.76030       -3.13290       10.91410
Cl        -6.23920       -3.72290       11.55440
C         -4.03650       -3.82560        9.90680
Cl        -4.54140       -5.34200        9.28700
C         -2.31200       -3.82760        7.21710
C         -1.40420       -4.17860        6.18750
C         -0.03490       -4.31440        6.47740
C          0.92290       -4.68880        5.45510
S          2.40950       -3.80690        5.25990
C          2.91800       -4.79530        3.93640
C          4.19100       -4.52070        3.21500
C          3.95690       -3.60100        2.01410
C          1.98470       -5.75460        3.67630
C          0.85670       -5.70360        4.53790
Cl        -0.39500       -6.87730        4.47420
Cl         2.14550       -6.93090        2.43680
C          0.36270       -4.03140        7.78050
S          1.99610       -4.08430        8.37960
C         -2.04160       -4.23420        4.92400
C         -3.37400       -3.93990        4.96650
S         -3.92450       -3.60920        6.59770
C         -4.26300       -3.80270        3.86530
S         -3.68840       -4.02770        2.23330
C         -5.22610       -3.55170        1.60830
C         -5.61260       -3.42670        0.25460
C         -6.93800       -3.13170       -0.03480
O         -7.89300       -3.04730        0.90990
C         -7.49520       -2.69290        2.25530
C         -8.57810       -3.29000        3.16710
C         -9.98140       -2.77980        2.86290
C         -7.42720       -1.14740        2.29050
C         -7.14960       -0.53820        3.65690
C         -6.13570       -3.25250        2.60760
C         -5.58310       -3.40890        3.88360
C         -7.17360       -2.97150       -1.40940
C         -6.03780       -3.14990       -2.16540
S         -4.65590       -3.54060       -1.17610
C         -5.83710       -2.89560       -3.55610
C         -6.49620       -1.98930       -4.33560
C         -5.87790       -1.76930       -5.59240
C         -6.13770       -0.72580       -6.50490
C         -7.32790        0.09140       -6.37080
S         -7.27940        1.82840       -6.42770
C         -8.99110        1.96130       -6.21160
C         -9.66510        3.28840       -6.21670
C         -9.91030        3.76790       -7.64950
C         -9.55600        0.72400       -6.11720
Cl       -11.23860        0.45140       -5.91440
C         -8.61720       -0.33780       -6.19890
Cl        -9.08990       -1.98770       -6.16740
C         -5.16530       -0.48210       -7.46710
C         -4.05910       -1.34280       -7.67280
C         -3.84290       -2.43040       -6.81240
C         -2.63500       -3.23920       -6.90740
S         -2.69970       -4.95860       -7.13570
C         -0.97480       -5.10260       -7.11650
C         -0.31270       -6.43190       -7.22140
C         -0.27950       -7.13010       -5.85960
C         -0.39910       -3.88170       -6.92870
C         -1.33740       -2.82180       -6.80950
Cl        -0.86650       -1.19740       -6.49750
Cl         1.29510       -3.62100       -6.84950
C         -4.73460       -2.58590       -5.76270
S         -4.47500       -3.62010       -4.38790
C         -3.15010       -0.82980       -8.62900
C         -3.45180        0.43960       -9.03060
S         -5.02260        0.95600       -8.44490
C         -2.44860        1.38460       -9.43080
S         -2.35940        2.83190       -8.45100
C         -0.68630        2.99600       -8.82980
C          0.26730        3.74410       -8.09950
C          1.59740        3.68290       -8.48550
O          1.94210        3.16680       -9.68930
C          1.22400        1.97080      -10.08890
C          1.41550        1.87150      -11.60930
C          2.87320        1.75400      -12.03690
C          1.86480        0.80950       -9.28950
C          1.38260       -0.59440       -9.62170
C         -0.24940        2.06320       -9.75220
C         -1.26370        1.15300      -10.09150
C          2.47710        4.13270       -7.48660
C          1.82170        4.46960       -6.32260
S          0.08720        4.35160       -6.49770
C          2.33460        4.58840       -4.99800
C          1.61400        4.28730       -3.87690
C          2.39690        4.17590       -2.70930
C          1.97340        3.74380       -1.44260
C          0.61620        3.29040       -1.18590
S         -0.10960        2.05650       -2.17930
C         -1.51150        1.95430       -1.17190
C         -2.59440        0.96700       -1.44070
C         -2.39890       -0.30130       -0.60540
C         -1.41090        2.83280       -0.13470
Cl        -2.61190        3.01460        1.07690
C         -0.20970        3.59120       -0.13830
Cl         0.11410        4.80800        1.02420
C          2.95550        3.61390       -0.47130
C          4.32180        3.91250       -0.69560
C          4.73140        4.39840       -1.95440
C          6.11350        4.76930       -2.19410
S          6.98670        4.21870       -3.59310
C          8.42000        5.07080       -3.13150
C          9.63280        5.06290       -3.99470
C          9.52490        6.12470       -5.09200
C          8.21470        5.74870       -1.96680
C          6.91200        5.57580       -1.42830
Cl         6.39200        6.38190       -0.00500
Cl         9.40460        6.72120       -1.20310
C          3.76090        4.47360       -2.94760
S          4.02650        4.86030       -4.63170
C          5.13030        3.50870        0.40050
C          4.42340        2.92830        1.41160
S          2.70080        2.90050        1.08770
C          4.86550        2.25660        2.58940
C          4.04900        1.54990        3.42200
C          4.73440        0.82840        4.42570
C          4.19430       -0.08250        5.35260
C          2.77790       -0.40460        5.31620
S          2.02120       -0.76810        3.78910
C          0.47000       -1.00660        4.50670
C         -0.72090       -1.32660        3.67220
C         -0.35410       -2.15430        2.44550
C          0.54740       -0.81830        5.85390
Cl        -0.80090       -0.93020        6.91170
C          1.85040       -0.48830        6.31830
Cl         2.15230       -0.15000        7.96850
C          5.09400       -0.69200        6.22100
C          6.48530       -0.42180        6.19650
C          7.01930        0.48340        5.26520
C          8.44470        0.76520        5.19810
S          9.61810       -0.50280        4.99890
C         10.93990        0.61440        4.97540
C         12.33970        0.15240        4.76690
C         12.65950        0.03390        3.27470
C         10.48170        1.89070        5.10850
C          9.06910        1.98070        5.23630
Cl         8.26190        3.47050        5.49220
Cl        11.49740        3.27320        5.13390
C          6.12700        1.08060        4.38420
S          6.54620        2.13360        3.05690
C          7.18450       -1.18370        7.17720
C          6.37430       -2.00620        7.87450
S          4.71350       -1.90340        7.40960
H          2.18770       -3.51890       10.73500
H         -0.38380       -3.17380       10.94950
H         -5.30890       -1.48820       13.02350
H         -3.80830       -0.55670       12.85150
H         -6.28600       -0.26170       11.08410
H         -4.78880        0.65860       10.90580
H         -5.78430        0.86150       12.35210
H          4.89760       -4.05100        3.90100
H          4.61170       -5.46790        2.87100
H          4.89430       -3.42430        1.49390
H          3.25450       -4.05750        1.32170
H          3.55330       -2.64580        2.34100
H         -1.53280       -4.44820        4.00250
H         -8.55320       -4.37300        3.02630
H         -8.32320       -3.08070        4.20510
H        -10.70930       -3.34780        3.43710
H        -10.20160       -2.90100        1.80610
H        -10.08510       -1.73050        3.12600
H         -8.37210       -0.76860        1.89800
H         -6.63900       -0.84430        1.59430
H         -7.93530       -0.78530        4.36540
H         -7.10280        0.54460        3.56670
H         -6.19870       -0.88580        4.05290
H         -6.10490       -3.23550        4.80720
H         -8.13700       -2.74250       -1.82420
H         -7.33580       -1.42160       -3.97980
H         -9.04000        4.01450       -5.69410
H        -10.61730        3.20100       -5.69060
H        -10.40110        4.73720       -7.63980
H        -10.54380        3.06160       -8.18010
H         -8.96680        3.85790       -8.18240
H         -0.85660       -7.05370       -7.93450
H          0.70610       -6.28900       -7.58620
H          0.27270       -6.52980       -5.14110
H         -1.29030       -7.27510       -5.48600
H          0.20320       -8.09940       -5.94880
H         -2.23840       -1.32620       -8.90350
H          0.84490        1.02010      -11.98020
H          0.98750        2.77770      -12.04360
H          3.29550        0.79760      -11.74060
H          3.45700        2.55180      -11.58690
H          2.94510        1.83760      -13.11870
H          2.94310        0.87570       -9.44340
H          1.67540        1.00630       -8.22950
H          0.33770       -0.71930       -9.35160
H          1.50620       -0.81910      -10.67760
H          1.96210       -1.31550       -9.04990
H         -1.14040        0.32900      -10.76970
H          3.54730        4.13490       -7.58270
H          0.55800        4.09040       -3.90290
H         -2.59400        0.71040       -2.50100
H         -3.55630        1.42040       -1.19100
H         -1.44210       -0.76310       -0.83600
H         -2.42290       -0.06180        0.45450
H         -3.18860       -1.01610       -0.82130
H         10.50720        5.26540       -3.37360
H          9.74640        4.07860       -4.45190
H         10.41370        6.10750       -5.71700
H          8.65420        5.93510       -5.71500
H          9.42800        7.11340       -4.65080
H          6.20190        3.59150        0.41840
H          2.98220        1.54450        3.29870
H         -1.19120       -0.39180        3.34970
H         -1.44310       -1.86060        4.29310
H          0.31260       -1.59100        1.79630
H          0.15250       -3.07000        2.74200
H         -1.24770       -2.41490        1.88470
H         12.47690       -0.81830        5.24650
H         13.01780        0.87180        5.22930
H         13.68510       -0.29800        3.13810
H         12.53630        0.99700        2.78610
H         11.99320       -0.68350        2.80190
H          8.24360       -1.10970        7.34090
H          6.64430       -2.68270        8.66160
