110

C          6.69880       -0.95980       -6.71770
S          6.06070       -2.34200       -5.88250
C          5.97700        0.17610       -6.52010
C          4.87550       -0.05490       -5.67380
C          3.77340        0.69100       -5.10660
S          3.42640        2.27380       -5.32190
C          4.79600       -1.38750       -5.24900
C          3.65570       -1.52630       -4.40750
S          2.84220       -2.72950       -3.51370
C          3.02550       -0.27750       -4.30850
C          1.88610       -0.30050       -3.50910
C          1.63270       -1.56320       -2.99380
C          0.59650       -2.00100       -2.13080
C         -0.38360       -1.19850       -1.64610
C         -1.38090       -1.58500       -0.71740
S         -2.44030       -0.32290       -0.09760
C         -1.65420       -2.81590       -0.14140
C         -2.68210       -2.74480        0.79540
C         -3.39180       -3.63120        1.70670
S         -3.28550       -5.26680        1.80460
C         -3.19930       -1.44320        0.93890
C         -4.20570       -1.46200        1.93190
S         -5.32140       -0.40500        2.66780
C         -4.30870       -2.77070        2.43470
C         -5.27000       -2.89390        3.43830
C         -5.93450       -1.71070        3.69440
C         -6.94570       -1.31470        4.62310
C         -7.55300       -1.96690        5.63920
C         -7.42070       -3.32750        6.07780
S         -7.41080       -4.69800        4.97830
C         -7.28110       -3.72790        7.39050
C         -7.03910       -5.10030        7.50580
C         -6.57810       -6.03760        8.52420
S         -6.40390       -5.75530       10.12430
C         -7.06720       -5.75500        6.27050
C         -6.58200       -7.08060        6.45000
S         -6.07560       -8.38410        5.47670
C         -6.25340       -7.25360        7.79810
C         -5.54490       -8.44490        8.03140
C         -5.30560       -9.13540        6.87480
C         -4.43410      -10.27270        6.64750
C         -3.32680      -10.19570        5.88940
C         -2.75440       -9.02080        5.29690
S         -3.14500       -7.38420        5.82950
C         -1.79440       -9.01000        4.30740
C         -1.39620       -7.71770        3.95510
C         -0.50000       -7.08880        3.00900
S          0.48100       -7.80870        1.91850
C         -2.04710       -6.72310        4.70660
C         -1.60170       -5.45150        4.26140
S         -1.81900       -3.79110        4.60450
C         -0.65350       -5.65630        3.23710
C         -0.12860       -4.47750        2.73130
C         -0.67340       -3.35270        3.33780
C         -0.46060       -1.99250        3.01300
C          0.44480       -1.58450        2.08430
C          0.59040       -0.26990        1.58980
S          1.82190        0.01360        0.35820
C         -0.16700        0.86740        1.82880
C          0.21210        1.93220        1.01850
C         -0.21220        3.29920        0.76350
S         -1.41890        4.11540        1.50400
C          1.27650        1.61590        0.15140
C          1.54660        2.74170       -0.65980
S          2.58740        3.19190       -1.93760
C          0.65590        3.77190       -0.30420
C          0.83130        4.92310       -1.06620
C          1.83900        4.78470       -2.00910
C          2.25680        5.75300       -2.95190
C          3.20750        5.54360       -3.89500
C          3.62740        6.48590       -4.86030
S          2.98720        8.12690       -4.90140
C          4.55420        6.27140       -5.86860
C          4.74750        7.40080       -6.65790
C          5.54740        7.79510       -7.81150
S          6.61400        6.87250       -8.63750
C          3.96440        8.49410       -6.25240
C          4.23940        9.58760       -7.11540
S          3.76570       11.21270       -7.33100
C          5.19280        9.17970       -8.06120
C          5.53180       10.19750       -8.95890
C          4.85150       11.36790       -8.70690
C          4.96350       12.60050       -9.43130
C          4.29510       13.71770       -9.15260
H          7.58260       -1.08660       -7.31020
H          6.21980        1.12700       -6.95770
H          1.27090        0.55790       -3.31310
H          0.62790       -3.04120       -1.84000
H         -0.41150       -0.16020       -1.94710
H         -1.13010       -3.71890       -0.39410
H         -5.45040       -3.81570        3.95380
H         -7.21040       -0.26860        4.51920
H         -8.18410       -1.36490        6.28320
H         -7.27270       -3.03730        8.21430
H         -5.15790       -8.74420        8.98850
H         -4.70290      -11.21350        7.10830
H         -2.76260      -11.10020        5.70200
H         -1.41470       -9.90480        3.84800
H          0.59160       -4.43630        1.93600
H         -1.08730       -1.26870        3.51390
H          1.10120       -2.31740        1.63720
H         -0.96680        0.90730        2.54500
H          0.25470        5.82340       -0.95520
H          1.75600        6.71160       -2.89840
H          3.69150        4.57700       -3.95330
H          5.04770        5.32750       -6.01140
H          6.24230       10.08920       -9.75830
H          5.65910       12.57170      -10.26010
H          3.59870       13.76880       -8.33180
H          4.42410       14.61210       -9.73500
