272

C          4.88550       -1.11850      -10.31540
C          4.19080       -1.85030       -9.33630
N          3.74080       -3.08780       -9.61040
C          3.13150       -3.76690       -8.66880
C          2.51910       -5.04150       -9.03930
C          3.12510       -5.85740       -9.98220
C          2.58540       -7.09600      -10.28930
C          1.43720       -7.54790       -9.65720
O          0.85260       -8.76010       -9.83480
C          1.29890       -9.61090      -10.86980
C          0.84600       -9.14470      -12.25050
C          0.79950       -6.70800       -8.70910
C          1.33170       -5.46530       -8.43220
O         -0.31250       -7.22090       -8.12570
C         -0.88530       -6.52730       -7.03420
C         -1.94860       -7.42770       -6.42550
C          3.08980       -3.25810       -7.32120
C          2.70710       -4.09470       -6.18420
C          1.95900       -3.56120       -5.14690
C          1.53240       -4.37220       -4.10690
C          1.84480       -5.72190       -4.08400
O          1.44290       -6.60380       -3.13590
C          0.64210       -6.14270       -2.06710
C          0.33700       -7.33670       -1.17640
C          2.64080       -6.26740       -5.12290
O          2.88330       -7.60090       -5.02230
C          3.56040       -8.26890       -6.06650
C          5.07790       -8.13230       -5.97130
C          3.07270       -5.44560       -6.14310
N          3.42110       -2.01430       -7.07580
C          3.91030       -1.25910       -8.07350
C          4.23740        0.09920       -7.83460
C          4.88820        0.79570       -8.82860
C          5.22060        0.17960      -10.04940
F          5.87480        0.90310      -10.97700
F          5.18200        2.09570       -8.67400
C          3.94410        0.70320       -6.53250
C          4.99550        1.25200       -5.75720
N          6.23430        1.23590       -6.26560
C          7.24650        1.70630       -5.56920
C          8.53160        1.74200       -6.26110
C          9.54090        2.64100       -5.94950
C         10.71470        2.65520       -6.68620
C         10.90320        1.78630       -7.74990
O         12.01030        1.72290       -8.52600
C         13.07530        2.61900       -8.28140
C         14.15420        2.33850       -9.31550
C          9.86600        0.88260       -8.09250
C          8.70770        0.87280       -7.34580
O         10.11220        0.08350       -9.16070
C          9.05570       -0.71260       -9.66120
C          9.54620       -1.38540      -10.93320
C          7.01860        2.15740       -4.23290
C          8.07780        2.50520       -3.27500
C          9.09230        1.60860       -2.98290
C         10.00650        1.89680       -1.98320
C          9.94610        3.09290       -1.28490
O         10.80190        3.48560       -0.30470
C         11.68510        2.54610        0.27070
C         10.96730        1.54060        1.16690
C          8.93830        4.03220       -1.61150
O          8.96260        5.18620       -0.88960
C          8.28980        6.32790       -1.38120
C          8.92930        6.88780       -2.64800
C          8.00510        3.71230       -2.58010
N          5.80080        2.21740       -3.74660
C          4.75220        1.79910       -4.46920
C          3.42780        1.83240       -3.92190
C          2.43240        1.30090       -4.73430
C          2.68130        0.73580       -5.98890
F          1.63080        0.25690       -6.67750
F          1.14830        1.30940       -4.32070
C          3.16110        2.31730       -2.59980
S          1.59220        2.12620       -1.84230
C          2.18780        2.77540       -0.36340
C          1.49030        2.97500        0.84540
C          2.14430        3.64950        1.87120
O          3.38750        4.15260        1.77520
C          4.27540        3.64990        0.75290
C          5.16940        4.83950        0.36690
C          5.94560        5.42270        1.54160
C          5.05840        2.47970        1.39570
C          6.21420        1.93400        0.56780
C          3.52400        3.14490       -0.45450
C          4.05440        2.89640       -1.71720
C          1.34600        3.80520        3.00780
C          0.08370        3.26380        2.85870
S         -0.13930        2.56750        1.27760
C         -0.97040        3.19460        3.82260
C         -2.26300        2.72840        3.44240
N         -2.45960        2.42410        2.15250
C         -3.63460        2.01690        1.73450
C         -3.83570        1.77650        0.30450
C         -4.96090        2.26020       -0.34590
C         -5.18680        1.94760       -1.67650
C         -4.31260        1.12510       -2.36970
O         -4.47260        0.68040       -3.64200
C         -5.50780        1.20400       -4.44700
C         -5.20380        2.61200       -4.95060
C         -3.14360        0.65650       -1.71830
C         -2.91160        1.00330       -0.40060
O         -2.34530       -0.13810       -2.46690
C         -1.09750       -0.53910       -1.93650
C         -0.36280       -1.29570       -3.03010
C         -4.68620        1.81910        2.68280
C         -5.98350        1.23590        2.33270
C         -7.14310        1.71570        2.92090
C         -8.37630        1.17640        2.59070
C         -8.47820        0.15530        1.65930
O         -9.62460       -0.44990        1.25800
C        -10.87120        0.01700        1.72950
C        -11.32400        1.29600        1.02980
C         -7.29540       -0.34480        1.05910
O         -7.47290       -1.33010        0.14360
C         -6.35710       -1.76180       -0.61150
C         -6.86770       -2.69080       -1.70140
C         -6.07140        0.18140        1.41930
N         -4.51020        2.14160        3.94320
C         -3.33390        2.61980        4.36970
C         -3.15320        2.96390        5.74910
C         -1.88560        3.44300        6.07280
C         -0.84250        3.55900        5.15860
F          0.32380        4.02730        5.64110
F         -1.61130        3.81290        7.34030
C         -4.17990        2.78470        6.72930
S         -3.89500        3.08420        8.43400
C         -5.49600        2.58510        8.82150
C         -6.09640        2.43950       10.08920
C         -7.33170        1.80510       10.17070
O         -8.01450        1.34270        9.10820
C         -7.67140        1.81990        7.79460
C         -7.96730        0.67780        6.79450
C         -9.05230       -0.29840        7.23670
C         -8.48780        3.10590        7.51290
C         -9.99890        2.92680        7.56560
C         -6.21620        2.21360        7.69520
C         -5.47100        2.32970        6.52740
C         -7.76590        1.62450       11.48980
C         -6.87560        2.12180       12.42040
S         -5.48020        2.83380       11.65560
C         -6.98880        2.08520       13.83520
S         -5.73580        2.74470       14.85600
C         -6.60900        2.27870       16.27010
C         -6.23300        2.42880       17.62770
C         -7.00600        1.81880       18.59900
O         -8.10240        1.08190       18.33930
C         -8.74890        1.21210       17.05720
C         -9.34840       -0.17280       16.76730
C         -8.27390       -1.22150       16.50350
C         -9.83870        2.30610       17.17440
C        -10.87460        2.02620       18.25600
C         -7.79810        1.64270       15.96590
C         -8.01130        1.54360       14.58800
C         -6.48540        1.99940       19.89980
C         -5.34680        2.74330       19.89490
S         -4.87170        3.24250       18.31910
H          5.12040       -1.57290      -11.26350
H          4.03150       -5.52440      -10.46180
H          3.08850       -7.71180      -11.01760
H          2.38970       -9.72860      -10.83540
H          0.84280      -10.57700      -10.63670
H          1.26770       -8.17170      -12.49010
H          1.16160       -9.86260      -13.00250
H         -0.23760       -9.06290      -12.27130
H          0.83010       -4.80160       -7.74770
H         -0.11300       -6.29300       -6.28800
H         -1.33610       -5.58550       -7.37850
H         -1.49260       -8.34700       -6.06910
H         -2.69470       -7.67850       -7.17430
H         -2.43030       -6.92040       -5.59450
H          1.68750       -2.51850       -5.17010
H          0.93770       -3.94010       -3.31960
H          1.17800       -5.37050       -1.49750
H         -0.29120       -5.70840       -2.45350
H          1.26280       -7.76290       -0.80070
H         -0.18640       -8.09890       -1.74670
H         -0.28130       -7.02680       -0.33870
H          3.19540       -7.92880       -7.04460
H          3.27990       -9.31900       -5.94110
H          5.38610       -7.09440       -6.06720
H          5.41900       -8.50240       -5.00780
H          5.54710       -8.71380       -6.76030
H          3.69820       -5.83430       -6.92950
H          9.41630        3.35390       -5.15070
H         11.48060        3.36760       -6.42440
H         13.47150        2.46900       -7.26690
H         12.72420        3.65680       -8.37060
H         14.99420        3.01150       -9.16850
H         13.75170        2.47920      -10.31450
H         14.49620        1.31150       -9.22350
H          7.89850        0.20020       -7.57670
H          8.18380       -0.08220       -9.87780
H          8.76530       -1.46970       -8.91840
H          8.76240       -2.01710      -11.34150
H          9.81800       -0.63250      -11.66730
H         10.42170       -1.99190      -10.71850
H          9.15830        0.67430       -3.51870
H         10.77550        1.17350       -1.76400
H         12.36900        3.15470        0.86840
H         12.27000        2.03200       -0.50280
H         11.69280        0.87890        1.63200
H         10.41980        2.06820        1.94360
H         10.26100        0.94530        0.59310
H          8.37630        7.05340       -0.56820
H          7.22510        6.12180       -1.54590
H          9.98160        7.09380       -2.46900
H          8.85090        6.17740       -3.46780
H          8.43090        7.81000       -2.93350
H          7.20860        4.39590       -2.83000
H          4.51630        5.60970       -0.05110
H          5.85820        4.51580       -0.41130
H          6.41150        6.35980        1.24670
H          5.27430        5.61470        2.37380
H          6.72940        4.74500        1.86790
H          5.42550        2.82770        2.36270
H          4.33970        1.67730        1.58790
H          6.66300        1.09130        1.08950
H          5.87260        1.58780       -0.40420
H          6.98510        2.68470        0.41590
H          5.06520        3.09990       -2.01000
H          1.69600        4.30260        3.89110
H         -5.66250        2.89060        0.17830
H         -6.06870        2.34170       -2.15530
H         -6.46820        1.17560       -3.91610
H         -5.56290        0.51300       -5.29280
H         -4.26090        2.60960       -5.49100
H         -5.12200        3.31200       -4.12270
H         -5.99490        2.94310       -5.61800
H         -2.03030        0.66520        0.11820
H         -0.51900        0.34210       -1.63220
H         -1.24970       -1.18310       -1.05740
H          0.63110       -1.56640       -2.68510
H         -0.91540       -2.19080       -3.30360
H         -0.27710       -0.66370       -3.90770
H         -7.08390        2.53450        3.62090
H         -9.25850        1.57590        3.06530
H        -11.56660       -0.79480        1.49860
H        -10.85050        0.15240        2.81820
H        -12.31040        1.58000        1.38620
H        -11.37030        1.12900       -0.04320
H        -10.63040        2.11120        1.22000
H         -5.64500       -2.29270        0.03640
H         -5.84430       -0.89840       -1.05810
H         -7.58420       -2.16600       -2.32700
H         -6.03720       -3.02710       -2.31510
H         -7.36170       -3.55070       -1.25760
H         -5.16550       -0.22650        1.00420
H         -8.23380        1.12220        5.83510
H         -7.04540        0.11060        6.64810
H         -8.77040       -0.77810        8.16940
H         -9.17340       -1.06540        6.47460
H        -10.00550        0.19740        7.38600
H         -8.18630        3.48900        6.53630
H         -8.19150        3.84360        8.26450
H        -10.35170        2.33410        6.72610
H        -10.48590        3.89870        7.52440
H        -10.28550        2.43590        8.49220
H         -5.82810        2.08060        5.54810
H         -8.69000        1.13920       11.74000
H         -9.92710       -0.47170       17.64090
H        -10.02230       -0.09690       15.91360
H         -8.73050       -2.19920       16.37170
H         -7.70500       -0.98170       15.60830
H         -7.58830       -1.27060       17.34600
H        -10.32310        2.41530       16.20270
H         -9.32890        3.24690       17.40080
H        -11.49270        2.90700       18.41260
H        -11.52210        1.20040       17.97470
H        -10.37880        1.77940       19.19150
H         -8.87840        1.09160       14.14390
H         -6.94290        1.59070       20.78110
H         -4.75130        3.03850       20.73520
