197

C          3.86350        3.12970        8.45920
C          4.58990        1.94780        8.57890
O          4.87590        1.53480        9.85270
C          5.51690        0.29360       10.01480
C          4.96270        1.27280        7.42830
C          4.58800        1.73450        6.17000
C          3.87820        2.94270        6.05520
C          3.52150        3.62190        7.21540
O          3.53430        3.30150        4.78360
C          3.12240        4.61180        4.46210
C          4.29500        5.53140        4.06980
C          5.18740        4.81220        3.04780
C          6.00650        5.77350        2.19560
C          5.10630        5.99630        5.28550
C          4.42320        7.11190        6.06820
C          4.92490        0.98320        4.96700
C          4.94120       -0.34770        4.86060
C          4.55660       -1.30430        5.90100
C          3.36720       -1.15450        6.64280
O          2.55470       -0.12310        6.29040
C          1.36760        0.07770        7.01090
C          3.08780       -2.05360        7.65820
C          3.92060       -3.13930        7.92510
C          5.08560       -3.30780        7.16660
C          5.38010       -2.38960        6.16690
O          5.91710       -4.34870        7.49690
C          6.39990       -5.19370        6.47010
C          5.46650       -6.39370        6.23420
C          6.23020       -7.52940        5.54120
C          7.11650       -8.32640        6.49140
C          4.23800       -5.96770        5.41940
C          3.06760       -6.93370        5.55980
C          3.60190       -4.08610        8.99140
C          2.45290       -4.76350        9.13940
C          1.32150       -4.82280        8.26240
S          1.27200       -4.12060        6.66670
C         -0.30850       -4.76430        6.40330
C         -1.09860       -4.67240        5.23590
C         -2.25740       -5.43180        5.15780
O         -2.65840       -6.26780        6.13800
C         -2.19090       -6.01720        7.48280
C         -3.14050       -4.95530        8.08690
C         -2.89760       -4.63970        9.55550
C         -2.25710       -7.37950        8.19060
C         -3.64830       -8.00170        8.18710
C         -0.77940       -5.47780        7.49080
C          0.15730       -5.51400        8.53000
C         -2.92310       -5.29000        3.93390
C         -2.27990       -4.42290        3.07370
S         -0.82750       -3.77150        3.78730
C         -2.68580       -4.01960        1.77450
S         -1.61780       -3.09240        0.75240
C         -2.81620       -3.04030       -0.49030
C         -2.75580       -2.37720       -1.73470
C         -3.92880       -2.23300       -2.46300
O         -5.11740       -2.71340       -2.04860
C         -5.12520       -3.80410       -1.11170
C         -4.97700       -5.16090       -1.86340
C         -5.31320       -5.09800       -3.35010
C         -6.46690       -3.68540       -0.36620
C         -7.68700       -3.70880       -1.27790
C         -3.98210       -3.69400       -0.12500
C         -3.89580       -4.25490        1.15140
C         -3.75830       -1.48070       -3.63230
C         -2.45520       -1.07130       -3.81790
S         -1.41870       -1.61280       -2.52040
C         -1.91940       -0.31290       -4.88800
S         -2.96370        0.40270       -6.09270
C         -1.59470        1.07140       -6.91060
C         -1.57380        1.89630       -8.05670
C         -0.36890        2.45350       -8.45560
O          0.79740        2.26010       -7.81030
C          0.91920        1.15740       -6.89080
C          1.45260       -0.06720       -7.67490
C          2.78400        0.18470       -8.37160
C          1.90970        1.63250       -5.81670
C          1.32860        2.74430       -4.95090
C         -0.40290        0.75390       -6.28410
C         -0.59430       -0.02800       -5.14240
C         -0.49770        3.30250       -9.56730
C         -1.78890        3.40540      -10.02310
S         -2.87360        2.42580       -9.06260
C         -2.32360        4.17200      -11.12250
C         -1.52530        4.64580      -12.18400
O         -0.19140        4.35590      -12.14770
C          0.61460        4.74230      -13.23340
C         -2.12980        5.34870      -13.21160
C         -3.49610        5.61980      -13.23750
C         -4.29680        5.14750      -12.17440
C         -3.69360        4.43880      -11.15140
O         -5.62140        5.45060      -12.24180
C         -6.51370        5.14790      -11.18740
C         -7.35270        3.88450      -11.44530
C         -6.46800        2.63400      -11.53500
C         -7.18420        1.43340      -12.14370
C         -8.41450        3.74160      -10.34770
C         -9.54290        4.76280      -10.44540
C         -4.12010        6.35890      -14.32350
C         -3.50200        7.03030      -15.28960
H          3.57420        3.65560        9.35520
H          5.57290        0.12960       11.09010
H          4.94790       -0.51970        9.55090
H          6.53000        0.30460        9.59940
H          5.54920        0.37060        7.48140
H          2.96090        4.54210        7.17030
H          2.52680        5.06380        5.25970
H          2.47100        4.48370        3.59060
H          3.85390        6.41220        3.58820
H          5.85450        4.13000        3.57810
H          4.55620        4.20990        2.39130
H          6.62440        5.22010        1.49220
H          6.66110        6.38750        2.80950
H          5.35200        6.43350        1.62990
H          5.29760        5.14510        5.94180
H          6.07430        6.36530        4.94160
H          3.45100        6.80150        6.44280
H          5.03430        7.40210        6.91980
H          4.27830        7.98580        5.43590
H          5.15720        1.58430        4.09820
H          5.27780       -0.79430        3.93290
H          0.70320       -0.79080        6.94560
H          1.56970        0.30830        8.06260
H          0.88670        0.93600        6.54460
H          2.21060       -1.93220        8.27410
H          6.29160       -2.49370        5.59560
H          6.54410       -4.64840        5.53160
H          7.37380       -5.54190        6.82500
H          5.12760       -6.73670        7.21780
H          5.51190       -8.21290        5.08640
H          6.83780       -7.10940        4.73570
H          7.86760       -7.69410        6.95790
H          7.62940       -9.12010        5.95250
H          6.51650       -8.77890        7.27780
H          4.51920       -5.87930        4.36690
H          3.90820       -4.98290        5.75590
H          3.33090       -7.93170        5.21760
H          2.22230       -6.58520        4.97080
H          2.75540       -6.99970        6.60040
H          4.40020       -4.26680        9.69880
H          2.34930       -5.40440       10.00750
H         -3.01720       -4.04230        7.49670
H         -4.16490       -5.30180        7.94180
H         -3.08290       -5.50920       10.18050
H         -3.56860       -3.84490        9.87350
H         -1.87500       -4.30620        9.71430
H         -1.90450       -7.26530        9.21470
H         -1.56640       -8.04500        7.66780
H         -4.33340       -7.43840        8.81520
H         -4.04100       -8.02810        7.17480
H         -3.59640       -9.01930        8.56740
H          0.00510       -6.02500        9.46390
H         -3.82780       -5.81380        3.69090
H         -3.94470       -5.50530       -1.75810
H         -5.61720       -5.89380       -1.37070
H         -5.27690       -6.10070       -3.77070
H         -4.59470       -4.47980       -3.88290
H         -6.30350       -4.68550       -3.51440
H         -6.45020       -2.74130        0.18320
H         -6.53590       -4.49740        0.35800
H         -8.58130       -3.49640       -0.69650
H         -7.80820       -4.68280       -1.74410
H         -7.58890       -2.95370       -2.05230
H         -4.68290       -4.81110        1.62440
H         -4.55320       -1.24720       -4.31630
H          0.69880       -0.32360       -8.42500
H          1.53680       -0.90870       -6.98520
H          3.59470        0.26080       -7.65220
H          2.73490        1.10760       -8.94420
H          3.00640       -0.63440       -9.05140
H          2.79640        2.00800       -6.32680
H          2.19750        0.78210       -5.19820
H          2.07560        3.09610       -4.24380
H          0.46370        2.39280       -4.39300
H          1.02170        3.57960       -5.57590
H          0.19500       -0.39050       -4.50860
H          0.32880        3.82950      -10.00060
H          0.64760        5.83110      -13.34490
H          1.61360        4.37650      -12.99950
H          0.27570        4.28880      -14.17040
H         -1.53600        5.69950      -14.03840
H         -4.27910        4.05930      -10.32950
H         -5.99430        5.07310      -10.22800
H         -7.18260        6.01350      -11.14350
H         -7.85270        4.01680      -12.41110
H         -5.60280        2.85940      -12.16090
H         -6.10340        2.37260      -10.53860
H         -8.02390        1.11390      -11.53190
H         -7.55550        1.67530      -13.13730
H         -6.49470        0.59700      -12.22990
H         -8.85250        2.74540      -10.41450
H         -7.93100        3.82220       -9.37100
H        -10.00710        4.72310      -11.42830
H        -10.30490        4.54820       -9.69940
H         -9.18420        5.77460      -10.27530
H         -5.20050        6.34850      -14.29740
H         -2.43030        7.10480      -15.36400
H         -4.05960        7.54780      -16.05100
