212

C         -2.63700        0.63990       18.79140
C         -1.95760        1.69030       18.28780
C         -2.15380        1.85380       16.88580
C         -1.57040        2.80120       16.03030
C         -0.72960        3.87290       16.53780
S          0.85320        4.16920       15.88390
C          1.11770        5.52240       16.93070
C          2.37160        6.32050       16.84420
C          2.41500        7.13240       15.54810
C          0.03160        5.72330       17.72880
Cl        -0.08810        6.97920       18.89260
C         -1.01580        4.78670       17.51310
Cl        -2.51390        4.86720       18.34740
C         -1.83380        2.67120       14.67320
C         -2.68280        1.67010       14.14310
C         -3.30660        0.75190       15.00440
C         -4.19760       -0.27640       14.49370
S         -3.69740       -1.35220       13.22130
C         -5.20720       -2.19680       13.23180
C         -5.48430       -3.28670       12.25640
C         -5.92460       -2.70800       10.90950
C         -6.04200       -1.66050       14.16570
C         -5.47200       -0.57720       14.88790
Cl        -6.35330        0.30480       16.06280
Cl        -7.63480       -2.22510       14.46200
C         -3.01500        0.86080       16.35980
S         -3.56020       -0.22010       17.61000
C         -2.80410        1.77470       12.73470
C         -2.07950        2.79710       12.20030
S         -1.21500        3.71020       13.42090
C         -1.95230        3.15080       10.82600
C         -1.23380        4.18210       10.29870
C         -1.28720        4.24510        8.88550
C         -0.66530        5.17740        8.03400
C          0.12300        6.27090        8.57930
S         -0.54600        7.35440        9.76460
C          0.92230        8.26220        9.88170
C          1.05660        9.38570       10.84920
C          1.36390        8.85920       12.25340
C          1.86660        7.74130        9.04900
Cl         3.45790        8.36550        8.89700
C          1.41670        6.61690        8.30500
Cl         2.44790        5.74640        7.24940
C         -0.83500        4.99490        6.66960
C         -1.58650        3.92240        6.12440
C         -2.24190        3.01660        6.97640
C         -3.07860        1.95620        6.44170
S         -2.86090        0.29860        6.91710
C         -4.15450       -0.24430        5.90110
C         -4.53460       -1.68300        5.84790
C         -5.00160       -2.18620        7.21370
C         -4.71640        0.81050        5.24650
C         -4.10740        2.05890        5.54710
Cl        -4.68090        3.54270        4.90230
Cl        -6.03330        0.67590        4.15360
C         -2.06040        3.19200        8.34100
S         -2.74200        2.19030        9.59120
C         -1.54440        3.91210        4.71180
C         -0.84620        4.95660        4.17640
S         -0.19120        6.01340        5.41240
C         -0.58870        5.20290        2.80210
S         -1.08800        4.03760        1.60150
C         -0.38820        5.00170        0.35290
C         -0.27420        4.69070       -1.01890
C          0.51100        5.50580       -1.82430
O          1.13880        6.60830       -1.38590
C          0.78300        7.17690       -0.10700
C          2.08900        7.76620        0.44810
C          3.09780        6.68550        0.82000
C         -0.29240        8.26410       -0.34840
C          0.15200        9.36280       -1.30600
C          0.18800        6.16210        0.83880
C          0.06770        6.26970        2.22750
C          0.64820        5.00600       -3.12840
C         -0.02470        3.81990       -3.31750
S         -0.86490        3.31290       -1.87590
C         -0.04000        2.98100       -4.46420
C         -0.63210        1.75470       -4.57100
C         -0.36370        1.09950       -5.79340
C         -0.73780       -0.19950       -6.18100
C         -1.55920       -1.04550       -5.33090
S         -1.13530       -1.37090       -3.67560
C         -2.51140       -2.39260       -3.43930
C         -2.74570       -3.08840       -2.14420
C         -2.01900       -4.43490       -2.10700
C         -3.24150       -2.47430       -4.58680
Cl        -4.68150       -3.39430       -4.73910
C         -2.70740       -1.71160       -5.65980
Cl        -3.49300       -1.58770       -7.17730
C         -0.25350       -0.65580       -7.39830
C          0.53430        0.13930       -8.26870
C          0.85900        1.45970       -7.90490
C          1.65670        2.31520       -8.76800
S          3.20570        1.80800       -9.37600
C          3.46280        3.30680      -10.20570
C          4.68590        3.53020      -11.02490
C          4.66700        2.67300      -12.29190
C          2.39900        4.13640      -10.01800
C          1.37760        3.58180       -9.19920
Cl        -0.08660        4.41000       -8.87270
Cl         2.27680        5.71000      -10.69200
C          0.42310        1.89750       -6.66110
S          0.83510        3.41850       -5.91760
C          0.93170       -0.57660       -9.42180
C          0.52310       -1.88220       -9.42290
S         -0.43560       -2.27200       -8.01080
C          0.83040       -2.89480      -10.37250
S          0.47380       -4.56690      -10.02470
C          1.19710       -5.05310      -11.51340
C          1.40180       -6.36270      -11.99670
C          2.18610       -6.54060      -13.12910
O          2.74680       -5.53070      -13.81610
C          2.26970       -4.18450      -13.61440
C          3.49510       -3.28650      -13.84390
C          4.54290       -3.44980      -12.74870
C          1.14590       -3.91280      -14.64450
C          1.58240       -4.10180      -16.09190
C          1.67710       -3.97710      -12.24160
C          1.46390       -2.75960      -11.59110
C          2.39450       -7.89140      -13.44040
C          1.77350       -8.74590      -12.55560
S          0.90490       -7.87400      -11.31840
C          1.78400      -10.16360      -12.55030
S          2.60360      -11.06240      -13.80390
C          2.15200      -12.55380      -13.05740
C          2.47920      -13.87430      -13.45200
C          2.18580      -14.91070      -12.58310
O          1.61300      -14.74440      -11.37660
C          0.87200      -13.53760      -11.12320
C         -0.58260      -13.74280      -11.61330
C         -1.31690      -14.90200      -10.95350
C          0.97230      -13.24820       -9.60740
C          1.20340      -14.47770       -8.73530
C          1.42090      -12.36100      -11.90040
C          1.21020      -11.00750      -11.62330
C          2.61550      -16.16490      -13.07120
C          3.20790      -16.06250      -14.29110
S          3.26620      -14.44810      -14.88150
H         -2.66180        0.29780       19.80760
H         -1.32080        2.32560       18.87500
H          3.23300        5.64990       16.87790
H          2.41790        6.98990       17.70450
H          1.57200        7.81710       15.50250
H          3.33490        7.70850       15.49840
H          2.36940        6.46880       14.68790
H         -6.27300       -3.92490       12.65830
H         -4.58380       -3.88710       12.11610
H         -6.11740       -3.50980       10.20220
H         -6.83300       -2.12350       11.03020
H         -5.14790       -2.06390       10.50450
H         -3.40470        1.11850       12.13160
H         -0.67610        4.86690       10.91140
H          1.86460       10.03950       10.51690
H          0.12820        9.95910       10.87230
H          1.46270        9.68780       12.94910
H          0.56330        8.20780       12.59570
H          2.29320        8.29530       12.24990
H         -5.33120       -1.80160        5.11180
H         -3.67450       -2.27390        5.52290
H         -4.20350       -2.07910        7.94440
H         -5.28040       -3.23450        7.15030
H         -5.86270       -1.61650        7.55360
H         -1.99690        3.14980        4.10410
H          2.52010        8.40020       -0.32620
H          1.85860        8.38440        1.31590
H          4.03050        7.14200        1.14170
H          3.30150        6.05340       -0.04110
H          2.72370        6.06050        1.62780
H         -0.57250        8.69100        0.61610
H         -1.17310        7.76330       -0.76060
H          0.90750        9.99760       -0.85130
H          0.56150        8.92450       -2.21260
H         -0.69900        9.98400       -1.57460
H          0.44350        7.08880        2.81430
H          1.23190        5.48260       -3.89420
H         -1.21900        1.32950       -3.77730
H         -3.81870       -3.24970       -2.02290
H         -2.39060       -2.45950       -1.32610
H         -0.94820       -4.28910       -2.22730
H         -2.20010       -4.93060       -1.15700
H         -2.37460       -5.07650       -2.90910
H          4.73390        4.58680      -11.29270
H          5.57020        3.28000      -10.43470
H          5.56090        2.85750      -12.88140
H          4.63190        1.61770      -12.03100
H          3.79570        2.91230      -12.89660
H          1.52610       -0.15070      -10.20790
H          3.93630       -3.56900      -14.79940
H          3.16810       -2.24830      -13.90560
H          5.42080       -2.85170      -12.98010
H          4.15390       -3.13430      -11.78330
H          4.84420       -4.49200      -12.67630
H          0.32960       -4.60610      -14.42270
H          0.77330       -2.89900      -14.48850
H          0.71320       -4.08240      -16.74500
H          2.26080       -3.31240      -16.40360
H          2.08230       -5.06010      -16.20840
H          1.75330       -1.80420      -11.98790
H          2.98510       -8.22940      -14.27180
H         -0.53360      -13.92050      -12.69200
H         -1.12860      -12.81080      -11.45580
H         -2.25770      -15.08150      -11.46920
H         -1.53690      -14.68320       -9.91240
H         -0.71550      -15.80600      -11.00750
H          1.80840      -12.56290       -9.44880
H          0.05970      -12.73820       -9.29610
H          2.13460      -14.96470       -9.00930
H          0.40010      -15.19910       -8.83680
H          1.26580      -14.17000       -7.69370
H          0.65890      -10.63590      -10.77830
H          2.48500      -17.08450      -12.53220
H          3.61350      -16.85050      -14.89300
