
  xtb     03012218543D
 energy: -178.433023329830 gnorm: 0.000161359313 xtb: 6.4.1 (unknown)
120132  0     0  0            999 V2000
    5.0229   -5.0879    1.1206 C   0  0  0  0  0  0  0  0  0  0  0  0
    4.2199   -4.3406    1.8874 C   0  0  0  0  0  0  0  0  0  0  0  0
    3.5486   -3.3062    1.1024 C   0  0  0  0  0  0  0  0  0  0  0  0
    3.9363   -3.4979   -0.1895 C   0  0  0  0  0  0  0  0  0  0  0  0
    4.8510   -4.6822   -0.3086 C   0  0  0  0  0  0  0  0  0  0  0  0
    6.0037   -4.1863   -1.1765 C   0  0  0  0  0  0  0  0  0  0  0  0
    5.3211   -3.4858   -2.3479 C   0  0  0  0  0  0  0  0  0  0  0  0
    3.8886   -2.5616   -1.6493 S   0  0  0  0  0  0  0  0  0  0  0  0
    2.7030   -2.3038    1.6717 C   0  0  0  0  0  0  0  0  0  0  0  0
    2.1721   -1.2736    0.9777 C   0  0  0  0  0  0  0  0  0  0  0  0
    1.2907   -0.2782    1.4756 C   0  0  0  0  0  0  0  0  0  0  0  0
    0.7967    0.7624    0.7492 C   0  0  0  0  0  0  0  0  0  0  0  0
   -0.1487    1.5478    1.5094 C   0  0  0  0  0  0  0  0  0  0  0  0
   -0.2162    0.9715    2.7468 C   0  0  0  0  0  0  0  0  0  0  0  0
    0.7855   -0.1353    2.8892 C   0  0  0  0  0  0  0  0  0  0  0  0
    0.0622   -1.2402    3.6477 C   0  0  0  0  0  0  0  0  0  0  0  0
   -0.6999   -0.5289    4.7612 C   0  0  0  0  0  0  0  0  0  0  0  0
   -1.3415    1.0435    4.0525 S   0  0  0  0  0  0  0  0  0  0  0  0
   -0.8981    2.6722    1.0359 C   0  0  0  0  0  0  0  0  0  0  0  0
   -0.6227    3.3143   -0.1188 C   0  0  0  0  0  0  0  0  0  0  0  0
   -1.3655    4.3641   -0.7232 C   0  0  0  0  0  0  0  0  0  0  0  0
   -1.0446    4.9582   -1.9050 C   0  0  0  0  0  0  0  0  0  0  0  0
   -2.0957    5.8402   -2.3656 C   0  0  0  0  0  0  0  0  0  0  0  0
   -3.0308    5.8743   -1.3808 C   0  0  0  0  0  0  0  0  0  0  0  0
   -2.6435    4.9888   -0.2287 C   0  0  0  0  0  0  0  0  0  0  0  0
   -3.8998    4.1643    0.0341 C   0  0  0  0  0  0  0  0  0  0  0  0
   -5.0367    5.1816    0.0385 C   0  0  0  0  0  0  0  0  0  0  0  0
   -4.6873    6.3705   -1.3245 S   0  0  0  0  0  0  0  0  0  0  0  0
   -2.1484    6.4298   -3.6888 C   0  0  0  0  0  0  0  0  0  0  0  0
   -1.7438    5.7907   -4.7990 C   0  0  0  0  0  0  0  0  0  0  0  0
   -1.3152    4.4103   -4.8090 C   0  0  0  0  0  0  0  0  0  0  0  0
   -2.1919    3.2160   -3.8814 S   0  0  0  0  0  0  0  0  0  0  0  0
   -0.9538    2.0509   -4.1726 C   0  0  0  0  0  0  0  0  0  0  0  0
   -0.7832    0.7994   -3.5387 C   0  0  0  0  0  0  0  0  0  0  0  0
    0.2943    0.0120   -3.9068 C   0  0  0  0  0  0  0  0  0  0  0  0
    1.0929    0.3063   -4.9561 O   0  0  0  0  0  0  0  0  0  0  0  0
    1.2314    1.6793   -5.3702 C   0  0  0  0  0  0  0  0  0  0  0  0
    2.4649    2.3143   -4.6626 C   0  0  0  0  0  0  0  0  0  0  0  0
    3.4817    1.3035   -4.1412 C   0  0  0  0  0  0  0  0  0  0  0  0
    1.3772    1.6343   -6.9043 C   0  0  0  0  0  0  0  0  0  0  0  0
    2.5579    0.8104   -7.4002 C   0  0  0  0  0  0  0  0  0  0  0  0
    0.0186    2.5190   -5.0309 C   0  0  0  0  0  0  0  0  0  0  0  0
   -0.2045    3.8591   -5.3962 C   0  0  0  0  0  0  0  0  0  0  0  0
    0.4348   -1.1304   -3.1039 C   0  0  0  0  0  0  0  0  0  0  0  0
   -0.5167   -1.2039   -2.1095 C   0  0  0  0  0  0  0  0  0  0  0  0
   -1.6165    0.1528   -2.1727 S   0  0  0  0  0  0  0  0  0  0  0  0
   -0.6607   -2.1650   -1.0752 C   0  0  0  0  0  0  0  0  0  0  0  0
   -1.4920   -2.0802   -0.0027 C   0  0  0  0  0  0  0  0  0  0  0  0
   -1.3347   -3.2141    0.8797 C   0  0  0  0  0  0  0  0  0  0  0  0
   -0.3452   -3.9883    0.3416 C   0  0  0  0  0  0  0  0  0  0  0  0
    0.2175   -3.3717   -0.9001 C   0  0  0  0  0  0  0  0  0  0  0  0
    0.2852   -4.5184   -1.9019 C   0  0  0  0  0  0  0  0  0  0  0  0
    0.9181   -5.6596   -1.1111 C   0  0  0  0  0  0  0  0  0  0  0  0
    0.1823   -5.6135    0.5774 S   0  0  0  0  0  0  0  0  0  0  0  0
   -2.0575   -3.4665    2.0879 C   0  0  0  0  0  0  0  0  0  0  0  0
   -3.0465   -2.6790    2.5677 C   0  0  0  0  0  0  0  0  0  0  0  0
   -3.7004   -2.8444    3.8216 C   0  0  0  0  0  0  0  0  0  0  0  0
   -3.4733   -3.7487    4.8156 C   0  0  0  0  0  0  0  0  0  0  0  0
   -4.3216   -3.5007    5.9595 C   0  0  0  0  0  0  0  0  0  0  0  0
   -5.1134   -2.4382    5.6414 C   0  0  0  0  0  0  0  0  0  0  0  0
   -4.8680   -1.9871    4.2360 C   0  0  0  0  0  0  0  0  0  0  0  0
   -4.8058   -0.4660    4.3141 C   0  0  0  0  0  0  0  0  0  0  0  0
   -5.9955   -0.0832    5.1897 C   0  0  0  0  0  0  0  0  0  0  0  0
   -6.0921   -1.3347    6.5405 S   0  0  0  0  0  0  0  0  0  0  0  0
   -4.3113   -4.1964    7.2234 C   0  0  0  0  0  0  0  0  0  0  0  0
   -3.5553   -5.2488    7.5203 C   0  0  0  0  0  0  0  0  0  0  0  0
    5.6381   -5.9132    1.4265 H   0  0  0  0  0  0  0  0  0  0  0  0
    4.0923   -4.4295    2.9520 H   0  0  0  0  0  0  0  0  0  0  0  0
    4.3476   -5.5011   -0.8433 H   0  0  0  0  0  0  0  0  0  0  0  0
    6.6436   -4.9947   -1.5302 H   0  0  0  0  0  0  0  0  0  0  0  0
    6.6086   -3.4763   -0.6093 H   0  0  0  0  0  0  0  0  0  0  0  0
    4.9294   -4.2047   -3.0693 H   0  0  0  0  0  0  0  0  0  0  0  0
    5.9608   -2.7716   -2.8617 H   0  0  0  0  0  0  0  0  0  0  0  0
    2.5050   -2.4048    2.7289 H   0  0  0  0  0  0  0  0  0  0  0  0
    2.4154   -1.1718   -0.0739 H   0  0  0  0  0  0  0  0  0  0  0  0
    1.0229    0.9402   -0.2868 H   0  0  0  0  0  0  0  0  0  0  0  0
    1.6229    0.2277    3.5036 H   0  0  0  0  0  0  0  0  0  0  0  0
    0.7384   -1.9783    4.0775 H   0  0  0  0  0  0  0  0  0  0  0  0
   -0.6319   -1.7496    2.9805 H   0  0  0  0  0  0  0  0  0  0  0  0
   -0.0452   -0.2630    5.5927 H   0  0  0  0  0  0  0  0  0  0  0  0
   -1.5425   -1.1080    5.1345 H   0  0  0  0  0  0  0  0  0  0  0  0
   -1.7041    3.0036    1.6769 H   0  0  0  0  0  0  0  0  0  0  0  0
    0.2297    2.9873   -0.7004 H   0  0  0  0  0  0  0  0  0  0  0  0
   -0.1447    4.7760   -2.4665 H   0  0  0  0  0  0  0  0  0  0  0  0
   -2.4192    5.5951    0.6589 H   0  0  0  0  0  0  0  0  0  0  0  0
   -3.8645    3.6277    0.9817 H   0  0  0  0  0  0  0  0  0  0  0  0
   -4.0328    3.4437   -0.7752 H   0  0  0  0  0  0  0  0  0  0  0  0
   -6.0147    4.7413   -0.1436 H   0  0  0  0  0  0  0  0  0  0  0  0
   -5.0621    5.7478    0.9708 H   0  0  0  0  0  0  0  0  0  0  0  0
   -2.5416    7.4347   -3.7602 H   0  0  0  0  0  0  0  0  0  0  0  0
   -1.7191    6.3138   -5.7462 H   0  0  0  0  0  0  0  0  0  0  0  0
    2.1080    2.9076   -3.8158 H   0  0  0  0  0  0  0  0  0  0  0  0
    2.9474    2.9987   -5.3617 H   0  0  0  0  0  0  0  0  0  0  0  0
    3.0461    0.6828   -3.3620 H   0  0  0  0  0  0  0  0  0  0  0  0
    3.8330    0.6517   -4.9344 H   0  0  0  0  0  0  0  0  0  0  0  0
    4.3335    1.8332   -3.7193 H   0  0  0  0  0  0  0  0  0  0  0  0
    1.4570    2.6570   -7.2750 H   0  0  0  0  0  0  0  0  0  0  0  0
    0.4532    1.2053   -7.3000 H   0  0  0  0  0  0  0  0  0  0  0  0
    3.5016    1.2819   -7.1391 H   0  0  0  0  0  0  0  0  0  0  0  0
    2.5113    0.7195   -8.4833 H   0  0  0  0  0  0  0  0  0  0  0  0
    2.5247   -0.1848   -6.9661 H   0  0  0  0  0  0  0  0  0  0  0  0
    0.4658    4.4348   -6.0098 H   0  0  0  0  0  0  0  0  0  0  0  0
    1.2236   -1.8478   -3.2309 H   0  0  0  0  0  0  0  0  0  0  0  0
   -2.1877   -1.2773    0.1621 H   0  0  0  0  0  0  0  0  0  0  0  0
    1.2380   -3.0232   -0.7029 H   0  0  0  0  0  0  0  0  0  0  0  0
   -0.7212   -4.7887   -2.2264 H   0  0  0  0  0  0  0  0  0  0  0  0
    0.8870   -4.2784   -2.7776 H   0  0  0  0  0  0  0  0  0  0  0  0
    1.9914   -5.5090   -0.9944 H   0  0  0  0  0  0  0  0  0  0  0  0
    0.7301   -6.6440   -1.5342 H   0  0  0  0  0  0  0  0  0  0  0  0
   -1.7471   -4.3431    2.6406 H   0  0  0  0  0  0  0  0  0  0  0  0
   -3.3619   -1.8218    1.9877 H   0  0  0  0  0  0  0  0  0  0  0  0
   -2.7274   -4.5216    4.7943 H   0  0  0  0  0  0  0  0  0  0  0  0
   -5.7280   -2.2703    3.6123 H   0  0  0  0  0  0  0  0  0  0  0  0
   -3.8732   -0.1527    4.7861 H   0  0  0  0  0  0  0  0  0  0  0  0
   -4.8789    0.0125    3.3378 H   0  0  0  0  0  0  0  0  0  0  0  0
   -5.8982    0.8982    5.6484 H   0  0  0  0  0  0  0  0  0  0  0  0
   -6.9328   -0.1326    4.6337 H   0  0  0  0  0  0  0  0  0  0  0  0
   -4.9939   -3.7916    7.9611 H   0  0  0  0  0  0  0  0  0  0  0  0
   -3.5978   -5.7164    8.4886 H   0  0  0  0  0  0  0  0  0  0  0  0
   -2.8720   -5.6832    6.8108 H   0  0  0  0  0  0  0  0  0  0  0  0
  1  2  2  0  0  0  0
  2  3  1  0  0  0  0
  3  4  2  0  0  0  0
  4  5  1  0  0  0  0
  5  6  1  0  0  0  0
  6  7  1  0  0  0  0
  7  8  1  0  0  0  0
  3  9  1  0  0  0  0
  9 10  2  0  0  0  0
 10 11  1  0  0  0  0
 11 12  2  0  0  0  0
 12 13  1  0  0  0  0
 13 14  2  0  0  0  0
 14 15  1  0  0  0  0
 15 16  1  0  0  0  0
 16 17  1  0  0  0  0
 17 18  1  0  0  0  0
 13 19  1  0  0  0  0
 19 20  2  0  0  0  0
 20 21  1  0  0  0  0
 21 22  2  0  0  0  0
 22 23  1  0  0  0  0
 23 24  2  0  0  0  0
 24 25  1  0  0  0  0
 25 26  1  0  0  0  0
 26 27  1  0  0  0  0
 27 28  1  0  0  0  0
 23 29  1  0  0  0  0
 29 30  2  0  0  0  0
 30 31  1  0  0  0  0
 31 32  1  0  0  0  0
 32 33  1  0  0  0  0
 33 34  1  0  0  0  0
 34 35  2  0  0  0  0
 35 36  1  0  0  0  0
 36 37  1  0  0  0  0
 37 38  1  0  0  0  0
 38 39  1  0  0  0  0
 37 40  1  0  0  0  0
 40 41  1  0  0  0  0
 37 42  1  0  0  0  0
 42 43  1  0  0  0  0
 35 44  1  0  0  0  0
 44 45  2  0  0  0  0
 45 46  1  0  0  0  0
 45 47  1  0  0  0  0
 47 48  2  0  0  0  0
 48 49  1  0  0  0  0
 49 50  2  0  0  0  0
 50 51  1  0  0  0  0
 51 52  1  0  0  0  0
 52 53  1  0  0  0  0
 53 54  1  0  0  0  0
 49 55  1  0  0  0  0
 55 56  2  0  0  0  0
 56 57  1  0  0  0  0
 57 58  2  0  0  0  0
 58 59  1  0  0  0  0
 59 60  2  0  0  0  0
 60 61  1  0  0  0  0
 61 62  1  0  0  0  0
 62 63  1  0  0  0  0
 63 64  1  0  0  0  0
 59 65  1  0  0  0  0
 65 66  2  0  0  0  0
  5  1  1  0  0  0  0
 15 11  1  0  0  0  0
 25 21  1  0  0  0  0
 43 31  2  0  0  0  0
 51 47  1  0  0  0  0
 61 57  1  0  0  0  0
  8  4  1  0  0  0  0
 18 14  1  0  0  0  0
 28 24  1  0  0  0  0
 42 33  2  0  0  0  0
 54 50  1  0  0  0  0
 64 60  1  0  0  0  0
 46 34  1  0  0  0  0
  1 67  1  0  0  0  0
  2 68  1  0  0  0  0
  5 69  1  0  0  0  0
  6 70  1  0  0  0  0
  6 71  1  0  0  0  0
  7 72  1  0  0  0  0
  7 73  1  0  0  0  0
  9 74  1  0  0  0  0
 10 75  1  0  0  0  0
 12 76  1  0  0  0  0
 15 77  1  0  0  0  0
 16 78  1  0  0  0  0
 16 79  1  0  0  0  0
 17 80  1  0  0  0  0
 17 81  1  0  0  0  0
 19 82  1  0  0  0  0
 20 83  1  0  0  0  0
 22 84  1  0  0  0  0
 25 85  1  0  0  0  0
 26 86  1  0  0  0  0
 26 87  1  0  0  0  0
 27 88  1  0  0  0  0
 27 89  1  0  0  0  0
 29 90  1  0  0  0  0
 30 91  1  0  0  0  0
 38 92  1  0  0  0  0
 38 93  1  0  0  0  0
 39 94  1  0  0  0  0
 39 95  1  0  0  0  0
 39 96  1  0  0  0  0
 40 97  1  0  0  0  0
 40 98  1  0  0  0  0
 41 99  1  0  0  0  0
 41100  1  0  0  0  0
 41101  1  0  0  0  0
 43102  1  0  0  0  0
 44103  1  0  0  0  0
 48104  1  0  0  0  0
 51105  1  0  0  0  0
 52106  1  0  0  0  0
 52107  1  0  0  0  0
 53108  1  0  0  0  0
 53109  1  0  0  0  0
 55110  1  0  0  0  0
 56111  1  0  0  0  0
 58112  1  0  0  0  0
 61113  1  0  0  0  0
 62114  1  0  0  0  0
 62115  1  0  0  0  0
 63116  1  0  0  0  0
 63117  1  0  0  0  0
 65118  1  0  0  0  0
 66119  1  0  0  0  0
 66120  1  0  0  0  0
M  END
