
  xtb     02282217373D
 energy: -251.569151210745 gnorm: 0.000156966299 xtb: 6.4.1 (unknown)
125137  0     0  0            999 V2000
    8.3366    0.7225    8.3086 C   0  0  0  0  0  0  0  0  0  0  0  0
    6.7127    0.5919    7.7823 S   0  0  0  0  0  0  0  0  0  0  0  0
    7.0349   -0.8358    6.8269 C   0  0  0  0  0  0  0  0  0  0  0  0
    8.3680   -1.1664    6.9444 C   0  0  0  0  0  0  0  0  0  0  0  0
    9.3703   -2.4148    6.2660 S   0  0  0  0  0  0  0  0  0  0  0  0
   10.7751   -1.7615    7.0853 C   0  0  0  0  0  0  0  0  0  0  0  0
   12.0758   -2.4079    6.8852 C   0  0  0  0  0  0  0  0  0  0  0  0
   13.1106   -2.0555    7.3884 O   0  0  0  0  0  0  0  0  0  0  0  0
   11.9402   -3.4558    6.0595 O   0  0  0  0  0  0  0  0  0  0  0  0
   13.1286   -4.1715    5.7252 C   0  0  0  0  0  0  0  0  0  0  0  0
   13.8743   -3.5005    4.5808 C   0  0  0  0  0  0  0  0  0  0  0  0
   10.4821   -0.6613    7.8357 C   0  0  0  0  0  0  0  0  0  0  0  0
    9.1096   -0.2812    7.7821 C   0  0  0  0  0  0  0  0  0  0  0  0
   11.3734    0.0177    8.5512 F   0  0  0  0  0  0  0  0  0  0  0  0
    6.0288   -1.4788    6.0594 C   0  0  0  0  0  0  0  0  0  0  0  0
    4.4499   -0.7730    5.8492 S   0  0  0  0  0  0  0  0  0  0  0  0
    3.9775   -2.0918    4.8360 C   0  0  0  0  0  0  0  0  0  0  0  0
    2.7860   -2.2336    4.0970 C   0  0  0  0  0  0  0  0  0  0  0  0
    2.7257   -3.2393    3.1269 C   0  0  0  0  0  0  0  0  0  0  0  0
    3.7152   -4.1161    2.9031 O   0  0  0  0  0  0  0  0  0  0  0  0
    4.7346   -4.2966    3.9118 C   0  0  0  0  0  0  0  0  0  0  0  0
    4.2040   -5.3905    4.8707 C   0  0  0  0  0  0  0  0  0  0  0  0
    5.1354   -5.7518    6.0190 C   0  0  0  0  0  0  0  0  0  0  0  0
    5.9765   -4.7616    3.1390 C   0  0  0  0  0  0  0  0  0  0  0  0
    6.4811   -3.7006    2.1679 C   0  0  0  0  0  0  0  0  0  0  0  0
    4.9889   -3.0305    4.6873 C   0  0  0  0  0  0  0  0  0  0  0  0
    6.1478   -2.6753    5.3780 C   0  0  0  0  0  0  0  0  0  0  0  0
    1.5662   -3.1707    2.3595 C   0  0  0  0  0  0  0  0  0  0  0  0
    0.7276   -2.1278    2.7332 C   0  0  0  0  0  0  0  0  0  0  0  0
    1.3862   -1.2314    4.0795 S   0  0  0  0  0  0  0  0  0  0  0  0
   -0.4621   -1.7602    2.0751 C   0  0  0  0  0  0  0  0  0  0  0  0
   -0.9115   -2.6254    0.6253 S   0  0  0  0  0  0  0  0  0  0  0  0
   -2.2628   -1.5682    0.2870 C   0  0  0  0  0  0  0  0  0  0  0  0
   -2.3587   -0.6234    1.3011 C   0  0  0  0  0  0  0  0  0  0  0  0
   -3.4687    0.6762    1.5505 S   0  0  0  0  0  0  0  0  0  0  0  0
   -2.6401    1.1043    3.0249 C   0  0  0  0  0  0  0  0  0  0  0  0
   -3.1654    2.2638    3.7585 C   0  0  0  0  0  0  0  0  0  0  0  0
   -2.6835    2.7588    4.7438 O   0  0  0  0  0  0  0  0  0  0  0  0
   -4.2719    2.6805    3.1346 O   0  0  0  0  0  0  0  0  0  0  0  0
   -4.9326    3.8576    3.5979 C   0  0  0  0  0  0  0  0  0  0  0  0
   -5.0982    4.8314    2.4419 C   0  0  0  0  0  0  0  0  0  0  0  0
   -1.5721    0.2925    3.2911 C   0  0  0  0  0  0  0  0  0  0  0  0
   -1.3708   -0.7208    2.3140 C   0  0  0  0  0  0  0  0  0  0  0  0
   -0.8105    0.4321    4.3737 F   0  0  0  0  0  0  0  0  0  0  0  0
   -3.0456   -1.6097   -0.8774 C   0  0  0  0  0  0  0  0  0  0  0  0
   -4.1391   -0.2876   -1.1756 S   0  0  0  0  0  0  0  0  0  0  0  0
   -4.6002   -0.8834   -2.7559 C   0  0  0  0  0  0  0  0  0  0  0  0
   -3.9526   -2.0886   -2.9883 C   0  0  0  0  0  0  0  0  0  0  0  0
   -3.9882   -3.1922   -4.3219 S   0  0  0  0  0  0  0  0  0  0  0  0
   -2.8544   -4.2396   -3.5002 C   0  0  0  0  0  0  0  0  0  0  0  0
   -2.4380   -5.4857   -4.1457 C   0  0  0  0  0  0  0  0  0  0  0  0
   -1.6706   -6.2890   -3.6811 O   0  0  0  0  0  0  0  0  0  0  0  0
   -3.0331   -5.5957   -5.3432 O   0  0  0  0  0  0  0  0  0  0  0  0
   -2.7536   -6.7742   -6.0969 C   0  0  0  0  0  0  0  0  0  0  0  0
   -3.6368   -7.9344   -5.6609 C   0  0  0  0  0  0  0  0  0  0  0  0
   -2.4755   -3.7476   -2.2798 C   0  0  0  0  0  0  0  0  0  0  0  0
   -3.0821   -2.5103   -1.9498 C   0  0  0  0  0  0  0  0  0  0  0  0
   -1.6283   -4.3814   -1.4722 F   0  0  0  0  0  0  0  0  0  0  0  0
   -5.4246   -0.1497   -3.6286 C   0  0  0  0  0  0  0  0  0  0  0  0
   -5.7235   -0.7462   -5.2388 S   0  0  0  0  0  0  0  0  0  0  0  0
   -6.5933    0.6958   -5.7188 C   0  0  0  0  0  0  0  0  0  0  0  0
   -6.6726    1.5626   -4.6497 C   0  0  0  0  0  0  0  0  0  0  0  0
   -7.4817    3.0817   -4.4280 S   0  0  0  0  0  0  0  0  0  0  0  0
   -6.9581    3.1299   -2.7658 C   0  0  0  0  0  0  0  0  0  0  0  0
   -7.2992    4.2784   -1.9232 C   0  0  0  0  0  0  0  0  0  0  0  0
   -6.9754    4.4108   -0.7692 O   0  0  0  0  0  0  0  0  0  0  0  0
   -8.0283    5.1584   -2.6203 O   0  0  0  0  0  0  0  0  0  0  0  0
   -8.3888    6.3684   -1.9561 C   0  0  0  0  0  0  0  0  0  0  0  0
   -7.2540    7.3816   -2.0005 C   0  0  0  0  0  0  0  0  0  0  0  0
   -6.2177    2.0343   -2.4125 C   0  0  0  0  0  0  0  0  0  0  0  0
   -6.0344    1.0995   -3.4628 C   0  0  0  0  0  0  0  0  0  0  0  0
   -5.7430    1.8718   -1.1782 F   0  0  0  0  0  0  0  0  0  0  0  0
   -7.1012    0.8366   -7.0397 C   0  0  0  0  0  0  0  0  0  0  0  0
   -7.8124   -0.5129   -7.8791 S   0  0  0  0  0  0  0  0  0  0  0  0
   -8.1882    0.4313   -9.2694 C   0  0  0  0  0  0  0  0  0  0  0  0
   -7.7787    1.7170   -9.1028 C   0  0  0  0  0  0  0  0  0  0  0  0
   -7.7966    3.1282  -10.1245 S   0  0  0  0  0  0  0  0  0  0  0  0
   -6.9029    4.0272   -8.9151 C   0  0  0  0  0  0  0  0  0  0  0  0
   -6.5081    5.4096   -9.1946 C   0  0  0  0  0  0  0  0  0  0  0  0
   -5.9107    6.1278   -8.4345 O   0  0  0  0  0  0  0  0  0  0  0  0
   -6.9190    5.7647  -10.4209 O   0  0  0  0  0  0  0  0  0  0  0  0
   -6.5837    7.0815  -10.8553 C   0  0  0  0  0  0  0  0  0  0  0  0
   -5.1646    7.1414  -11.4023 C   0  0  0  0  0  0  0  0  0  0  0  0
   -6.6372    3.2910   -7.7945 C   0  0  0  0  0  0  0  0  0  0  0  0
   -7.1462    1.9665   -7.8437 C   0  0  0  0  0  0  0  0  0  0  0  0
   -5.9133    3.7475   -6.7757 F   0  0  0  0  0  0  0  0  0  0  0  0
    8.6334    1.5171    8.9622 H   0  0  0  0  0  0  0  0  0  0  0  0
   12.7869   -5.1696    5.4440 H   0  0  0  0  0  0  0  0  0  0  0  0
   13.7677   -4.2290    6.6124 H   0  0  0  0  0  0  0  0  0  0  0  0
   14.2153   -2.5144    4.8872 H   0  0  0  0  0  0  0  0  0  0  0  0
   13.2227   -3.3975    3.7162 H   0  0  0  0  0  0  0  0  0  0  0  0
   14.7370   -4.1008    4.3072 H   0  0  0  0  0  0  0  0  0  0  0  0
    3.2543   -5.0321    5.2782 H   0  0  0  0  0  0  0  0  0  0  0  0
    3.9929   -6.2772    4.2697 H   0  0  0  0  0  0  0  0  0  0  0  0
    6.0666   -6.1752    5.6533 H   0  0  0  0  0  0  0  0  0  0  0  0
    4.6545   -6.4916    6.6541 H   0  0  0  0  0  0  0  0  0  0  0  0
    5.3634   -4.8785    6.6251 H   0  0  0  0  0  0  0  0  0  0  0  0
    6.7624   -5.0207    3.8464 H   0  0  0  0  0  0  0  0  0  0  0  0
    5.6998   -5.6586    2.5832 H   0  0  0  0  0  0  0  0  0  0  0  0
    6.7983   -2.8068    2.7004 H   0  0  0  0  0  0  0  0  0  0  0  0
    7.3270   -4.0853    1.6043 H   0  0  0  0  0  0  0  0  0  0  0  0
    5.6941   -3.4287    1.4692 H   0  0  0  0  0  0  0  0  0  0  0  0
    7.0511   -3.2560    5.3950 H   0  0  0  0  0  0  0  0  0  0  0  0
    1.3463   -3.8402    1.5484 H   0  0  0  0  0  0  0  0  0  0  0  0
   -4.3417    4.2923    4.4113 H   0  0  0  0  0  0  0  0  0  0  0  0
   -5.9082    3.5466    3.9848 H   0  0  0  0  0  0  0  0  0  0  0  0
   -4.1252    5.1496    2.0754 H   0  0  0  0  0  0  0  0  0  0  0  0
   -5.6416    4.3634    1.6246 H   0  0  0  0  0  0  0  0  0  0  0  0
   -5.6494    5.7038    2.7811 H   0  0  0  0  0  0  0  0  0  0  0  0
   -1.6973   -7.0333   -5.9687 H   0  0  0  0  0  0  0  0  0  0  0  0
   -2.9482   -6.4970   -7.1348 H   0  0  0  0  0  0  0  0  0  0  0  0
   -3.4176   -8.2004   -4.6296 H   0  0  0  0  0  0  0  0  0  0  0  0
   -3.4450   -8.7955   -6.2944 H   0  0  0  0  0  0  0  0  0  0  0  0
   -4.6857   -7.6590   -5.7411 H   0  0  0  0  0  0  0  0  0  0  0  0
   -9.2662    6.7333   -2.4934 H   0  0  0  0  0  0  0  0  0  0  0  0
   -8.6525    6.1374   -0.9185 H   0  0  0  0  0  0  0  0  0  0  0  0
   -6.9542    7.5626   -3.0299 H   0  0  0  0  0  0  0  0  0  0  0  0
   -7.5819    8.3160   -1.5544 H   0  0  0  0  0  0  0  0  0  0  0  0
   -6.3988    7.0061   -1.4437 H   0  0  0  0  0  0  0  0  0  0  0  0
   -8.6742   -0.0183  -10.1100 H   0  0  0  0  0  0  0  0  0  0  0  0
   -6.6930    7.7705  -10.0111 H   0  0  0  0  0  0  0  0  0  0  0  0
   -7.3166    7.3177  -11.6292 H   0  0  0  0  0  0  0  0  0  0  0  0
   -4.4528    6.9138  -10.6125 H   0  0  0  0  0  0  0  0  0  0  0  0
   -4.9625    8.1391  -11.7809 H   0  0  0  0  0  0  0  0  0  0  0  0
   -5.0418    6.4222  -12.2087 H   0  0  0  0  0  0  0  0  0  0  0  0
  1  2  1  0  0  0  0
  2  3  1  0  0  0  0
  3  4  2  0  0  0  0
  4  5  1  0  0  0  0
  5  6  1  0  0  0  0
  6  7  1  0  0  0  0
  7  8  2  0  0  0  0
  7  9  1  0  0  0  0
  9 10  1  0  0  0  0
 10 11  1  0  0  0  0
  6 12  2  0  0  0  0
 12 13  1  0  0  0  0
 12 14  1  0  0  0  0
  3 15  1  0  0  0  0
 15 16  1  0  0  0  0
 16 17  1  0  0  0  0
 17 18  1  0  0  0  0
 18 19  2  0  0  0  0
 19 20  1  0  0  0  0
 20 21  1  0  0  0  0
 21 22  1  0  0  0  0
 22 23  1  0  0  0  0
 21 24  1  0  0  0  0
 24 25  1  0  0  0  0
 21 26  1  0  0  0  0
 26 27  1  0  0  0  0
 19 28  1  0  0  0  0
 28 29  2  0  0  0  0
 29 30  1  0  0  0  0
 29 31  1  0  0  0  0
 31 32  1  0  0  0  0
 32 33  1  0  0  0  0
 33 34  2  0  0  0  0
 34 35  1  0  0  0  0
 35 36  1  0  0  0  0
 36 37  1  0  0  0  0
 37 38  2  0  0  0  0
 37 39  1  0  0  0  0
 39 40  1  0  0  0  0
 40 41  1  0  0  0  0
 36 42  2  0  0  0  0
 42 43  1  0  0  0  0
 42 44  1  0  0  0  0
 33 45  1  0  0  0  0
 45 46  1  0  0  0  0
 46 47  1  0  0  0  0
 47 48  2  0  0  0  0
 48 49  1  0  0  0  0
 49 50  1  0  0  0  0
 50 51  1  0  0  0  0
 51 52  2  0  0  0  0
 51 53  1  0  0  0  0
 53 54  1  0  0  0  0
 54 55  1  0  0  0  0
 50 56  2  0  0  0  0
 56 57  1  0  0  0  0
 56 58  1  0  0  0  0
 47 59  1  0  0  0  0
 59 60  1  0  0  0  0
 60 61  1  0  0  0  0
 61 62  2  0  0  0  0
 62 63  1  0  0  0  0
 63 64  1  0  0  0  0
 64 65  1  0  0  0  0
 65 66  2  0  0  0  0
 65 67  1  0  0  0  0
 67 68  1  0  0  0  0
 68 69  1  0  0  0  0
 64 70  2  0  0  0  0
 70 71  1  0  0  0  0
 70 72  1  0  0  0  0
 61 73  1  0  0  0  0
 73 74  1  0  0  0  0
 74 75  1  0  0  0  0
 75 76  2  0  0  0  0
 76 77  1  0  0  0  0
 77 78  1  0  0  0  0
 78 79  1  0  0  0  0
 79 80  2  0  0  0  0
 79 81  1  0  0  0  0
 81 82  1  0  0  0  0
 82 83  1  0  0  0  0
 78 84  2  0  0  0  0
 84 85  1  0  0  0  0
 84 86  1  0  0  0  0
 13  1  2  0  0  0  0
 27 15  2  0  0  0  0
 43 31  2  0  0  0  0
 57 45  2  0  0  0  0
 71 59  2  0  0  0  0
 85 73  2  0  0  0  0
 13  4  1  0  0  0  0
 26 17  2  0  0  0  0
 43 34  1  0  0  0  0
 57 48  1  0  0  0  0
 71 62  1  0  0  0  0
 85 76  1  0  0  0  0
 30 18  1  0  0  0  0
  1 87  1  0  0  0  0
 10 88  1  0  0  0  0
 10 89  1  0  0  0  0
 11 90  1  0  0  0  0
 11 91  1  0  0  0  0
 11 92  1  0  0  0  0
 22 93  1  0  0  0  0
 22 94  1  0  0  0  0
 23 95  1  0  0  0  0
 23 96  1  0  0  0  0
 23 97  1  0  0  0  0
 24 98  1  0  0  0  0
 24 99  1  0  0  0  0
 25100  1  0  0  0  0
 25101  1  0  0  0  0
 25102  1  0  0  0  0
 27103  1  0  0  0  0
 28104  1  0  0  0  0
 40105  1  0  0  0  0
 40106  1  0  0  0  0
 41107  1  0  0  0  0
 41108  1  0  0  0  0
 41109  1  0  0  0  0
 54110  1  0  0  0  0
 54111  1  0  0  0  0
 55112  1  0  0  0  0
 55113  1  0  0  0  0
 55114  1  0  0  0  0
 68115  1  0  0  0  0
 68116  1  0  0  0  0
 69117  1  0  0  0  0
 69118  1  0  0  0  0
 69119  1  0  0  0  0
 75120  1  0  0  0  0
 82121  1  0  0  0  0
 82122  1  0  0  0  0
 83123  1  0  0  0  0
 83124  1  0  0  0  0
 83125  1  0  0  0  0
M  END
