
  xtb     03012215383D
 energy: -178.368437418129 gnorm: 0.000654081661 xtb: 6.4.1 (unknown)
105112  0     0  0            999 V2000
   -3.0624    1.2451    3.4082 C   0  0  0  0  0  0  0  0  0  0  0  0
   -2.5470    1.6148    2.3857 C   0  0  0  0  0  0  0  0  0  0  0  0
   -1.9418    2.0676    1.2110 C   0  0  0  0  0  0  0  0  0  0  0  0
   -0.3278    2.7227    1.2301 S   0  0  0  0  0  0  0  0  0  0  0  0
   -0.4055    3.0260   -0.4854 C   0  0  0  0  0  0  0  0  0  0  0  0
   -1.6094    2.6189   -1.0112 C   0  0  0  0  0  0  0  0  0  0  0  0
   -2.4773    2.0850   -0.0532 C   0  0  0  0  0  0  0  0  0  0  0  0
    0.6367    3.6410   -1.1659 C   0  0  0  0  0  0  0  0  0  0  0  0
    1.5250    4.2246   -1.7519 C   0  0  0  0  0  0  0  0  0  0  0  0
    2.5125    4.8632   -2.5030 C   0  0  0  0  0  0  0  0  0  0  0  0
    2.7032    4.5901   -3.8146 C   0  0  0  0  0  0  0  0  0  0  0  0
    1.9609    3.5957   -4.4474 C   0  0  0  0  0  0  0  0  0  0  0  0
    1.3316    2.6705   -4.9178 C   0  0  0  0  0  0  0  0  0  0  0  0
    0.6557    1.5096   -5.2600 C   0  0  0  0  0  0  0  0  0  0  0  0
   -0.3678    0.7734   -4.0504 S   0  0  0  0  0  0  0  0  0  0  0  0
   -0.5863   -0.6322   -5.0626 C   0  0  0  0  0  0  0  0  0  0  0  0
    0.0497   -0.4847   -6.2721 C   0  0  0  0  0  0  0  0  0  0  0  0
    0.7522    0.7212   -6.3830 C   0  0  0  0  0  0  0  0  0  0  0  0
   -1.2508   -1.7360   -4.5371 C   0  0  0  0  0  0  0  0  0  0  0  0
   -1.7630   -2.6573   -3.9370 C   0  0  0  0  0  0  0  0  0  0  0  0
   -2.3420   -3.7060   -3.2161 C   0  0  0  0  0  0  0  0  0  0  0  0
   -1.7730   -4.2087   -2.1004 C   0  0  0  0  0  0  0  0  0  0  0  0
   -0.5246   -3.7971   -1.6283 C   0  0  0  0  0  0  0  0  0  0  0  0
    0.5846   -3.4563   -1.2728 C   0  0  0  0  0  0  0  0  0  0  0  0
    1.8423   -3.0486   -0.8475 C   0  0  0  0  0  0  0  0  0  0  0  0
    2.2213   -2.9015    0.8479 S   0  0  0  0  0  0  0  0  0  0  0  0
    3.8373   -2.3665    0.4653 C   0  0  0  0  0  0  0  0  0  0  0  0
    4.0396   -2.3163   -0.8965 C   0  0  0  0  0  0  0  0  0  0  0  0
    2.9172   -2.6979   -1.6337 C   0  0  0  0  0  0  0  0  0  0  0  0
    4.7346   -2.0881    1.4856 C   0  0  0  0  0  0  0  0  0  0  0  0
    5.4874   -1.8936    2.4179 C   0  0  0  0  0  0  0  0  0  0  0  0
    6.3566   -1.7304    3.4956 C   0  0  0  0  0  0  0  0  0  0  0  0
    5.9192   -1.5683    4.7651 C   0  0  0  0  0  0  0  0  0  0  0  0
    4.5628   -1.4542    5.0690 C   0  0  0  0  0  0  0  0  0  0  0  0
    3.3733   -1.3140    5.2637 C   0  0  0  0  0  0  0  0  0  0  0  0
    2.0029   -1.1420    5.3956 C   0  0  0  0  0  0  0  0  0  0  0  0
    1.0823   -1.8481    6.6982 S   0  0  0  0  0  0  0  0  0  0  0  0
   -0.3981   -1.2262    6.0180 C   0  0  0  0  0  0  0  0  0  0  0  0
   -0.1553   -0.4869    4.8778 C   0  0  0  0  0  0  0  0  0  0  0  0
    1.1926   -0.4484    4.5245 C   0  0  0  0  0  0  0  0  0  0  0  0
   -1.6580   -1.5761    6.4825 C   0  0  0  0  0  0  0  0  0  0  0  0
   -2.8114   -1.9314    6.6441 C   0  0  0  0  0  0  0  0  0  0  0  0
   -4.1467   -2.3191    6.7235 C   0  0  0  0  0  0  0  0  0  0  0  0
   -4.9272   -2.4736    5.6234 C   0  0  0  0  0  0  0  0  0  0  0  0
   -4.5159   -2.3027    4.2714 C   0  0  0  0  0  0  0  0  0  0  0  0
   -2.8436   -2.0369    3.8451 S   0  0  0  0  0  0  0  0  0  0  0  0
   -3.2618   -1.9030    2.1861 C   0  0  0  0  0  0  0  0  0  0  0  0
   -2.4004   -1.5421    1.1317 C   0  0  0  0  0  0  0  0  0  0  0  0
   -2.9426   -1.2768   -0.1152 C   0  0  0  0  0  0  0  0  0  0  0  0
   -4.2593   -1.3790   -0.3864 O   0  0  0  0  0  0  0  0  0  0  0  0
   -5.1342   -2.0677    0.5362 C   0  0  0  0  0  0  0  0  0  0  0  0
   -5.2334   -3.5435    0.0781 C   0  0  0  0  0  0  0  0  0  0  0  0
   -5.7159   -3.7057   -1.3580 C   0  0  0  0  0  0  0  0  0  0  0  0
   -6.4808   -1.3355    0.4343 C   0  0  0  0  0  0  0  0  0  0  0  0
   -6.4108    0.0752    1.0078 C   0  0  0  0  0  0  0  0  0  0  0  0
   -4.6135   -2.0752    1.9540 C   0  0  0  0  0  0  0  0  0  0  0  0
   -5.3153   -2.3126    3.1404 C   0  0  0  0  0  0  0  0  0  0  0  0
   -1.9889   -0.8063   -1.0297 C   0  0  0  0  0  0  0  0  0  0  0  0
   -0.7339   -0.7083   -0.4714 C   0  0  0  0  0  0  0  0  0  0  0  0
   -0.7125   -1.2078    1.2010 S   0  0  0  0  0  0  0  0  0  0  0  0
    0.4351   -0.2546   -1.0578 C   0  0  0  0  0  0  0  0  0  0  0  0
    1.4933    0.1382   -1.5039 C   0  0  0  0  0  0  0  0  0  0  0  0
    2.6454    0.6280   -2.0981 C   0  0  0  0  0  0  0  0  0  0  0  0
    3.6818    1.7414   -1.2532 S   0  0  0  0  0  0  0  0  0  0  0  0
    4.7013    1.8903   -2.6598 C   0  0  0  0  0  0  0  0  0  0  0  0
    4.2593    1.0913   -3.6896 C   0  0  0  0  0  0  0  0  0  0  0  0
    3.1028    0.3779   -3.3720 C   0  0  0  0  0  0  0  0  0  0  0  0
    5.7865    2.7574   -2.6696 C   0  0  0  0  0  0  0  0  0  0  0  0
    6.7099    3.5417   -2.6769 C   0  0  0  0  0  0  0  0  0  0  0  0
    7.7846    4.4411   -2.7224 C   0  0  0  0  0  0  0  0  0  0  0  0
    8.1165    5.2435   -1.7126 C   0  0  0  0  0  0  0  0  0  0  0  0
   -3.5172    0.9109    4.2926 H   0  0  0  0  0  0  0  0  0  0  0  0
   -1.8457    2.7187   -2.0553 H   0  0  0  0  0  0  0  0  0  0  0  0
   -3.4665    1.7238   -0.2719 H   0  0  0  0  0  0  0  0  0  0  0  0
    3.1292    5.5918   -1.9946 H   0  0  0  0  0  0  0  0  0  0  0  0
    3.4637    5.1034   -4.3862 H   0  0  0  0  0  0  0  0  0  0  0  0
    0.0293   -1.2426   -7.0354 H   0  0  0  0  0  0  0  0  0  0  0  0
    1.3367    1.0014   -7.2416 H   0  0  0  0  0  0  0  0  0  0  0  0
   -3.2874   -4.0922   -3.5739 H   0  0  0  0  0  0  0  0  0  0  0  0
   -2.2753   -4.9824   -1.5332 H   0  0  0  0  0  0  0  0  0  0  0  0
    4.9733   -2.0076   -1.3329 H   0  0  0  0  0  0  0  0  0  0  0  0
    2.8781   -2.7266   -2.7080 H   0  0  0  0  0  0  0  0  0  0  0  0
    7.4167   -1.7672    3.2807 H   0  0  0  0  0  0  0  0  0  0  0  0
    6.6213   -1.5062    5.5860 H   0  0  0  0  0  0  0  0  0  0  0  0
   -0.9337    0.0012    4.3194 H   0  0  0  0  0  0  0  0  0  0  0  0
    1.5762    0.0600    3.6582 H   0  0  0  0  0  0  0  0  0  0  0  0
   -4.5593   -2.4977    7.7071 H   0  0  0  0  0  0  0  0  0  0  0  0
   -5.9664   -2.7438    5.7599 H   0  0  0  0  0  0  0  0  0  0  0  0
   -4.2325   -3.9743    0.1739 H   0  0  0  0  0  0  0  0  0  0  0  0
   -5.8928   -4.0766    0.7650 H   0  0  0  0  0  0  0  0  0  0  0  0
   -5.5738   -4.7339   -1.6836 H   0  0  0  0  0  0  0  0  0  0  0  0
   -5.1510   -3.0469   -2.0132 H   0  0  0  0  0  0  0  0  0  0  0  0
   -6.7719   -3.4649   -1.4464 H   0  0  0  0  0  0  0  0  0  0  0  0
   -6.7504   -1.2762   -0.6200 H   0  0  0  0  0  0  0  0  0  0  0  0
   -7.2408   -1.9188    0.9551 H   0  0  0  0  0  0  0  0  0  0  0  0
   -7.3614    0.5842    0.8688 H   0  0  0  0  0  0  0  0  0  0  0  0
   -5.6357    0.6451    0.5018 H   0  0  0  0  0  0  0  0  0  0  0  0
   -6.1780    0.0559    2.0698 H   0  0  0  0  0  0  0  0  0  0  0  0
   -6.3782   -2.4706    3.1928 H   0  0  0  0  0  0  0  0  0  0  0  0
   -2.2037   -0.5398   -2.0473 H   0  0  0  0  0  0  0  0  0  0  0  0
    4.7583    1.0418   -4.6410 H   0  0  0  0  0  0  0  0  0  0  0  0
    2.6063   -0.2994   -4.0439 H   0  0  0  0  0  0  0  0  0  0  0  0
    8.3443    4.4507   -3.6507 H   0  0  0  0  0  0  0  0  0  0  0  0
    8.9480    5.9228   -1.7848 H   0  0  0  0  0  0  0  0  0  0  0  0
    7.5669    5.2393   -0.7862 H   0  0  0  0  0  0  0  0  0  0  0  0
  1  2  3  0  0  0  0
  2  3  1  0  0  0  0
  3  4  1  0  0  0  0
  4  5  1  0  0  0  0
  5  6  2  0  0  0  0
  6  7  1  0  0  0  0
  5  8  1  0  0  0  0
  8  9  3  0  0  0  0
  9 10  1  0  0  0  0
 10 11  2  0  0  0  0
 11 12  1  0  0  0  0
 12 13  3  0  0  0  0
 13 14  1  0  0  0  0
 14 15  1  0  0  0  0
 15 16  1  0  0  0  0
 16 17  2  0  0  0  0
 17 18  1  0  0  0  0
 16 19  1  0  0  0  0
 19 20  3  0  0  0  0
 20 21  1  0  0  0  0
 21 22  2  0  0  0  0
 22 23  1  0  0  0  0
 23 24  3  0  0  0  0
 24 25  1  0  0  0  0
 25 26  1  0  0  0  0
 26 27  1  0  0  0  0
 27 28  2  0  0  0  0
 28 29  1  0  0  0  0
 27 30  1  0  0  0  0
 30 31  3  0  0  0  0
 31 32  1  0  0  0  0
 32 33  2  0  0  0  0
 33 34  1  0  0  0  0
 34 35  3  0  0  0  0
 35 36  1  0  0  0  0
 36 37  1  0  0  0  0
 37 38  1  0  0  0  0
 38 39  2  0  0  0  0
 39 40  1  0  0  0  0
 38 41  1  0  0  0  0
 41 42  3  0  0  0  0
 42 43  1  0  0  0  0
 43 44  2  0  0  0  0
 44 45  1  0  0  0  0
 45 46  1  0  0  0  0
 46 47  1  0  0  0  0
 47 48  1  0  0  0  0
 48 49  2  0  0  0  0
 49 50  1  0  0  0  0
 50 51  1  0  0  0  0
 51 52  1  0  0  0  0
 52 53  1  0  0  0  0
 51 54  1  0  0  0  0
 54 55  1  0  0  0  0
 51 56  1  0  0  0  0
 56 57  1  0  0  0  0
 49 58  1  0  0  0  0
 58 59  2  0  0  0  0
 59 60  1  0  0  0  0
 59 61  1  0  0  0  0
 61 62  3  0  0  0  0
 62 63  1  0  0  0  0
 63 64  1  0  0  0  0
 64 65  1  0  0  0  0
 65 66  2  0  0  0  0
 66 67  1  0  0  0  0
 65 68  1  0  0  0  0
 68 69  3  0  0  0  0
 69 70  1  0  0  0  0
 70 71  2  0  0  0  0
  7  3  2  0  0  0  0
 18 14  2  0  0  0  0
 29 25  2  0  0  0  0
 40 36  2  0  0  0  0
 57 45  2  0  0  0  0
 67 63  2  0  0  0  0
 56 47  2  0  0  0  0
 60 48  1  0  0  0  0
  1 72  1  0  0  0  0
  6 73  1  0  0  0  0
  7 74  1  0  0  0  0
 10 75  1  0  0  0  0
 11 76  1  0  0  0  0
 17 77  1  0  0  0  0
 18 78  1  0  0  0  0
 21 79  1  0  0  0  0
 22 80  1  0  0  0  0
 28 81  1  0  0  0  0
 29 82  1  0  0  0  0
 32 83  1  0  0  0  0
 33 84  1  0  0  0  0
 39 85  1  0  0  0  0
 40 86  1  0  0  0  0
 43 87  1  0  0  0  0
 44 88  1  0  0  0  0
 52 89  1  0  0  0  0
 52 90  1  0  0  0  0
 53 91  1  0  0  0  0
 53 92  1  0  0  0  0
 53 93  1  0  0  0  0
 54 94  1  0  0  0  0
 54 95  1  0  0  0  0
 55 96  1  0  0  0  0
 55 97  1  0  0  0  0
 55 98  1  0  0  0  0
 57 99  1  0  0  0  0
 58100  1  0  0  0  0
 66101  1  0  0  0  0
 67102  1  0  0  0  0
 70103  1  0  0  0  0
 71104  1  0  0  0  0
 71105  1  0  0  0  0
M  END
