
  xtb     03012205213D
 energy: -428.059477604438 gnorm: 0.000192156022 xtb: 6.4.1 (unknown)
226251  0     0  0            999 V2000
    2.5972  -13.4735    1.0846 C   0  0  0  0  0  0  0  0  0  0  0  0
    3.0311  -12.1987    1.1583 C   0  0  0  0  0  0  0  0  0  0  0  0
    2.4940  -11.3712    0.1296 C   0  0  0  0  0  0  0  0  0  0  0  0
    2.6899   -9.9955   -0.0747 C   0  0  0  0  0  0  0  0  0  0  0  0
    3.6534   -9.2346    0.7035 C   0  0  0  0  0  0  0  0  0  0  0  0
    3.2414   -7.7160    1.4457 S   0  0  0  0  0  0  0  0  0  0  0  0
    4.8363   -7.4980    2.0793 C   0  0  0  0  0  0  0  0  0  0  0  0
    5.2078   -6.2814    2.8551 C   0  0  0  0  0  0  0  0  0  0  0  0
    5.9780   -5.2824    1.9879 C   0  0  0  0  0  0  0  0  0  0  0  0
    5.6335   -8.5438    1.7189 C   0  0  0  0  0  0  0  0  0  0  0  0
    7.2858   -8.6786    2.1618 Cl  0  0  0  0  0  0  0  0  0  0  0  0
    4.9691   -9.5288    0.9408 C   0  0  0  0  0  0  0  0  0  0  0  0
    5.7860  -10.8948    0.2978 Cl  0  0  0  0  0  0  0  0  0  0  0  0
    1.9280   -9.3973   -1.0710 C   0  0  0  0  0  0  0  0  0  0  0  0
    1.0400  -10.1151   -1.9082 C   0  0  0  0  0  0  0  0  0  0  0  0
    0.8984  -11.5035   -1.7485 C   0  0  0  0  0  0  0  0  0  0  0  0
    0.0248  -12.2757   -2.6161 C   0  0  0  0  0  0  0  0  0  0  0  0
   -1.6402  -11.8296   -2.8499 S   0  0  0  0  0  0  0  0  0  0  0  0
   -1.9254  -13.1467   -3.9362 C   0  0  0  0  0  0  0  0  0  0  0  0
   -3.2460  -13.3165   -4.6019 C   0  0  0  0  0  0  0  0  0  0  0  0
   -3.4369  -12.2761   -5.7083 C   0  0  0  0  0  0  0  0  0  0  0  0
   -0.7876  -13.8785   -4.0985 C   0  0  0  0  0  0  0  0  0  0  0  0
    0.3175  -13.3931   -3.3475 C   0  0  0  0  0  0  0  0  0  0  0  0
    1.8740  -14.1027   -3.4441 Cl  0  0  0  0  0  0  0  0  0  0  0  0
   -0.6712  -15.2600   -5.1097 Cl  0  0  0  0  0  0  0  0  0  0  0  0
    1.6189  -12.0949   -0.7163 C   0  0  0  0  0  0  0  0  0  0  0  0
    1.5146  -13.7629   -0.2310 S   0  0  0  0  0  0  0  0  0  0  0  0
    0.4142   -9.2720   -2.8630 C   0  0  0  0  0  0  0  0  0  0  0  0
    0.7845   -7.9667   -2.7570 C   0  0  0  0  0  0  0  0  0  0  0  0
    1.9595   -7.7082   -1.4805 S   0  0  0  0  0  0  0  0  0  0  0  0
    0.3453   -6.8404   -3.5118 C   0  0  0  0  0  0  0  0  0  0  0  0
    0.7390   -5.5530   -3.3086 C   0  0  0  0  0  0  0  0  0  0  0  0
    0.1588   -4.6310   -4.2090 C   0  0  0  0  0  0  0  0  0  0  0  0
    0.3288   -3.2373   -4.2425 C   0  0  0  0  0  0  0  0  0  0  0  0
    1.0684   -2.5390   -3.2051 C   0  0  0  0  0  0  0  0  0  0  0  0
    2.6616   -3.0170   -2.6984 S   0  0  0  0  0  0  0  0  0  0  0  0
    2.6998   -1.8473   -1.4264 C   0  0  0  0  0  0  0  0  0  0  0  0
    3.8083   -1.8149   -0.4341 C   0  0  0  0  0  0  0  0  0  0  0  0
    3.4151   -2.6297    0.8022 C   0  0  0  0  0  0  0  0  0  0  0  0
    1.5468   -1.1214   -1.4167 C   0  0  0  0  0  0  0  0  0  0  0  0
    1.2207    0.1309   -0.2898 Cl  0  0  0  0  0  0  0  0  0  0  0  0
    0.6207   -1.5082   -2.4209 C   0  0  0  0  0  0  0  0  0  0  0  0
   -0.9432   -0.8149   -2.5180 Cl  0  0  0  0  0  0  0  0  0  0  0  0
   -0.3382   -2.5547   -5.2507 C   0  0  0  0  0  0  0  0  0  0  0  0
   -1.2665   -3.1679   -6.1287 C   0  0  0  0  0  0  0  0  0  0  0  0
   -1.4946   -4.5528   -6.0362 C   0  0  0  0  0  0  0  0  0  0  0  0
   -2.5138   -5.2129   -6.8343 C   0  0  0  0  0  0  0  0  0  0  0  0
   -2.1664   -6.6525   -7.7437 S   0  0  0  0  0  0  0  0  0  0  0  0
   -3.8030   -6.7987   -8.2879 C   0  0  0  0  0  0  0  0  0  0  0  0
   -4.2307   -7.9516   -9.1267 C   0  0  0  0  0  0  0  0  0  0  0  0
   -4.4004   -9.2103   -8.2724 C   0  0  0  0  0  0  0  0  0  0  0  0
   -4.5630   -5.7873   -7.7809 C   0  0  0  0  0  0  0  0  0  0  0  0
   -3.8355   -4.8838   -6.9602 C   0  0  0  0  0  0  0  0  0  0  0  0
   -4.5892   -3.5753   -6.1435 Cl  0  0  0  0  0  0  0  0  0  0  0  0
   -6.2413   -5.6003   -8.0877 Cl  0  0  0  0  0  0  0  0  0  0  0  0
   -0.7297   -5.2603   -5.1141 C   0  0  0  0  0  0  0  0  0  0  0  0
   -0.8030   -6.9808   -4.8273 S   0  0  0  0  0  0  0  0  0  0  0  0
   -1.8678   -2.2190   -7.0028 C   0  0  0  0  0  0  0  0  0  0  0  0
   -1.4035   -0.9548   -6.8219 C   0  0  0  0  0  0  0  0  0  0  0  0
   -0.1583   -0.8667   -5.5892 S   0  0  0  0  0  0  0  0  0  0  0  0
   -1.8720    0.3271   -7.2736 C   0  0  0  0  0  0  0  0  0  0  0  0
   -3.1488    0.7982   -7.2369 C   0  0  0  0  0  0  0  0  0  0  0  0
   -3.2210    2.2176   -7.2205 C   0  0  0  0  0  0  0  0  0  0  0  0
   -4.3562    3.0073   -6.9324 C   0  0  0  0  0  0  0  0  0  0  0  0
   -5.6842    2.4425   -7.0290 C   0  0  0  0  0  0  0  0  0  0  0  0
   -6.9138    2.7260   -5.8315 S   0  0  0  0  0  0  0  0  0  0  0  0
   -8.0692    1.7480   -6.6695 C   0  0  0  0  0  0  0  0  0  0  0  0
   -9.4605    1.5967   -6.1625 C   0  0  0  0  0  0  0  0  0  0  0  0
  -10.3259    2.7850   -6.5888 C   0  0  0  0  0  0  0  0  0  0  0  0
   -7.5272    1.2512   -7.8176 C   0  0  0  0  0  0  0  0  0  0  0  0
   -8.3770    0.2490   -8.9218 Cl  0  0  0  0  0  0  0  0  0  0  0  0
   -6.1766    1.6354   -8.0228 C   0  0  0  0  0  0  0  0  0  0  0  0
   -5.3074    1.1923   -9.4342 Cl  0  0  0  0  0  0  0  0  0  0  0  0
   -4.1006    4.2900   -6.4587 C   0  0  0  0  0  0  0  0  0  0  0  0
   -2.8047    4.8582   -6.4649 C   0  0  0  0  0  0  0  0  0  0  0  0
   -1.7148    4.1563   -7.0144 C   0  0  0  0  0  0  0  0  0  0  0  0
   -0.4285    4.7982   -7.1668 C   0  0  0  0  0  0  0  0  0  0  0  0
    1.0689    4.0219   -6.7411 S   0  0  0  0  0  0  0  0  0  0  0  0
    2.0070    5.3980   -7.2082 C   0  0  0  0  0  0  0  0  0  0  0  0
    3.4936    5.3749   -7.1392 C   0  0  0  0  0  0  0  0  0  0  0  0
    4.0853    4.7323   -8.3963 C   0  0  0  0  0  0  0  0  0  0  0  0
    1.1970    6.3887   -7.6796 C   0  0  0  0  0  0  0  0  0  0  0  0
   -0.1821    6.0579   -7.6511 C   0  0  0  0  0  0  0  0  0  0  0  0
   -1.3890    7.1168   -8.2555 Cl  0  0  0  0  0  0  0  0  0  0  0  0
    1.7703    7.9010   -8.2541 Cl  0  0  0  0  0  0  0  0  0  0  0  0
   -1.9376    2.8090   -7.2737 C   0  0  0  0  0  0  0  0  0  0  0  0
   -0.6938    1.6102   -7.4667 S   0  0  0  0  0  0  0  0  0  0  0  0
   -2.7269    6.0189   -5.6614 C   0  0  0  0  0  0  0  0  0  0  0  0
   -3.9004    6.3370   -5.0439 C   0  0  0  0  0  0  0  0  0  0  0  0
   -5.2232    5.3137   -5.5942 S   0  0  0  0  0  0  0  0  0  0  0  0
   -4.0244    7.1059   -3.8498 C   0  0  0  0  0  0  0  0  0  0  0  0
   -2.5910    7.2195   -2.8520 S   0  0  0  0  0  0  0  0  0  0  0  0
   -3.5445    7.7500   -1.5203 C   0  0  0  0  0  0  0  0  0  0  0  0
   -3.1280    7.8906   -0.1795 C   0  0  0  0  0  0  0  0  0  0  0  0
   -4.0282    8.3913    0.7500 C   0  0  0  0  0  0  0  0  0  0  0  0
   -5.2262    8.8934    0.3782 O   0  0  0  0  0  0  0  0  0  0  0  0
   -5.8734    8.2878   -0.7695 C   0  0  0  0  0  0  0  0  0  0  0  0
   -6.5665    7.0082   -0.2437 C   0  0  0  0  0  0  0  0  0  0  0  0
   -7.4327    6.2637   -1.2492 C   0  0  0  0  0  0  0  0  0  0  0  0
   -6.8453    9.3562   -1.2935 C   0  0  0  0  0  0  0  0  0  0  0  0
   -7.8936    9.7850   -0.2742 C   0  0  0  0  0  0  0  0  0  0  0  0
   -4.8791    7.9139   -1.8473 C   0  0  0  0  0  0  0  0  0  0  0  0
   -5.1422    7.5388   -3.1728 C   0  0  0  0  0  0  0  0  0  0  0  0
   -3.5484    8.3178    2.0655 C   0  0  0  0  0  0  0  0  0  0  0  0
   -2.3055    7.7194    2.1435 C   0  0  0  0  0  0  0  0  0  0  0  0
   -1.6905    7.3013    0.5664 S   0  0  0  0  0  0  0  0  0  0  0  0
   -1.5805    7.3085    3.2952 C   0  0  0  0  0  0  0  0  0  0  0  0
   -0.2761    6.1611    3.1198 S   0  0  0  0  0  0  0  0  0  0  0  0
   -0.0767    6.0903    4.8319 C   0  0  0  0  0  0  0  0  0  0  0  0
    0.7360    5.2023    5.5728 C   0  0  0  0  0  0  0  0  0  0  0  0
    0.4967    5.0792    6.9367 C   0  0  0  0  0  0  0  0  0  0  0  0
   -0.4139    5.8160    7.5981 O   0  0  0  0  0  0  0  0  0  0  0  0
   -0.8551    7.0565    7.0018 C   0  0  0  0  0  0  0  0  0  0  0  0
   -2.2319    7.3344    7.6238 C   0  0  0  0  0  0  0  0  0  0  0  0
   -2.2070    7.4176    9.1455 C   0  0  0  0  0  0  0  0  0  0  0  0
    0.2084    8.1245    7.3465 C   0  0  0  0  0  0  0  0  0  0  0  0
   -0.1426    9.5332    6.8899 C   0  0  0  0  0  0  0  0  0  0  0  0
   -0.9551    6.9308    5.4990 C   0  0  0  0  0  0  0  0  0  0  0  0
   -1.8067    7.6110    4.6232 C   0  0  0  0  0  0  0  0  0  0  0  0
    1.2404    4.0499    7.5273 C   0  0  0  0  0  0  0  0  0  0  0  0
    2.0510    3.3911    6.6283 C   0  0  0  0  0  0  0  0  0  0  0  0
    1.9081    4.0568    5.0230 S   0  0  0  0  0  0  0  0  0  0  0  0
    2.9140    2.2930    6.8948 C   0  0  0  0  0  0  0  0  0  0  0  0
    3.7131    1.6044    6.0274 C   0  0  0  0  0  0  0  0  0  0  0  0
    4.4400    0.5512    6.6371 C   0  0  0  0  0  0  0  0  0  0  0  0
    5.3423   -0.3530    6.0472 C   0  0  0  0  0  0  0  0  0  0  0  0
    5.7961   -0.2057    4.6764 C   0  0  0  0  0  0  0  0  0  0  0  0
    5.8903   -1.5648    3.5953 S   0  0  0  0  0  0  0  0  0  0  0  0
    6.6108   -0.6218    2.3356 C   0  0  0  0  0  0  0  0  0  0  0  0
    7.0858   -1.2473    1.0710 C   0  0  0  0  0  0  0  0  0  0  0  0
    8.5481   -1.6811    1.2051 C   0  0  0  0  0  0  0  0  0  0  0  0
    6.7538    0.6715    2.7407 C   0  0  0  0  0  0  0  0  0  0  0  0
    7.4383    1.9055    1.7642 Cl  0  0  0  0  0  0  0  0  0  0  0  0
    6.2936    0.9125    4.0631 C   0  0  0  0  0  0  0  0  0  0  0  0
    6.4702    2.4406    4.8246 Cl  0  0  0  0  0  0  0  0  0  0  0  0
    5.8417   -1.3672    6.8603 C   0  0  0  0  0  0  0  0  0  0  0  0
    5.5269   -1.4842    8.2334 C   0  0  0  0  0  0  0  0  0  0  0  0
    4.6506   -0.5640    8.8296 C   0  0  0  0  0  0  0  0  0  0  0  0
    4.2863   -0.6631   10.2341 C   0  0  0  0  0  0  0  0  0  0  0  0
    4.4848    0.6781   11.3209 S   0  0  0  0  0  0  0  0  0  0  0  0
    3.8461   -0.2126   12.6598 C   0  0  0  0  0  0  0  0  0  0  0  0
    3.7766    0.3850   14.0217 C   0  0  0  0  0  0  0  0  0  0  0  0
    5.0924    0.1832   14.7771 C   0  0  0  0  0  0  0  0  0  0  0  0
    3.5085   -1.4750   12.2723 C   0  0  0  0  0  0  0  0  0  0  0  0
    3.7532   -1.7330   10.8969 C   0  0  0  0  0  0  0  0  0  0  0  0
    3.3414   -3.2208   10.1459 Cl  0  0  0  0  0  0  0  0  0  0  0  0
    2.8375   -2.6524   13.3256 Cl  0  0  0  0  0  0  0  0  0  0  0  0
    4.1362    0.4353    8.0165 C   0  0  0  0  0  0  0  0  0  0  0  0
    3.0070    1.6564    8.5269 S   0  0  0  0  0  0  0  0  0  0  0  0
    6.2363   -2.5559    8.8506 C   0  0  0  0  0  0  0  0  0  0  0  0
    7.0277   -3.2237    7.9880 C   0  0  0  0  0  0  0  0  0  0  0  0
    6.9783   -2.5968    6.3764 S   0  0  0  0  0  0  0  0  0  0  0  0
    2.8443  -14.2913    1.7330 H   0  0  0  0  0  0  0  0  0  0  0  0
    3.6913  -11.8382    1.9251 H   0  0  0  0  0  0  0  0  0  0  0  0
    4.3021   -5.8094    3.2374 H   0  0  0  0  0  0  0  0  0  0  0  0
    5.8321   -6.5763    3.7012 H   0  0  0  0  0  0  0  0  0  0  0  0
    6.9086   -5.7232    1.6413 H   0  0  0  0  0  0  0  0  0  0  0  0
    6.2051   -4.3915    2.5685 H   0  0  0  0  0  0  0  0  0  0  0  0
    5.3844   -4.9996    1.1226 H   0  0  0  0  0  0  0  0  0  0  0  0
   -4.0434  -13.2084   -3.8638 H   0  0  0  0  0  0  0  0  0  0  0  0
   -3.2958  -14.3208   -5.0253 H   0  0  0  0  0  0  0  0  0  0  0  0
   -3.3937  -11.2720   -5.2927 H   0  0  0  0  0  0  0  0  0  0  0  0
   -4.4015  -12.4135   -6.1890 H   0  0  0  0  0  0  0  0  0  0  0  0
   -2.6565  -12.3762   -6.4586 H   0  0  0  0  0  0  0  0  0  0  0  0
   -0.2878   -9.6141   -3.6012 H   0  0  0  0  0  0  0  0  0  0  0  0
    1.4317   -5.2825   -2.5334 H   0  0  0  0  0  0  0  0  0  0  0  0
    4.0022   -0.7812   -0.1418 H   0  0  0  0  0  0  0  0  0  0  0  0
    4.7097   -2.2306   -0.8857 H   0  0  0  0  0  0  0  0  0  0  0  0
    2.5117   -2.2193    1.2449 H   0  0  0  0  0  0  0  0  0  0  0  0
    3.2242   -3.6648    0.5278 H   0  0  0  0  0  0  0  0  0  0  0  0
    4.2051   -2.6011    1.5475 H   0  0  0  0  0  0  0  0  0  0  0  0
   -5.1772   -7.7018   -9.6090 H   0  0  0  0  0  0  0  0  0  0  0  0
   -3.4823   -8.1376   -9.8992 H   0  0  0  0  0  0  0  0  0  0  0  0
   -5.1530   -9.0465   -7.5053 H   0  0  0  0  0  0  0  0  0  0  0  0
   -4.7124  -10.0447   -8.8945 H   0  0  0  0  0  0  0  0  0  0  0  0
   -3.4610   -9.4662   -7.7883 H   0  0  0  0  0  0  0  0  0  0  0  0
   -2.6046   -2.4707   -7.7427 H   0  0  0  0  0  0  0  0  0  0  0  0
   -3.9997    0.1585   -7.0879 H   0  0  0  0  0  0  0  0  0  0  0  0
   -9.8818    0.6731   -6.5634 H   0  0  0  0  0  0  0  0  0  0  0  0
   -9.4445    1.5319   -5.0732 H   0  0  0  0  0  0  0  0  0  0  0  0
  -11.3381    2.6642   -6.2125 H   0  0  0  0  0  0  0  0  0  0  0  0
   -9.9132    3.7108   -6.1949 H   0  0  0  0  0  0  0  0  0  0  0  0
  -10.3628    2.8541   -7.6730 H   0  0  0  0  0  0  0  0  0  0  0  0
    3.8576    6.3997   -7.0455 H   0  0  0  0  0  0  0  0  0  0  0  0
    3.8065    4.8087   -6.2605 H   0  0  0  0  0  0  0  0  0  0  0  0
    3.7298    3.7098   -8.4989 H   0  0  0  0  0  0  0  0  0  0  0  0
    3.7917    5.2932   -9.2799 H   0  0  0  0  0  0  0  0  0  0  0  0
    5.1702    4.7215   -8.3350 H   0  0  0  0  0  0  0  0  0  0  0  0
   -1.8042    6.5275   -5.4467 H   0  0  0  0  0  0  0  0  0  0  0  0
   -7.1653    7.2964    0.6218 H   0  0  0  0  0  0  0  0  0  0  0  0
   -5.7774    6.3395    0.1138 H   0  0  0  0  0  0  0  0  0  0  0  0
   -7.8885    5.4039   -0.7636 H   0  0  0  0  0  0  0  0  0  0  0  0
   -8.2281    6.8981   -1.6306 H   0  0  0  0  0  0  0  0  0  0  0  0
   -6.8395    5.9020   -2.0850 H   0  0  0  0  0  0  0  0  0  0  0  0
   -7.3304    8.9802   -2.1937 H   0  0  0  0  0  0  0  0  0  0  0  0
   -6.2436   10.2238   -1.5734 H   0  0  0  0  0  0  0  0  0  0  0  0
   -7.4120   10.0720    0.6562 H   0  0  0  0  0  0  0  0  0  0  0  0
   -8.4482   10.6386   -0.6567 H   0  0  0  0  0  0  0  0  0  0  0  0
   -8.5993    8.9835   -0.0731 H   0  0  0  0  0  0  0  0  0  0  0  0
   -6.1128    7.5496   -3.6346 H   0  0  0  0  0  0  0  0  0  0  0  0
   -4.1076    8.6479    2.9203 H   0  0  0  0  0  0  0  0  0  0  0  0
   -2.6268    8.2610    7.2098 H   0  0  0  0  0  0  0  0  0  0  0  0
   -2.8923    6.5188    7.3209 H   0  0  0  0  0  0  0  0  0  0  0  0
   -1.6723    8.3015    9.4828 H   0  0  0  0  0  0  0  0  0  0  0  0
   -3.2245    7.4702    9.5257 H   0  0  0  0  0  0  0  0  0  0  0  0
   -1.7260    6.5365    9.5598 H   0  0  0  0  0  0  0  0  0  0  0  0
    1.1440    7.8145    6.8721 H   0  0  0  0  0  0  0  0  0  0  0  0
    0.3670    8.1065    8.4256 H   0  0  0  0  0  0  0  0  0  0  0  0
   -0.3391    9.5545    5.8204 H   0  0  0  0  0  0  0  0  0  0  0  0
    0.6897   10.2016    7.0971 H   0  0  0  0  0  0  0  0  0  0  0  0
   -1.0172    9.9100    7.4131 H   0  0  0  0  0  0  0  0  0  0  0  0
   -2.5674    8.3044    4.9294 H   0  0  0  0  0  0  0  0  0  0  0  0
    1.1790    3.7899    8.5680 H   0  0  0  0  0  0  0  0  0  0  0  0
    3.7568    1.8353    4.9786 H   0  0  0  0  0  0  0  0  0  0  0  0
    6.9930   -0.5232    0.2596 H   0  0  0  0  0  0  0  0  0  0  0  0
    6.4737   -2.1190    0.8411 H   0  0  0  0  0  0  0  0  0  0  0  0
    9.1788   -0.8228    1.4210 H   0  0  0  0  0  0  0  0  0  0  0  0
    8.6545   -2.4026    2.0116 H   0  0  0  0  0  0  0  0  0  0  0  0
    8.8865   -2.1388    0.2796 H   0  0  0  0  0  0  0  0  0  0  0  0
    3.5661    1.4523   13.9370 H   0  0  0  0  0  0  0  0  0  0  0  0
    2.9631   -0.0909   14.5725 H   0  0  0  0  0  0  0  0  0  0  0  0
    5.0267    0.6275   15.7665 H   0  0  0  0  0  0  0  0  0  0  0  0
    5.9124    0.6508   14.2373 H   0  0  0  0  0  0  0  0  0  0  0  0
    5.3061   -0.8772   14.8848 H   0  0  0  0  0  0  0  0  0  0  0  0
    6.1559   -2.7953    9.8946 H   0  0  0  0  0  0  0  0  0  0  0  0
    7.6607   -4.0656    8.1893 H   0  0  0  0  0  0  0  0  0  0  0  0
  1  2  2  0  0  0  0
  2  3  1  0  0  0  0
  3  4  2  0  0  0  0
  4  5  1  0  0  0  0
  5  6  1  0  0  0  0
  6  7  1  0  0  0  0
  7  8  1  0  0  0  0
  8  9  1  0  0  0  0
  7 10  2  0  0  0  0
 10 11  1  0  0  0  0
 10 12  1  0  0  0  0
 12 13  1  0  0  0  0
  4 14  1  0  0  0  0
 14 15  2  0  0  0  0
 15 16  1  0  0  0  0
 16 17  1  0  0  0  0
 17 18  1  0  0  0  0
 18 19  1  0  0  0  0
 19 20  1  0  0  0  0
 20 21  1  0  0  0  0
 19 22  2  0  0  0  0
 22 23  1  0  0  0  0
 23 24  1  0  0  0  0
 22 25  1  0  0  0  0
 16 26  2  0  0  0  0
 26 27  1  0  0  0  0
 15 28  1  0  0  0  0
 28 29  2  0  0  0  0
 29 30  1  0  0  0  0
 29 31  1  0  0  0  0
 31 32  2  0  0  0  0
 32 33  1  0  0  0  0
 33 34  2  0  0  0  0
 34 35  1  0  0  0  0
 35 36  1  0  0  0  0
 36 37  1  0  0  0  0
 37 38  1  0  0  0  0
 38 39  1  0  0  0  0
 37 40  2  0  0  0  0
 40 41  1  0  0  0  0
 40 42  1  0  0  0  0
 42 43  1  0  0  0  0
 34 44  1  0  0  0  0
 44 45  2  0  0  0  0
 45 46  1  0  0  0  0
 46 47  1  0  0  0  0
 47 48  1  0  0  0  0
 48 49  1  0  0  0  0
 49 50  1  0  0  0  0
 50 51  1  0  0  0  0
 49 52  2  0  0  0  0
 52 53  1  0  0  0  0
 53 54  1  0  0  0  0
 52 55  1  0  0  0  0
 46 56  2  0  0  0  0
 56 57  1  0  0  0  0
 45 58  1  0  0  0  0
 58 59  2  0  0  0  0
 59 60  1  0  0  0  0
 59 61  1  0  0  0  0
 61 62  2  0  0  0  0
 62 63  1  0  0  0  0
 63 64  2  0  0  0  0
 64 65  1  0  0  0  0
 65 66  1  0  0  0  0
 66 67  1  0  0  0  0
 67 68  1  0  0  0  0
 68 69  1  0  0  0  0
 67 70  2  0  0  0  0
 70 71  1  0  0  0  0
 70 72  1  0  0  0  0
 72 73  1  0  0  0  0
 64 74  1  0  0  0  0
 74 75  2  0  0  0  0
 75 76  1  0  0  0  0
 76 77  1  0  0  0  0
 77 78  1  0  0  0  0
 78 79  1  0  0  0  0
 79 80  1  0  0  0  0
 80 81  1  0  0  0  0
 79 82  2  0  0  0  0
 82 83  1  0  0  0  0
 83 84  1  0  0  0  0
 82 85  1  0  0  0  0
 76 86  2  0  0  0  0
 86 87  1  0  0  0  0
 75 88  1  0  0  0  0
 88 89  2  0  0  0  0
 89 90  1  0  0  0  0
 89 91  1  0  0  0  0
 91 92  1  0  0  0  0
 92 93  1  0  0  0  0
 93 94  1  0  0  0  0
 94 95  2  0  0  0  0
 95 96  1  0  0  0  0
 96 97  1  0  0  0  0
 97 98  1  0  0  0  0
 98 99  1  0  0  0  0
 97100  1  0  0  0  0
100101  1  0  0  0  0
 97102  1  0  0  0  0
102103  1  0  0  0  0
 95104  1  0  0  0  0
104105  2  0  0  0  0
105106  1  0  0  0  0
105107  1  0  0  0  0
107108  1  0  0  0  0
108109  1  0  0  0  0
109110  1  0  0  0  0
110111  2  0  0  0  0
111112  1  0  0  0  0
112113  1  0  0  0  0
113114  1  0  0  0  0
114115  1  0  0  0  0
113116  1  0  0  0  0
116117  1  0  0  0  0
113118  1  0  0  0  0
118119  1  0  0  0  0
111120  1  0  0  0  0
120121  2  0  0  0  0
121122  1  0  0  0  0
121123  1  0  0  0  0
123124  2  0  0  0  0
124125  1  0  0  0  0
125126  2  0  0  0  0
126127  1  0  0  0  0
127128  1  0  0  0  0
128129  1  0  0  0  0
129130  1  0  0  0  0
130131  1  0  0  0  0
129132  2  0  0  0  0
132133  1  0  0  0  0
132134  1  0  0  0  0
134135  1  0  0  0  0
126136  1  0  0  0  0
136137  2  0  0  0  0
137138  1  0  0  0  0
138139  1  0  0  0  0
139140  1  0  0  0  0
140141  1  0  0  0  0
141142  1  0  0  0  0
142143  1  0  0  0  0
141144  2  0  0  0  0
144145  1  0  0  0  0
145146  1  0  0  0  0
144147  1  0  0  0  0
138148  2  0  0  0  0
148149  1  0  0  0  0
137150  1  0  0  0  0
150151  2  0  0  0  0
151152  1  0  0  0  0
 27  1  1  0  0  0  0
 57 31  1  0  0  0  0
 87 61  1  0  0  0  0
103 91  2  0  0  0  0
119107  2  0  0  0  0
149123  1  0  0  0  0
 26  3  1  0  0  0  0
 56 33  1  0  0  0  0
 86 63  1  0  0  0  0
102 93  2  0  0  0  0
118109  2  0  0  0  0
148125  1  0  0  0  0
 12  5  2  0  0  0  0
 30 14  1  0  0  0  0
 42 35  2  0  0  0  0
 60 44  1  0  0  0  0
 72 65  2  0  0  0  0
 90 74  1  0  0  0  0
106 94  1  0  0  0  0
122110  1  0  0  0  0
134127  2  0  0  0  0
152136  1  0  0  0  0
 23 17  2  0  0  0  0
 53 47  2  0  0  0  0
 83 77  2  0  0  0  0
145139  2  0  0  0  0
  1153  1  0  0  0  0
  2154  1  0  0  0  0
  8155  1  0  0  0  0
  8156  1  0  0  0  0
  9157  1  0  0  0  0
  9158  1  0  0  0  0
  9159  1  0  0  0  0
 20160  1  0  0  0  0
 20161  1  0  0  0  0
 21162  1  0  0  0  0
 21163  1  0  0  0  0
 21164  1  0  0  0  0
 28165  1  0  0  0  0
 32166  1  0  0  0  0
 38167  1  0  0  0  0
 38168  1  0  0  0  0
 39169  1  0  0  0  0
 39170  1  0  0  0  0
 39171  1  0  0  0  0
 50172  1  0  0  0  0
 50173  1  0  0  0  0
 51174  1  0  0  0  0
 51175  1  0  0  0  0
 51176  1  0  0  0  0
 58177  1  0  0  0  0
 62178  1  0  0  0  0
 68179  1  0  0  0  0
 68180  1  0  0  0  0
 69181  1  0  0  0  0
 69182  1  0  0  0  0
 69183  1  0  0  0  0
 80184  1  0  0  0  0
 80185  1  0  0  0  0
 81186  1  0  0  0  0
 81187  1  0  0  0  0
 81188  1  0  0  0  0
 88189  1  0  0  0  0
 98190  1  0  0  0  0
 98191  1  0  0  0  0
 99192  1  0  0  0  0
 99193  1  0  0  0  0
 99194  1  0  0  0  0
100195  1  0  0  0  0
100196  1  0  0  0  0
101197  1  0  0  0  0
101198  1  0  0  0  0
101199  1  0  0  0  0
103200  1  0  0  0  0
104201  1  0  0  0  0
114202  1  0  0  0  0
114203  1  0  0  0  0
115204  1  0  0  0  0
115205  1  0  0  0  0
115206  1  0  0  0  0
116207  1  0  0  0  0
116208  1  0  0  0  0
117209  1  0  0  0  0
117210  1  0  0  0  0
117211  1  0  0  0  0
119212  1  0  0  0  0
120213  1  0  0  0  0
124214  1  0  0  0  0
130215  1  0  0  0  0
130216  1  0  0  0  0
131217  1  0  0  0  0
131218  1  0  0  0  0
131219  1  0  0  0  0
142220  1  0  0  0  0
142221  1  0  0  0  0
143222  1  0  0  0  0
143223  1  0  0  0  0
143224  1  0  0  0  0
150225  1  0  0  0  0
151226  1  0  0  0  0
M  END
