135

C          9.40150        3.58800       -0.23760
C          9.51940        3.49430        1.08700
C         10.82140        3.16860        1.75890
C         10.91060        1.66750        2.04730
C          8.27050        3.65760        1.84310
C          8.28700        3.65340        3.34040
C          8.20600        5.08840        3.87210
C          7.17330        3.91370        1.08890
S          7.72420        4.01230       -0.64620
O          7.70820        5.36830       -1.13430
O          7.08570        3.01560       -1.45820
C          5.80300        3.93390        1.41480
C          4.71700        4.49470        0.82550
C          4.77750        5.47890       -0.30130
C          4.41230        4.81320       -1.63460
C          3.41940        4.06990        1.33830
C          2.16380        4.80020        0.96320
C          1.92340        5.92000        1.98380
C          3.43690        3.08960        2.27600
S          5.17080        2.93620        2.79210
O          5.69580        1.59880        2.79410
O          5.30520        3.67700        4.02630
C          2.40650        2.28760        2.80420
C          2.20100        1.71740        4.02040
C          3.03880        2.00300        5.23070
C          4.04520        0.87390        5.48330
C          1.07580        0.80300        4.11470
C          0.61890        0.25200        5.43550
C         -0.42370        1.17870        6.06920
C          0.45180        0.52570        2.94180
S          1.20520        1.54280        1.66160
O          0.19430        2.46540        1.20890
O          1.89250        0.78910        0.65530
C         -0.67720       -0.22590        2.55860
S         -0.92230       -0.49430        0.84960
C         -2.39550       -1.33360        1.17470
C         -3.33820       -1.85030        0.25440
C         -4.61430       -2.15310        0.73050
O         -4.97040       -2.04260        2.02260
C         -3.91930       -2.12320        3.00850
C         -4.50290       -1.47020        4.27120
C         -5.78500       -2.13340        4.76140
C         -3.57450       -3.62000        3.18640
C         -2.53630       -3.90230        4.26280
C         -2.68780       -1.38740        2.53500
C         -1.71080       -0.76960        3.30850
C         -5.49900       -2.51800       -0.28660
C         -4.89890       -2.54290       -1.53260
S         -3.21330       -2.10210       -1.45060
C         -5.40890       -2.96470       -2.78280
C         -6.62850       -2.99030       -3.36530
C         -7.82530       -2.27400       -2.81010
C         -7.89390       -0.86570       -3.41130
C         -6.67530       -3.61750       -4.68150
C         -7.99490       -3.83820       -5.35550
C         -8.61760       -5.14020       -4.83630
C         -5.49940       -4.09450       -5.16090
S         -4.24700       -3.79510       -3.88150
O         -3.83510       -5.01620       -3.23740
O         -3.20650       -2.92020       -4.34370
C         -5.13350       -4.53050       -6.45360
C         -4.12950       -5.31950       -6.89440
C         -3.23880       -6.15070       -6.02480
C         -1.86440       -5.49250       -5.85040
C         -3.93310       -5.31300       -8.35200
C         -3.03700       -6.30100       -9.04050
C         -3.81870       -7.58790       -9.32260
C         -4.65180       -4.40870       -9.01830
S         -5.85600       -3.70930       -7.91110
O         -7.12660       -4.27630       -8.30080
O         -5.81310       -2.28430       -7.75220
H         10.16700        3.51030       -0.98160
H         10.92830        3.73610        2.68330
H         11.63860        3.45180        1.09390
H         11.84270        1.43960        2.55880
H         10.87850        1.10820        1.11600
H         10.08090        1.33790        2.66700
H          7.43620        3.09460        3.72190
H          9.19320        3.18070        3.71250
H          8.29370        5.08400        4.95500
H          9.00210        5.70200        3.45450
H          7.24720        5.52630        3.61020
H          5.78180        5.88960       -0.38370
H          4.08850        6.30150       -0.10040
H          4.38100        5.56640       -2.41750
H          5.16560        4.07660       -1.89580
H          3.44850        4.31260       -1.58470
H          2.23610        5.22960       -0.03230
H          1.31480        4.12150        0.97950
H          1.80750        5.50180        2.98070
H          1.01780        6.46320        1.72710
H          2.75790        6.61860        2.00140
H          2.39650        2.12480        6.10450
H          3.59270        2.92820        5.08270
H          4.74510        0.81190        4.65590
H          4.60340        1.08240        6.39240
H          3.55140       -0.08960        5.58680
H          0.18690       -0.73660        5.27470
H          1.45790        0.14020        6.11860
H          0.01490        2.14740        6.29480
H         -0.79940        0.74590        6.99360
H         -1.25730        1.33960        5.39030
H         -4.71100       -0.42690        4.02600
H         -3.75360       -1.49030        5.06080
H         -6.22150       -1.53970        5.56080
H         -6.50240       -2.20420        3.94940
H         -5.59030       -3.13050        5.14670
H         -4.49880       -4.15600        3.40530
H         -3.20340       -3.98260        2.22430
H         -2.30030       -4.96350        4.27060
H         -1.62000       -3.35080        4.06680
H         -2.90580       -3.63080        5.24810
H         -1.76220       -0.68810        4.37610
H         -6.51820       -2.79690       -0.09920
H         -8.74160       -2.81850       -3.03240
H         -7.73520       -2.18730       -1.72970
H         -7.01780       -0.29430       -3.11530
H         -7.92070       -0.90440       -4.49730
H         -8.78280       -0.35010       -3.05590
H         -8.66990       -3.00640       -5.16300
H         -7.86390       -3.92310       -6.43000
H         -9.58470       -5.29720       -5.30610
H         -7.97510       -5.98270       -5.07880
H         -8.75130       -5.11110       -3.75650
H         -3.68900       -6.26900       -5.04050
H         -3.11430       -7.14040       -6.46890
H         -1.97190       -4.54130       -5.33890
H         -1.22930       -6.13640       -5.24790
H         -1.37940       -5.31410       -6.80720
H         -2.69910       -5.87510       -9.98610
H         -2.16240       -6.53170       -8.43610
H         -3.18280       -8.30670       -9.83350
H         -4.17580       -8.03550       -8.39830
H         -4.68010       -7.37460       -9.95030
H         -4.69600       -4.24590      -10.07560
