198

C         15.14570      -13.95710       10.46450
S         13.74930      -13.82610        9.46390
C         13.84700      -12.10110        9.53160
C         13.03960      -11.14730        8.86290
C         13.45500       -9.82440        8.85120
O         14.57980       -9.39530        9.45700
C         15.12310      -10.19530       10.53100
C         16.61070       -9.82230       10.58550
C         17.34440      -10.19960        9.30390
C         14.37120       -9.76340       11.81440
C         14.79790      -10.47820       13.08850
C         14.91380      -11.66920       10.29090
C         15.65280      -12.74640       10.82140
C         12.61760       -8.99430        8.09280
C         11.55590       -9.67230        7.53590
S         11.58970      -11.36880        7.94920
C         10.50700       -9.15090        6.73740
S         10.43900       -7.45150        6.34700
C          8.97180       -7.69560        5.46580
C          8.23950       -6.74630        4.72100
C          7.24560       -7.20580        3.86530
O          6.95360       -8.51360        3.72040
C          7.24460       -9.39370        4.82890
C          6.13190       -9.21720        5.88840
C          4.72510       -9.33300        5.31280
C          7.27560      -10.79020        4.17890
C          6.97860      -11.97910        5.08550
C          8.56140       -9.02090        5.47510
C          9.43970       -9.83450        6.19320
C          6.63710       -6.18020        3.13310
C          7.14790       -4.93440        3.43140
S          8.41240       -5.02870        4.63250
C          6.73410       -3.68010        2.91910
S          5.40260       -3.57680        1.79400
C          5.53730       -1.85330        1.76400
C          4.73090       -0.92730        1.06800
C          5.05730        0.42190        1.13250
O          6.14670        0.89810        1.75960
C          6.81740        0.08560        2.74550
C          8.31110        0.41650        2.59490
C          8.88840       -0.11760        1.28920
C          6.26920        0.48070        4.13840
C          6.44190        1.95890        4.46490
C          6.56670       -1.39200        2.56520
C          7.23540       -2.42990        3.21880
C          4.15460        1.23200        0.43050
C          3.14410        0.51090       -0.16630
S          3.30520       -1.19980        0.13330
C          2.02260        1.00020       -0.88760
C          1.06390        0.26770       -1.52710
C          0.01550        1.05030       -2.06310
C         -1.12280        0.61360       -2.76360
C         -1.37700       -0.79860       -2.99420
S         -1.69560       -1.40920       -4.59030
C         -1.89180       -3.02890       -4.01600
C         -2.15170       -4.15640       -4.95300
C         -0.83960       -4.76730       -5.45130
C         -1.71350       -3.07800       -2.66540
Cl        -1.83380       -4.51650       -1.73750
C         -1.42680       -1.81560       -2.08130
Cl        -1.24990       -1.60170       -0.38700
C         -2.00860        1.58970       -3.19700
C         -1.81860        2.97080       -2.94990
C         -0.65820        3.41180       -2.28660
C         -0.40090        4.82810       -2.09560
S          0.01920        5.48220       -0.54080
C          0.14980        7.09010       -1.16540
C          0.45730        8.24460       -0.27690
C         -0.82670        8.85880        0.28640
C         -0.12280        7.10410       -2.50100
C         -0.43140        5.82430       -3.03350
Cl        -0.72560        5.57010       -4.70560
Cl        -0.08980        8.52130       -3.46790
C          0.21860        2.43480       -1.83690
S          1.69800        2.72250       -0.96350
C         -2.92700        3.73950       -3.37990
C         -3.91260        2.99680       -3.95980
S         -3.51870        1.28950       -4.00870
C         -5.16230        3.45150       -4.46960
C         -6.12610        2.71240       -5.08920
C         -7.26780        3.46450       -5.45430
C         -8.45040        3.00450       -6.06120
C         -8.56250        1.63990       -6.54430
S         -9.91410        0.62960       -6.12640
C         -9.30920       -0.69790       -7.05480
C        -10.02070       -2.00530       -7.09480
C         -9.48860       -2.95230       -6.01650
C         -8.12590       -0.36470       -7.64420
Cl        -7.22820       -1.42740       -8.64850
C         -7.70040        0.96000       -7.36150
Cl        -6.28720        1.64210       -8.05800
C         -9.49280        3.91320       -6.17360
C         -9.39060        5.26480       -5.76070
C         -8.18340        5.74200       -5.21760
C         -8.02890        7.12370       -4.79490
S         -9.15250        7.86340       -3.69050
C         -8.27870        9.35690       -3.67240
C         -8.70840       10.49700       -2.81640
C         -8.05030       10.42130       -1.43650
C         -7.18090        9.27010       -4.47460
C         -7.03710        8.00940       -5.11470
Cl        -5.78190        7.69120       -6.23720
Cl        -6.07030       10.55560       -4.71320
C         -7.15270        4.82260       -5.06750
S         -5.61910        5.13430       -4.30660
C        -10.58640        5.98200       -5.99930
C        -11.57730        5.22450       -6.55920
S        -11.06090        3.57520       -6.84710
C        -12.90350        5.62750       -6.88130
S        -14.00920        4.53320       -7.66950
C        -15.24690        5.73380       -7.64820
C        -16.59400        5.61380       -8.07180
C        -17.48340        6.61720       -7.72970
O        -17.13950        7.71690       -7.03360
C        -15.74810        8.10710       -7.01130
C        -15.58580        8.91060       -5.71350
C        -15.83330        8.05840       -4.47430
C        -15.52620        8.98500       -8.26770
C        -14.11190        9.51780       -8.44710
C        -14.82680        6.91340       -7.05970
C        -13.49850        6.84570       -6.62780
C        -18.80570        6.33180       -8.13680
C        -18.89370        5.13850       -8.78340
S        -17.38400        4.32600       -8.91410
H         15.50640      -14.93010       10.73070
H         16.67540       -8.74350       10.73570
H         17.07260      -10.31740       11.43850
H         18.38310       -9.88340        9.36030
H         17.31680      -11.27530        9.14460
H         16.87820       -9.71220        8.45150
H         14.50800       -8.68570       11.92840
H         13.30650       -9.94560       11.64130
H         14.17560      -10.14640       13.91620
H         15.83320      -10.25880       13.33570
H         14.68250      -11.55450       12.98550
H         16.52370      -12.63610       11.44150
H         12.78330       -7.94150        7.95710
H          6.25070       -8.22170        6.32630
H          6.28780       -9.94720        6.68250
H          4.58840       -8.61550        4.50770
H          3.99180       -9.12560        6.08870
H          4.53730      -10.32700        4.91750
H          6.54370      -10.76880        3.36940
H          8.25990      -10.91810        3.72310
H          7.12970      -12.89720        4.52190
H          5.95110      -11.96690        5.43640
H          7.63250      -12.00540        5.95170
H          9.33140      -10.89410        6.32980
H          5.85510       -6.33990        2.41380
H          8.41220        1.50140        2.60970
H          8.85400        0.00300        3.44500
H          8.84920       -1.20430        1.26070
H          9.92490        0.19290        1.18490
H          8.32440        0.27200        0.44500
H          5.20380        0.23320        4.14880
H          6.76220       -0.13470        4.89230
H          5.88170        2.20630        5.36340
H          6.06950        2.56780        3.64500
H          7.48670        2.20270        4.63620
H          8.05870       -2.29590        3.89730
H          4.23390        2.30150        0.36510
H          1.11620       -0.80260       -1.60730
H         -2.73370       -4.91920       -4.43200
H         -2.73070       -3.79260       -5.80330
H         -0.24910       -4.01820       -5.97320
H         -1.04550       -5.58760       -6.13360
H         -0.25920       -5.14690       -4.61440
H          0.99760        8.99750       -0.85410
H          1.09210        7.90880        0.54440
H         -0.58660        9.70100        0.92970
H         -1.46270        9.20830       -0.52280
H         -1.37520        8.12040        0.86620
H         -3.00960        4.80280       -3.24580
H         -6.02470        1.65510       -5.25400
H        -11.08790       -1.83890       -6.94180
H         -9.87300       -2.45610       -8.07840
H         -8.42800       -3.13680       -6.16720
H        -10.01710       -3.90070       -6.05960
H         -9.62920       -2.51790       -5.02960
H         -9.79360       10.47690       -2.70440
H         -8.42200       11.43050       -3.30490
H         -8.32660        9.49590       -0.93650
H         -6.96840       10.45400       -1.53400
H         -8.37100       11.25920       -0.82350
H        -10.70620        7.02290       -5.76530
H        -16.30740        9.72850       -5.74080
H        -14.58400        9.33600       -5.67830
H        -16.82840        7.62290       -4.51420
H        -15.10530        7.25310       -4.40570
H        -15.75810        8.67050       -3.57900
H        -16.23300        9.81610       -8.21630
H        -15.79220        8.37690       -9.13710
H        -14.05150       10.07700       -9.37750
H        -13.39320        8.70330       -8.49200
H        -13.83560       10.18440       -7.63450
H        -12.98030        7.64880       -6.13810
H        -19.63530        6.98760       -7.95130
H        -19.76670        4.68320       -9.20580
