212

C          5.42780       -2.52500       12.28350
S          4.51260       -3.35040       11.08140
C          4.13550       -1.84630       10.31660
C          3.31680       -1.61140        9.18320
C          2.99010       -0.30140        8.86880
O          3.41050        0.76740        9.57080
C          4.54860        0.63240       10.44160
C          5.83220        0.91540        9.62190
C          5.86990        2.28350        8.95420
C          4.34470        1.62010       11.61440
C          3.47030        2.82640       11.28870
C          4.69000       -0.77370       10.97940
C          5.43500       -1.17630       12.10590
C          2.11760       -0.20600        7.77360
C          1.78770       -1.43440        7.24850
S          2.56420       -2.73600        8.11220
C          0.93050       -1.71750        6.15000
C          0.55220       -2.94340        5.68360
C         -0.34180       -2.88330        4.58910
C         -0.95510       -3.94910        3.90600
C         -0.74710       -5.32500        4.32640
S         -0.19780       -6.54460        3.21670
C         -0.22630       -7.77470        4.43390
C          0.11200       -9.18770        4.10970
C         -1.10110       -9.91700        3.52760
C         -0.65040       -7.25730        5.62110
Cl        -0.82160       -8.17670        7.05980
C         -0.94030       -5.86750        5.56610
Cl        -1.54800       -4.99630        6.91480
C         -1.78190       -3.62480        2.84070
C         -2.06940       -2.28850        2.46800
C         -1.49060       -1.22250        3.17790
C         -1.86610        0.15910        2.91690
S         -0.70530        1.40210        2.56170
C         -1.91780        2.63580        2.54920
C         -1.60080        4.07550        2.32670
C         -0.24070        4.28850        1.67970
C         -3.14280        2.09570        2.80600
C         -3.12150        0.69170        3.00360
Cl        -4.52660       -0.21920        3.37560
Cl        -4.58210        3.01980        2.92270
C         -0.61650       -1.54880        4.20350
S          0.21680       -0.40840        5.22380
C         -2.94750       -2.22420        1.36160
C         -3.34110       -3.44760        0.90060
S         -2.63860       -4.75930        1.83300
C         -4.15520       -3.71770       -0.23360
S         -4.88730       -2.39460       -1.10410
C         -5.49360       -3.49170       -2.29010
C         -6.02070       -3.16150       -3.56010
C         -5.94870       -4.11770       -4.56560
O         -5.62460       -5.40080       -4.33800
C         -5.62110       -5.88430       -2.97670
C         -4.65180       -7.08490       -2.93320
C         -4.53350       -7.86690       -4.23740
C         -7.07050       -6.24040       -2.56770
C         -7.74130       -7.30100       -3.43010
C         -5.15710       -4.80640       -2.02020
C         -4.41170       -4.92810       -0.84230
C         -6.09710       -3.56670       -5.85270
C         -6.30910       -2.20880       -5.82490
S         -6.39040       -1.60010       -4.18590
C         -6.08780       -1.20170       -6.81820
C         -5.07460       -1.20190       -7.73730
C         -4.59530        0.09900       -8.04150
C         -3.35180        0.45420       -8.60610
C         -2.53330       -0.44490       -9.39600
S         -2.23930       -2.10980       -8.98660
C         -1.19610       -2.35180      -10.34460
C         -0.51080       -3.65310      -10.57340
C          0.82970       -3.70040       -9.83560
C         -1.08650       -1.20020      -11.06470
Cl        -0.14300       -1.05180      -12.48980
C         -1.83830       -0.12030      -10.53240
Cl        -1.91470        1.40550      -11.30800
C         -2.84800        1.70190       -8.23910
C         -3.60260        2.66550       -7.53080
C         -4.94150        2.39900       -7.20970
C         -5.76830        3.35450       -6.47540
S         -7.05240        4.22030       -7.25460
C         -7.50550        5.01440       -5.78540
C         -8.60330        6.02020       -5.75580
C         -8.07200        7.42100       -6.06940
C         -6.69310        4.62370       -4.76360
C         -5.70880        3.67470       -5.15120
Cl        -4.58670        2.96950       -4.05820
Cl        -6.84760        5.20500       -3.15900
C         -5.36840        1.09740       -7.39680
S         -6.71500        0.41170       -6.52770
C         -2.78590        3.65010       -6.91960
C         -1.45320        3.39850       -7.05960
S         -1.14940        2.10870       -8.21770
C         -0.46060        3.69880       -6.06550
C         -0.78230        3.65110       -4.73900
C          0.33530        3.49840       -3.88820
C          0.30530        3.12100       -2.53360
C         -0.97200        3.04990       -1.83600
S         -1.98140        4.46210       -1.71450
C         -3.25810        3.58390       -0.94740
C         -4.54460        4.22600       -0.56000
C         -4.47580        5.74590       -0.58750
C         -2.90600        2.27490       -0.80330
Cl        -3.95710        1.08710       -0.14940
C         -1.60780        1.96930       -1.29150
Cl        -0.96450        0.38090       -1.23950
C          1.51140        2.74700       -1.96640
C          2.74780        2.82250       -2.66090
C          2.77760        3.24140       -4.00480
C          4.01260        3.32540       -4.76310
S          5.16100        2.01980       -4.81660
C          6.20820        2.87570       -5.89520
C          7.45510        2.25380       -6.41900
C          7.16490        1.41770       -7.66780
C          5.68280        4.09730       -6.19350
C          4.44120        4.35630       -5.55480
Cl         3.62650        5.85560       -5.71080
Cl         6.44000        5.23540       -7.23030
C          1.55260        3.51290       -4.60650
S          1.26790        3.70030       -6.31990
C          3.82350        2.37800       -1.85550
C          3.43790        1.92590       -0.62590
S          1.71570        2.09990       -0.36470
C          4.23680        1.28990        0.36240
S          5.97500        1.25160        0.21630
C          6.08820        0.26720        1.63060
C          7.25340       -0.27080        2.22890
C          7.09830       -1.17510        3.26280
O          5.91340       -1.59830        3.72880
C          4.70500       -0.88340        3.40820
C          3.64270       -1.96910        3.12830
C          3.59490       -3.05750        4.19160
C          4.30710        0.02970        4.60630
C          5.06810       -0.26530        5.89360
C          4.85090       -0.02350        2.17290
C          3.80700        0.57590        1.45860
C          8.33420       -1.66150        3.74730
C          9.39060       -1.11890        3.08530
S          8.92270       -0.00710        1.85920
H          5.91020       -3.09380       13.05260
H          6.69160        0.79500       10.28420
H          5.89740        0.14080        8.85210
H          6.70290        2.32880        8.25610
H          5.99850        3.07350        9.68880
H          4.94850        2.45890        8.40430
H          3.87320        1.07620       12.43670
H          5.32580        1.95470       11.95430
H          2.47660        2.50310       10.99330
H          3.88840        3.41840       10.48190
H          3.38280        3.45420       12.17290
H          5.95680       -0.49830       12.75650
H          1.73900        0.72290        7.38840
H          0.90980       -3.85960        6.11700
H          0.43760       -9.68880        5.02300
H          0.92950       -9.20850        3.38700
H         -1.43630       -9.42300        2.61860
H         -0.84170      -10.94570        3.29250
H         -1.91870       -9.91830        4.24400
H         -1.63310        4.59280        3.29170
H         -2.38740        4.50750        1.70290
H         -0.05910        5.34870        1.52540
H         -0.19610        3.78470        0.71830
H          0.54860        3.88660        2.31050
H         -3.25840       -1.30350        0.90310
H         -3.65790       -6.70510       -2.68560
H         -4.96880       -7.74810       -2.12720
H         -3.81610       -8.67380       -4.10430
H         -5.48230       -8.29460       -4.54130
H         -4.18130       -7.21790       -5.03370
H         -7.65480       -5.31730       -2.62410
H         -7.05570       -6.55790       -1.52320
H         -8.80040       -7.35240       -3.18740
H         -7.30650       -8.28100       -3.25500
H         -7.64070       -7.04860       -4.48280
H         -4.04710       -5.85530       -0.43810
H         -6.01370       -4.14190       -6.75560
H         -4.57760       -2.10500       -8.03790
H         -1.14870       -4.46600      -10.22270
H         -0.34150       -3.77620      -11.64490
H          1.47970       -2.90240      -10.18500
H          1.32020       -4.65350      -10.01390
H          0.67650       -3.58030       -8.76570
H         -9.05810        6.01640       -4.76320
H         -9.36320        5.74640       -6.48930
H         -8.88410        8.14240       -6.04300
H         -7.32270        7.71300       -5.33790
H         -7.61950        7.44030       -7.05790
H         -3.17520        4.42700       -6.28780
H         -1.79770        3.60120       -4.39290
H         -4.82340        3.87640        0.43730
H         -5.32390        3.88320       -1.24750
H         -5.43530        6.16820       -0.30100
H         -4.22830        6.09590       -1.58730
H         -3.71650        6.11030        0.10090
H          8.16400        3.04610       -6.66670
H          7.89430        1.61770       -5.64870
H          6.73630        2.04230       -8.44740
H          6.46130        0.62230       -7.43380
H          8.08340        0.97370       -8.04180
H          4.84790        2.35350       -2.17940
H          3.87720       -2.42630        2.16360
H          2.66770       -1.48790        3.04250
H          4.55910       -3.55140        4.26760
H          2.84240       -3.79640        3.92530
H          3.34070       -2.64250        5.16130
H          3.23670       -0.07670        4.78490
H          4.49090        1.07020        4.32650
H          4.68330        0.37110        6.68630
H          6.12970       -0.06130        5.77330
H          4.95170       -1.30430        6.18860
H          2.76540        0.49290        1.71350
H          8.41490       -2.37720        4.54380
H         10.43320       -1.30310        3.24890
