
  xtb     03012212033D
 energy: -428.067348399017 gnorm: 0.000477720709 xtb: 6.4.1 (unknown)
226251  0     0  0            999 V2000
    1.4573   -3.6282    9.9574 C   0  0  0  0  0  0  0  0  0  0  0  0
    0.1234   -3.4517   10.0440 C   0  0  0  0  0  0  0  0  0  0  0  0
   -0.5438   -3.6722    8.8042 C   0  0  0  0  0  0  0  0  0  0  0  0
   -1.9172   -3.5834    8.5255 C   0  0  0  0  0  0  0  0  0  0  0  0
   -2.8810   -3.1934    9.5413 C   0  0  0  0  0  0  0  0  0  0  0  0
   -2.6912   -1.7224   10.4484 S   0  0  0  0  0  0  0  0  0  0  0  0
   -4.1639   -1.9770   11.3206 C   0  0  0  0  0  0  0  0  0  0  0  0
   -4.6565   -0.9804   12.3109 C   0  0  0  0  0  0  0  0  0  0  0  0
   -5.4298    0.1437   11.6174 C   0  0  0  0  0  0  0  0  0  0  0  0
   -4.7603   -3.1329   10.9141 C   0  0  0  0  0  0  0  0  0  0  0  0
   -6.2392   -3.7229   11.5544 Cl  0  0  0  0  0  0  0  0  0  0  0  0
   -4.0365   -3.8256    9.9068 C   0  0  0  0  0  0  0  0  0  0  0  0
   -4.5414   -5.3420    9.2870 Cl  0  0  0  0  0  0  0  0  0  0  0  0
   -2.3120   -3.8276    7.2171 C   0  0  0  0  0  0  0  0  0  0  0  0
   -1.4042   -4.1786    6.1875 C   0  0  0  0  0  0  0  0  0  0  0  0
   -0.0349   -4.3144    6.4774 C   0  0  0  0  0  0  0  0  0  0  0  0
    0.9229   -4.6888    5.4551 C   0  0  0  0  0  0  0  0  0  0  0  0
    2.4095   -3.8069    5.2599 S   0  0  0  0  0  0  0  0  0  0  0  0
    2.9180   -4.7953    3.9364 C   0  0  0  0  0  0  0  0  0  0  0  0
    4.1910   -4.5207    3.2150 C   0  0  0  0  0  0  0  0  0  0  0  0
    3.9569   -3.6010    2.0141 C   0  0  0  0  0  0  0  0  0  0  0  0
    1.9847   -5.7546    3.6763 C   0  0  0  0  0  0  0  0  0  0  0  0
    0.8567   -5.7036    4.5379 C   0  0  0  0  0  0  0  0  0  0  0  0
   -0.3950   -6.8773    4.4742 Cl  0  0  0  0  0  0  0  0  0  0  0  0
    2.1455   -6.9309    2.4368 Cl  0  0  0  0  0  0  0  0  0  0  0  0
    0.3627   -4.0314    7.7805 C   0  0  0  0  0  0  0  0  0  0  0  0
    1.9961   -4.0843    8.3796 S   0  0  0  0  0  0  0  0  0  0  0  0
   -2.0416   -4.2342    4.9240 C   0  0  0  0  0  0  0  0  0  0  0  0
   -3.3740   -3.9399    4.9665 C   0  0  0  0  0  0  0  0  0  0  0  0
   -3.9245   -3.6092    6.5977 S   0  0  0  0  0  0  0  0  0  0  0  0
   -4.2630   -3.8027    3.8653 C   0  0  0  0  0  0  0  0  0  0  0  0
   -3.6884   -4.0277    2.2333 S   0  0  0  0  0  0  0  0  0  0  0  0
   -5.2261   -3.5517    1.6083 C   0  0  0  0  0  0  0  0  0  0  0  0
   -5.6126   -3.4267    0.2546 C   0  0  0  0  0  0  0  0  0  0  0  0
   -6.9380   -3.1317   -0.0348 C   0  0  0  0  0  0  0  0  0  0  0  0
   -7.8930   -3.0473    0.9099 O   0  0  0  0  0  0  0  0  0  0  0  0
   -7.4952   -2.6929    2.2553 C   0  0  0  0  0  0  0  0  0  0  0  0
   -8.5781   -3.2900    3.1671 C   0  0  0  0  0  0  0  0  0  0  0  0
   -9.9814   -2.7798    2.8629 C   0  0  0  0  0  0  0  0  0  0  0  0
   -7.4272   -1.1474    2.2905 C   0  0  0  0  0  0  0  0  0  0  0  0
   -7.1496   -0.5382    3.6569 C   0  0  0  0  0  0  0  0  0  0  0  0
   -6.1357   -3.2525    2.6076 C   0  0  0  0  0  0  0  0  0  0  0  0
   -5.5831   -3.4089    3.8836 C   0  0  0  0  0  0  0  0  0  0  0  0
   -7.1736   -2.9715   -1.4094 C   0  0  0  0  0  0  0  0  0  0  0  0
   -6.0378   -3.1499   -2.1654 C   0  0  0  0  0  0  0  0  0  0  0  0
   -4.6559   -3.5406   -1.1761 S   0  0  0  0  0  0  0  0  0  0  0  0
   -5.8371   -2.8956   -3.5561 C   0  0  0  0  0  0  0  0  0  0  0  0
   -6.4962   -1.9893   -4.3356 C   0  0  0  0  0  0  0  0  0  0  0  0
   -5.8779   -1.7693   -5.5924 C   0  0  0  0  0  0  0  0  0  0  0  0
   -6.1377   -0.7258   -6.5049 C   0  0  0  0  0  0  0  0  0  0  0  0
   -7.3279    0.0914   -6.3708 C   0  0  0  0  0  0  0  0  0  0  0  0
   -7.2794    1.8284   -6.4277 S   0  0  0  0  0  0  0  0  0  0  0  0
   -8.9911    1.9613   -6.2116 C   0  0  0  0  0  0  0  0  0  0  0  0
   -9.6651    3.2884   -6.2167 C   0  0  0  0  0  0  0  0  0  0  0  0
   -9.9103    3.7679   -7.6495 C   0  0  0  0  0  0  0  0  0  0  0  0
   -9.5560    0.7240   -6.1172 C   0  0  0  0  0  0  0  0  0  0  0  0
  -11.2386    0.4514   -5.9144 Cl  0  0  0  0  0  0  0  0  0  0  0  0
   -8.6172   -0.3378   -6.1989 C   0  0  0  0  0  0  0  0  0  0  0  0
   -9.0899   -1.9877   -6.1674 Cl  0  0  0  0  0  0  0  0  0  0  0  0
   -5.1653   -0.4821   -7.4671 C   0  0  0  0  0  0  0  0  0  0  0  0
   -4.0591   -1.3428   -7.6728 C   0  0  0  0  0  0  0  0  0  0  0  0
   -3.8429   -2.4304   -6.8124 C   0  0  0  0  0  0  0  0  0  0  0  0
   -2.6350   -3.2392   -6.9074 C   0  0  0  0  0  0  0  0  0  0  0  0
   -2.6997   -4.9586   -7.1357 S   0  0  0  0  0  0  0  0  0  0  0  0
   -0.9748   -5.1026   -7.1165 C   0  0  0  0  0  0  0  0  0  0  0  0
   -0.3127   -6.4319   -7.2214 C   0  0  0  0  0  0  0  0  0  0  0  0
   -0.2795   -7.1301   -5.8596 C   0  0  0  0  0  0  0  0  0  0  0  0
   -0.3991   -3.8817   -6.9287 C   0  0  0  0  0  0  0  0  0  0  0  0
   -1.3374   -2.8218   -6.8095 C   0  0  0  0  0  0  0  0  0  0  0  0
   -0.8665   -1.1974   -6.4975 Cl  0  0  0  0  0  0  0  0  0  0  0  0
    1.2951   -3.6210   -6.8495 Cl  0  0  0  0  0  0  0  0  0  0  0  0
   -4.7346   -2.5859   -5.7627 C   0  0  0  0  0  0  0  0  0  0  0  0
   -4.4750   -3.6201   -4.3879 S   0  0  0  0  0  0  0  0  0  0  0  0
   -3.1501   -0.8298   -8.6290 C   0  0  0  0  0  0  0  0  0  0  0  0
   -3.4518    0.4396   -9.0306 C   0  0  0  0  0  0  0  0  0  0  0  0
   -5.0226    0.9560   -8.4449 S   0  0  0  0  0  0  0  0  0  0  0  0
   -2.4486    1.3846   -9.4308 C   0  0  0  0  0  0  0  0  0  0  0  0
   -2.3594    2.8319   -8.4510 S   0  0  0  0  0  0  0  0  0  0  0  0
   -0.6863    2.9960   -8.8298 C   0  0  0  0  0  0  0  0  0  0  0  0
    0.2673    3.7441   -8.0995 C   0  0  0  0  0  0  0  0  0  0  0  0
    1.5974    3.6829   -8.4855 C   0  0  0  0  0  0  0  0  0  0  0  0
    1.9421    3.1668   -9.6893 O   0  0  0  0  0  0  0  0  0  0  0  0
    1.2240    1.9708  -10.0889 C   0  0  0  0  0  0  0  0  0  0  0  0
    1.4155    1.8715  -11.6093 C   0  0  0  0  0  0  0  0  0  0  0  0
    2.8732    1.7540  -12.0369 C   0  0  0  0  0  0  0  0  0  0  0  0
    1.8648    0.8095   -9.2895 C   0  0  0  0  0  0  0  0  0  0  0  0
    1.3826   -0.5944   -9.6217 C   0  0  0  0  0  0  0  0  0  0  0  0
   -0.2494    2.0632   -9.7522 C   0  0  0  0  0  0  0  0  0  0  0  0
   -1.2637    1.1530  -10.0915 C   0  0  0  0  0  0  0  0  0  0  0  0
    2.4771    4.1327   -7.4866 C   0  0  0  0  0  0  0  0  0  0  0  0
    1.8217    4.4696   -6.3226 C   0  0  0  0  0  0  0  0  0  0  0  0
    0.0872    4.3516   -6.4977 S   0  0  0  0  0  0  0  0  0  0  0  0
    2.3346    4.5884   -4.9980 C   0  0  0  0  0  0  0  0  0  0  0  0
    1.6140    4.2873   -3.8769 C   0  0  0  0  0  0  0  0  0  0  0  0
    2.3969    4.1759   -2.7093 C   0  0  0  0  0  0  0  0  0  0  0  0
    1.9734    3.7438   -1.4426 C   0  0  0  0  0  0  0  0  0  0  0  0
    0.6162    3.2904   -1.1859 C   0  0  0  0  0  0  0  0  0  0  0  0
   -0.1096    2.0565   -2.1793 S   0  0  0  0  0  0  0  0  0  0  0  0
   -1.5115    1.9543   -1.1719 C   0  0  0  0  0  0  0  0  0  0  0  0
   -2.5944    0.9670   -1.4407 C   0  0  0  0  0  0  0  0  0  0  0  0
   -2.3989   -0.3013   -0.6054 C   0  0  0  0  0  0  0  0  0  0  0  0
   -1.4109    2.8328   -0.1347 C   0  0  0  0  0  0  0  0  0  0  0  0
   -2.6119    3.0146    1.0769 Cl  0  0  0  0  0  0  0  0  0  0  0  0
   -0.2097    3.5912   -0.1383 C   0  0  0  0  0  0  0  0  0  0  0  0
    0.1141    4.8080    1.0242 Cl  0  0  0  0  0  0  0  0  0  0  0  0
    2.9555    3.6139   -0.4713 C   0  0  0  0  0  0  0  0  0  0  0  0
    4.3218    3.9125   -0.6956 C   0  0  0  0  0  0  0  0  0  0  0  0
    4.7314    4.3984   -1.9544 C   0  0  0  0  0  0  0  0  0  0  0  0
    6.1135    4.7693   -2.1941 C   0  0  0  0  0  0  0  0  0  0  0  0
    6.9867    4.2187   -3.5931 S   0  0  0  0  0  0  0  0  0  0  0  0
    8.4200    5.0708   -3.1315 C   0  0  0  0  0  0  0  0  0  0  0  0
    9.6328    5.0629   -3.9947 C   0  0  0  0  0  0  0  0  0  0  0  0
    9.5249    6.1247   -5.0920 C   0  0  0  0  0  0  0  0  0  0  0  0
    8.2147    5.7487   -1.9668 C   0  0  0  0  0  0  0  0  0  0  0  0
    6.9120    5.5758   -1.4283 C   0  0  0  0  0  0  0  0  0  0  0  0
    6.3920    6.3819   -0.0050 Cl  0  0  0  0  0  0  0  0  0  0  0  0
    9.4046    6.7212   -1.2031 Cl  0  0  0  0  0  0  0  0  0  0  0  0
    3.7609    4.4736   -2.9476 C   0  0  0  0  0  0  0  0  0  0  0  0
    4.0265    4.8603   -4.6317 S   0  0  0  0  0  0  0  0  0  0  0  0
    5.1303    3.5087    0.4005 C   0  0  0  0  0  0  0  0  0  0  0  0
    4.4234    2.9283    1.4116 C   0  0  0  0  0  0  0  0  0  0  0  0
    2.7008    2.9005    1.0877 S   0  0  0  0  0  0  0  0  0  0  0  0
    4.8655    2.2566    2.5894 C   0  0  0  0  0  0  0  0  0  0  0  0
    4.0490    1.5499    3.4220 C   0  0  0  0  0  0  0  0  0  0  0  0
    4.7344    0.8284    4.4257 C   0  0  0  0  0  0  0  0  0  0  0  0
    4.1943   -0.0825    5.3526 C   0  0  0  0  0  0  0  0  0  0  0  0
    2.7779   -0.4046    5.3162 C   0  0  0  0  0  0  0  0  0  0  0  0
    2.0212   -0.7681    3.7891 S   0  0  0  0  0  0  0  0  0  0  0  0
    0.4700   -1.0066    4.5067 C   0  0  0  0  0  0  0  0  0  0  0  0
   -0.7209   -1.3266    3.6722 C   0  0  0  0  0  0  0  0  0  0  0  0
   -0.3541   -2.1543    2.4455 C   0  0  0  0  0  0  0  0  0  0  0  0
    0.5474   -0.8183    5.8539 C   0  0  0  0  0  0  0  0  0  0  0  0
   -0.8009   -0.9302    6.9117 Cl  0  0  0  0  0  0  0  0  0  0  0  0
    1.8504   -0.4883    6.3183 C   0  0  0  0  0  0  0  0  0  0  0  0
    2.1523   -0.1500    7.9685 Cl  0  0  0  0  0  0  0  0  0  0  0  0
    5.0940   -0.6920    6.2210 C   0  0  0  0  0  0  0  0  0  0  0  0
    6.4853   -0.4218    6.1965 C   0  0  0  0  0  0  0  0  0  0  0  0
    7.0193    0.4834    5.2652 C   0  0  0  0  0  0  0  0  0  0  0  0
    8.4447    0.7652    5.1981 C   0  0  0  0  0  0  0  0  0  0  0  0
    9.6181   -0.5028    4.9989 S   0  0  0  0  0  0  0  0  0  0  0  0
   10.9399    0.6144    4.9754 C   0  0  0  0  0  0  0  0  0  0  0  0
   12.3397    0.1524    4.7669 C   0  0  0  0  0  0  0  0  0  0  0  0
   12.6595    0.0339    3.2747 C   0  0  0  0  0  0  0  0  0  0  0  0
   10.4817    1.8907    5.1085 C   0  0  0  0  0  0  0  0  0  0  0  0
    9.0691    1.9807    5.2363 C   0  0  0  0  0  0  0  0  0  0  0  0
    8.2619    3.4705    5.4922 Cl  0  0  0  0  0  0  0  0  0  0  0  0
   11.4974    3.2732    5.1339 Cl  0  0  0  0  0  0  0  0  0  0  0  0
    6.1270    1.0806    4.3842 C   0  0  0  0  0  0  0  0  0  0  0  0
    6.5462    2.1336    3.0569 S   0  0  0  0  0  0  0  0  0  0  0  0
    7.1845   -1.1837    7.1772 C   0  0  0  0  0  0  0  0  0  0  0  0
    6.3743   -2.0062    7.8745 C   0  0  0  0  0  0  0  0  0  0  0  0
    4.7135   -1.9034    7.4096 S   0  0  0  0  0  0  0  0  0  0  0  0
    2.1877   -3.5189   10.7350 H   0  0  0  0  0  0  0  0  0  0  0  0
   -0.3838   -3.1738   10.9495 H   0  0  0  0  0  0  0  0  0  0  0  0
   -5.3089   -1.4882   13.0235 H   0  0  0  0  0  0  0  0  0  0  0  0
   -3.8083   -0.5567   12.8515 H   0  0  0  0  0  0  0  0  0  0  0  0
   -6.2860   -0.2617   11.0841 H   0  0  0  0  0  0  0  0  0  0  0  0
   -4.7888    0.6586   10.9058 H   0  0  0  0  0  0  0  0  0  0  0  0
   -5.7843    0.8615   12.3521 H   0  0  0  0  0  0  0  0  0  0  0  0
    4.8976   -4.0510    3.9010 H   0  0  0  0  0  0  0  0  0  0  0  0
    4.6117   -5.4679    2.8710 H   0  0  0  0  0  0  0  0  0  0  0  0
    4.8943   -3.4243    1.4939 H   0  0  0  0  0  0  0  0  0  0  0  0
    3.2545   -4.0575    1.3217 H   0  0  0  0  0  0  0  0  0  0  0  0
    3.5533   -2.6458    2.3410 H   0  0  0  0  0  0  0  0  0  0  0  0
   -1.5328   -4.4482    4.0025 H   0  0  0  0  0  0  0  0  0  0  0  0
   -8.5532   -4.3730    3.0263 H   0  0  0  0  0  0  0  0  0  0  0  0
   -8.3232   -3.0807    4.2051 H   0  0  0  0  0  0  0  0  0  0  0  0
  -10.7093   -3.3478    3.4371 H   0  0  0  0  0  0  0  0  0  0  0  0
  -10.2016   -2.9010    1.8061 H   0  0  0  0  0  0  0  0  0  0  0  0
  -10.0851   -1.7305    3.1260 H   0  0  0  0  0  0  0  0  0  0  0  0
   -8.3721   -0.7686    1.8980 H   0  0  0  0  0  0  0  0  0  0  0  0
   -6.6390   -0.8443    1.5943 H   0  0  0  0  0  0  0  0  0  0  0  0
   -7.9353   -0.7853    4.3654 H   0  0  0  0  0  0  0  0  0  0  0  0
   -7.1028    0.5446    3.5667 H   0  0  0  0  0  0  0  0  0  0  0  0
   -6.1987   -0.8858    4.0529 H   0  0  0  0  0  0  0  0  0  0  0  0
   -6.1049   -3.2355    4.8072 H   0  0  0  0  0  0  0  0  0  0  0  0
   -8.1370   -2.7425   -1.8242 H   0  0  0  0  0  0  0  0  0  0  0  0
   -7.3358   -1.4216   -3.9798 H   0  0  0  0  0  0  0  0  0  0  0  0
   -9.0400    4.0145   -5.6941 H   0  0  0  0  0  0  0  0  0  0  0  0
  -10.6173    3.2010   -5.6906 H   0  0  0  0  0  0  0  0  0  0  0  0
  -10.4011    4.7372   -7.6398 H   0  0  0  0  0  0  0  0  0  0  0  0
  -10.5438    3.0616   -8.1801 H   0  0  0  0  0  0  0  0  0  0  0  0
   -8.9668    3.8579   -8.1824 H   0  0  0  0  0  0  0  0  0  0  0  0
   -0.8566   -7.0537   -7.9345 H   0  0  0  0  0  0  0  0  0  0  0  0
    0.7061   -6.2890   -7.5862 H   0  0  0  0  0  0  0  0  0  0  0  0
    0.2727   -6.5298   -5.1411 H   0  0  0  0  0  0  0  0  0  0  0  0
   -1.2903   -7.2751   -5.4860 H   0  0  0  0  0  0  0  0  0  0  0  0
    0.2032   -8.0994   -5.9488 H   0  0  0  0  0  0  0  0  0  0  0  0
   -2.2384   -1.3262   -8.9035 H   0  0  0  0  0  0  0  0  0  0  0  0
    0.8449    1.0201  -11.9802 H   0  0  0  0  0  0  0  0  0  0  0  0
    0.9875    2.7777  -12.0436 H   0  0  0  0  0  0  0  0  0  0  0  0
    3.2955    0.7976  -11.7406 H   0  0  0  0  0  0  0  0  0  0  0  0
    3.4570    2.5518  -11.5869 H   0  0  0  0  0  0  0  0  0  0  0  0
    2.9451    1.8376  -13.1187 H   0  0  0  0  0  0  0  0  0  0  0  0
    2.9431    0.8757   -9.4434 H   0  0  0  0  0  0  0  0  0  0  0  0
    1.6754    1.0063   -8.2295 H   0  0  0  0  0  0  0  0  0  0  0  0
    0.3377   -0.7193   -9.3516 H   0  0  0  0  0  0  0  0  0  0  0  0
    1.5062   -0.8191  -10.6776 H   0  0  0  0  0  0  0  0  0  0  0  0
    1.9621   -1.3155   -9.0499 H   0  0  0  0  0  0  0  0  0  0  0  0
   -1.1404    0.3290  -10.7697 H   0  0  0  0  0  0  0  0  0  0  0  0
    3.5473    4.1349   -7.5827 H   0  0  0  0  0  0  0  0  0  0  0  0
    0.5580    4.0904   -3.9029 H   0  0  0  0  0  0  0  0  0  0  0  0
   -2.5940    0.7104   -2.5010 H   0  0  0  0  0  0  0  0  0  0  0  0
   -3.5563    1.4204   -1.1910 H   0  0  0  0  0  0  0  0  0  0  0  0
   -1.4421   -0.7631   -0.8360 H   0  0  0  0  0  0  0  0  0  0  0  0
   -2.4229   -0.0618    0.4545 H   0  0  0  0  0  0  0  0  0  0  0  0
   -3.1886   -1.0161   -0.8213 H   0  0  0  0  0  0  0  0  0  0  0  0
   10.5072    5.2654   -3.3736 H   0  0  0  0  0  0  0  0  0  0  0  0
    9.7464    4.0786   -4.4519 H   0  0  0  0  0  0  0  0  0  0  0  0
   10.4137    6.1075   -5.7170 H   0  0  0  0  0  0  0  0  0  0  0  0
    8.6542    5.9351   -5.7150 H   0  0  0  0  0  0  0  0  0  0  0  0
    9.4280    7.1134   -4.6508 H   0  0  0  0  0  0  0  0  0  0  0  0
    6.2019    3.5915    0.4184 H   0  0  0  0  0  0  0  0  0  0  0  0
    2.9822    1.5445    3.2987 H   0  0  0  0  0  0  0  0  0  0  0  0
   -1.1912   -0.3918    3.3497 H   0  0  0  0  0  0  0  0  0  0  0  0
   -1.4431   -1.8606    4.2931 H   0  0  0  0  0  0  0  0  0  0  0  0
    0.3126   -1.5910    1.7963 H   0  0  0  0  0  0  0  0  0  0  0  0
    0.1525   -3.0700    2.7420 H   0  0  0  0  0  0  0  0  0  0  0  0
   -1.2477   -2.4149    1.8847 H   0  0  0  0  0  0  0  0  0  0  0  0
   12.4769   -0.8183    5.2465 H   0  0  0  0  0  0  0  0  0  0  0  0
   13.0178    0.8718    5.2293 H   0  0  0  0  0  0  0  0  0  0  0  0
   13.6851   -0.2980    3.1381 H   0  0  0  0  0  0  0  0  0  0  0  0
   12.5363    0.9970    2.7861 H   0  0  0  0  0  0  0  0  0  0  0  0
   11.9932   -0.6835    2.8019 H   0  0  0  0  0  0  0  0  0  0  0  0
    8.2436   -1.1097    7.3409 H   0  0  0  0  0  0  0  0  0  0  0  0
    6.6443   -2.6827    8.6616 H   0  0  0  0  0  0  0  0  0  0  0  0
  1  2  2  0  0  0  0
  2  3  1  0  0  0  0
  3  4  2  0  0  0  0
  4  5  1  0  0  0  0
  5  6  1  0  0  0  0
  6  7  1  0  0  0  0
  7  8  1  0  0  0  0
  8  9  1  0  0  0  0
  7 10  2  0  0  0  0
 10 11  1  0  0  0  0
 10 12  1  0  0  0  0
 12 13  1  0  0  0  0
  4 14  1  0  0  0  0
 14 15  2  0  0  0  0
 15 16  1  0  0  0  0
 16 17  1  0  0  0  0
 17 18  1  0  0  0  0
 18 19  1  0  0  0  0
 19 20  1  0  0  0  0
 20 21  1  0  0  0  0
 19 22  2  0  0  0  0
 22 23  1  0  0  0  0
 23 24  1  0  0  0  0
 22 25  1  0  0  0  0
 16 26  2  0  0  0  0
 26 27  1  0  0  0  0
 15 28  1  0  0  0  0
 28 29  2  0  0  0  0
 29 30  1  0  0  0  0
 29 31  1  0  0  0  0
 31 32  1  0  0  0  0
 32 33  1  0  0  0  0
 33 34  1  0  0  0  0
 34 35  2  0  0  0  0
 35 36  1  0  0  0  0
 36 37  1  0  0  0  0
 37 38  1  0  0  0  0
 38 39  1  0  0  0  0
 37 40  1  0  0  0  0
 40 41  1  0  0  0  0
 37 42  1  0  0  0  0
 42 43  1  0  0  0  0
 35 44  1  0  0  0  0
 44 45  2  0  0  0  0
 45 46  1  0  0  0  0
 45 47  1  0  0  0  0
 47 48  2  0  0  0  0
 48 49  1  0  0  0  0
 49 50  2  0  0  0  0
 50 51  1  0  0  0  0
 51 52  1  0  0  0  0
 52 53  1  0  0  0  0
 53 54  1  0  0  0  0
 54 55  1  0  0  0  0
 53 56  2  0  0  0  0
 56 57  1  0  0  0  0
 56 58  1  0  0  0  0
 58 59  1  0  0  0  0
 50 60  1  0  0  0  0
 60 61  2  0  0  0  0
 61 62  1  0  0  0  0
 62 63  1  0  0  0  0
 63 64  1  0  0  0  0
 64 65  1  0  0  0  0
 65 66  1  0  0  0  0
 66 67  1  0  0  0  0
 65 68  2  0  0  0  0
 68 69  1  0  0  0  0
 69 70  1  0  0  0  0
 68 71  1  0  0  0  0
 62 72  2  0  0  0  0
 72 73  1  0  0  0  0
 61 74  1  0  0  0  0
 74 75  2  0  0  0  0
 75 76  1  0  0  0  0
 75 77  1  0  0  0  0
 77 78  1  0  0  0  0
 78 79  1  0  0  0  0
 79 80  1  0  0  0  0
 80 81  2  0  0  0  0
 81 82  1  0  0  0  0
 82 83  1  0  0  0  0
 83 84  1  0  0  0  0
 84 85  1  0  0  0  0
 83 86  1  0  0  0  0
 86 87  1  0  0  0  0
 83 88  1  0  0  0  0
 88 89  1  0  0  0  0
 81 90  1  0  0  0  0
 90 91  2  0  0  0  0
 91 92  1  0  0  0  0
 91 93  1  0  0  0  0
 93 94  2  0  0  0  0
 94 95  1  0  0  0  0
 95 96  2  0  0  0  0
 96 97  1  0  0  0  0
 97 98  1  0  0  0  0
 98 99  1  0  0  0  0
 99100  1  0  0  0  0
100101  1  0  0  0  0
 99102  2  0  0  0  0
102103  1  0  0  0  0
102104  1  0  0  0  0
104105  1  0  0  0  0
 96106  1  0  0  0  0
106107  2  0  0  0  0
107108  1  0  0  0  0
108109  1  0  0  0  0
109110  1  0  0  0  0
110111  1  0  0  0  0
111112  1  0  0  0  0
112113  1  0  0  0  0
111114  2  0  0  0  0
114115  1  0  0  0  0
115116  1  0  0  0  0
114117  1  0  0  0  0
108118  2  0  0  0  0
118119  1  0  0  0  0
107120  1  0  0  0  0
120121  2  0  0  0  0
121122  1  0  0  0  0
121123  1  0  0  0  0
123124  2  0  0  0  0
124125  1  0  0  0  0
125126  2  0  0  0  0
126127  1  0  0  0  0
127128  1  0  0  0  0
128129  1  0  0  0  0
129130  1  0  0  0  0
130131  1  0  0  0  0
129132  2  0  0  0  0
132133  1  0  0  0  0
132134  1  0  0  0  0
134135  1  0  0  0  0
126136  1  0  0  0  0
136137  2  0  0  0  0
137138  1  0  0  0  0
138139  1  0  0  0  0
139140  1  0  0  0  0
140141  1  0  0  0  0
141142  1  0  0  0  0
142143  1  0  0  0  0
141144  2  0  0  0  0
144145  1  0  0  0  0
145146  1  0  0  0  0
144147  1  0  0  0  0
138148  2  0  0  0  0
148149  1  0  0  0  0
137150  1  0  0  0  0
150151  2  0  0  0  0
151152  1  0  0  0  0
 27  1  1  0  0  0  0
 43 31  2  0  0  0  0
 73 47  1  0  0  0  0
 89 77  2  0  0  0  0
119 93  1  0  0  0  0
149123  1  0  0  0  0
 26  3  1  0  0  0  0
 42 33  2  0  0  0  0
 72 49  1  0  0  0  0
 88 79  2  0  0  0  0
118 95  1  0  0  0  0
148125  1  0  0  0  0
 12  5  2  0  0  0  0
 30 14  1  0  0  0  0
 46 34  1  0  0  0  0
 58 51  2  0  0  0  0
 76 60  1  0  0  0  0
 92 80  1  0  0  0  0
104 97  2  0  0  0  0
122106  1  0  0  0  0
134127  2  0  0  0  0
152136  1  0  0  0  0
 23 17  2  0  0  0  0
 69 63  2  0  0  0  0
115109  2  0  0  0  0
145139  2  0  0  0  0
  1153  1  0  0  0  0
  2154  1  0  0  0  0
  8155  1  0  0  0  0
  8156  1  0  0  0  0
  9157  1  0  0  0  0
  9158  1  0  0  0  0
  9159  1  0  0  0  0
 20160  1  0  0  0  0
 20161  1  0  0  0  0
 21162  1  0  0  0  0
 21163  1  0  0  0  0
 21164  1  0  0  0  0
 28165  1  0  0  0  0
 38166  1  0  0  0  0
 38167  1  0  0  0  0
 39168  1  0  0  0  0
 39169  1  0  0  0  0
 39170  1  0  0  0  0
 40171  1  0  0  0  0
 40172  1  0  0  0  0
 41173  1  0  0  0  0
 41174  1  0  0  0  0
 41175  1  0  0  0  0
 43176  1  0  0  0  0
 44177  1  0  0  0  0
 48178  1  0  0  0  0
 54179  1  0  0  0  0
 54180  1  0  0  0  0
 55181  1  0  0  0  0
 55182  1  0  0  0  0
 55183  1  0  0  0  0
 66184  1  0  0  0  0
 66185  1  0  0  0  0
 67186  1  0  0  0  0
 67187  1  0  0  0  0
 67188  1  0  0  0  0
 74189  1  0  0  0  0
 84190  1  0  0  0  0
 84191  1  0  0  0  0
 85192  1  0  0  0  0
 85193  1  0  0  0  0
 85194  1  0  0  0  0
 86195  1  0  0  0  0
 86196  1  0  0  0  0
 87197  1  0  0  0  0
 87198  1  0  0  0  0
 87199  1  0  0  0  0
 89200  1  0  0  0  0
 90201  1  0  0  0  0
 94202  1  0  0  0  0
100203  1  0  0  0  0
100204  1  0  0  0  0
101205  1  0  0  0  0
101206  1  0  0  0  0
101207  1  0  0  0  0
112208  1  0  0  0  0
112209  1  0  0  0  0
113210  1  0  0  0  0
113211  1  0  0  0  0
113212  1  0  0  0  0
120213  1  0  0  0  0
124214  1  0  0  0  0
130215  1  0  0  0  0
130216  1  0  0  0  0
131217  1  0  0  0  0
131218  1  0  0  0  0
131219  1  0  0  0  0
142220  1  0  0  0  0
142221  1  0  0  0  0
143222  1  0  0  0  0
143223  1  0  0  0  0
143224  1  0  0  0  0
150225  1  0  0  0  0
151226  1  0  0  0  0
M  END
