146

C          4.57990        4.06540        7.97210
S          3.39100        5.10560        7.26330
C          4.07490        4.85580        5.67830
C          3.62560        5.43580        4.49440
C          4.37730        5.12600        3.35450
C          4.27370        5.48940        1.97600
C          5.27830        4.84200        1.34340
O          6.02270        4.08790        2.18570
C          5.48560        4.24710        3.41960
C          5.91440        3.66640        4.59450
C          5.19560        3.98930        5.74280
C          5.44720        3.55170        7.07890
C          2.50420        6.36310        4.40930
C          1.26970        6.20790        4.90860
C          0.72190        5.03250        5.52750
S         -0.73820        5.20600        6.48920
C         -0.77210        3.49860        6.82140
C         -1.74530        2.84490        7.56490
C         -1.56910        1.46250        7.70070
C         -2.29100        0.43370        8.38000
C         -1.62240       -0.71520        8.13280
O         -0.52960       -0.52520        7.35750
C         -0.47990        0.80130        7.08220
C          0.46300        1.45430        6.31760
C          0.30790        2.83330        6.18640
C          1.12780        3.73500        5.45850
C         -2.85520        3.55680        8.19330
C         -4.15480        3.28700        8.00180
C         -4.71420        2.37180        7.05150
S         -3.80730        1.74000        5.70220
C         -5.20640        0.91910        5.11720
C         -5.29010        0.03430        4.01980
C         -6.42800       -0.74870        3.88250
O         -7.47300       -0.68020        4.73290
C         -7.64610        0.53110        5.50500
C         -8.46230        0.10850        6.73640
C         -9.81070       -0.51320        6.39300
C         -8.37910        1.54070        4.59090
C         -8.75770        2.85030        5.26740
C         -6.31600        1.11730        5.91950
C         -6.02640        1.95060        7.00650
C         -6.33880       -1.65940        2.82140
C         -5.14220       -1.56660        2.13860
S         -4.10990       -0.33480        2.81690
C         -4.69910       -2.32080        1.02040
S         -3.16180       -1.96580        0.27490
C         -3.38770       -3.25350       -0.85200
C         -2.56700       -3.59600       -1.94770
C         -3.07380       -4.46270       -2.90770
O         -4.30450       -5.01090       -2.81840
C         -4.89490       -5.13930       -1.49930
C         -4.25880       -6.40220       -0.86400
C         -4.32630       -6.49150        0.65560
C         -6.39540       -5.28070       -1.82490
C         -7.27350       -6.01740       -0.82250
C         -4.58590       -3.92390       -0.65700
C         -5.32560       -3.38210        0.39710
C         -2.20930       -4.64220       -3.99410
C         -1.03890       -3.91920       -3.86940
S         -1.00340       -3.00790       -2.38250
C          0.05460       -3.85480       -4.77250
S          1.37370       -2.74680       -4.49000
C          2.15810       -3.27700       -5.93380
C          3.33800       -2.76880       -6.52170
C          3.65490       -3.15980       -7.81660
O          2.91320       -4.02720       -8.53240
C          2.01700       -4.91210       -7.82400
C          0.93590       -5.28010       -8.84910
C          0.12830       -4.06630       -9.29350
C          2.86270       -6.14150       -7.40860
C          2.10590       -7.22460       -6.65350
C          1.43930       -4.26130       -6.59190
C          0.24940       -4.58030       -5.93180
C          4.78340       -2.50230       -8.32380
C          5.33570       -1.61750       -7.42190
S          4.45360       -1.59680       -5.91990
C          6.47310       -0.77870       -7.60290
S          6.96850        0.31280       -6.32460
C          8.29070        0.92740       -7.28130
C          9.18650        1.93280       -6.91700
C         10.14090        2.26190       -7.89520
C         11.21890        3.19920       -7.94790
C         11.79440        3.04410       -9.16210
O         11.18940        2.08910       -9.90490
C         10.17790        1.60050       -9.14650
C          9.28590        0.61220       -9.49850
C          8.32320        0.27890       -8.54610
C          7.28780       -0.68010       -8.69220
C          9.19330        2.65540       -5.65630
C          8.58670        2.31420       -4.52490
H          4.54720        3.90220        9.03180
H          3.54670        6.13810        1.53300
H          5.56920        4.82780        0.31070
H          6.76280        3.00310        4.62740
H          6.25220        2.88610        7.33390
H          2.72140        7.27410        3.86520
H          0.57560        7.03440        4.82290
H         -3.18140        0.55120        8.96270
H         -1.81370       -1.72410        8.44440
H          1.27750        0.93220        5.84380
H          1.97560        3.40980        4.88290
H         -2.57570        4.36540        8.85620
H         -4.89100        3.83100        8.58080
H         -7.86090       -0.62090        7.28380
H         -8.60780        0.97550        7.37920
H        -10.26410       -0.92540        7.29150
H        -10.49080        0.22580        5.97780
H         -9.67870       -1.31400        5.67110
H         -9.26940        1.05070        4.19400
H         -7.71590        1.75050        3.74660
H         -9.47730        2.68750        6.06540
H         -7.87840        3.33710        5.68250
H         -9.20620        3.52120        4.53840
H         -6.74060        2.24140        7.75600
H         -7.11940       -2.35300        2.57290
H         -3.20450       -6.39960       -1.15550
H         -4.71790       -7.28150       -1.31860
H         -3.85990       -7.41930        0.97970
H         -5.34900       -6.47980        1.01670
H         -3.79110       -5.66460        1.11550
H         -6.44220       -5.80890       -2.78010
H         -6.79300       -4.27670       -1.98860
H         -7.28580       -5.52660        0.14590
H         -8.29380       -6.03680       -1.20010
H         -6.94630       -7.04430       -0.68840
H         -6.28400       -3.74240        0.71720
H         -2.44470       -5.26280       -4.83750
H          0.27460       -6.02990       -8.41760
H          1.43690       -5.71820       -9.71380
H         -0.59800       -4.35680      -10.04870
H          0.78880       -3.31440       -9.71740
H         -0.40260       -3.62550       -8.45250
H          3.68060       -5.77350       -6.78250
H          3.30290       -6.55930       -8.31670
H          1.64240       -6.81980       -5.75700
H          1.33490       -7.67260       -7.27460
H          2.79730       -8.00910       -6.35540
H         -0.45390       -5.31650       -6.27350
H          5.16490       -2.66790       -9.31310
H         11.52460        3.88820       -7.18790
H         12.62980        3.54200       -9.61550
H          9.32050        0.12480      -10.45840
H          7.16150       -1.26480       -9.58480
H          9.78550        3.56090       -5.67580
H          8.67080        2.93190       -3.64690
H          8.01110        1.41280       -4.41390
