
  xtb     03022213033D
 energy: -178.361545139779 gnorm: 0.000693302524 xtb: 6.4.1 (unknown)
105112  0     0  0            999 V2000
   -3.4227   -0.2800  -10.1243 C   0  0  0  0  0  0  0  0  0  0  0  0
   -2.9708   -0.4944   -9.0304 C   0  0  0  0  0  0  0  0  0  0  0  0
   -2.4315   -0.7313   -7.7643 C   0  0  0  0  0  0  0  0  0  0  0  0
   -0.7147   -0.9071   -7.5472 S   0  0  0  0  0  0  0  0  0  0  0  0
   -0.9322   -1.1204   -5.8307 C   0  0  0  0  0  0  0  0  0  0  0  0
   -2.2635   -1.0625   -5.4836 C   0  0  0  0  0  0  0  0  0  0  0  0
   -3.1086   -0.8452   -6.5747 C   0  0  0  0  0  0  0  0  0  0  0  0
    0.1507   -1.2766   -4.9784 C   0  0  0  0  0  0  0  0  0  0  0  0
    1.0717   -1.3481   -4.1888 C   0  0  0  0  0  0  0  0  0  0  0  0
    2.1299   -1.4261   -3.2904 C   0  0  0  0  0  0  0  0  0  0  0  0
    2.0674   -1.1296   -1.9695 C   0  0  0  0  0  0  0  0  0  0  0  0
    0.9364   -0.6537   -1.2515 C   0  0  0  0  0  0  0  0  0  0  0  0
    1.0916   -0.3607    0.4680 S   0  0  0  0  0  0  0  0  0  0  0  0
   -0.5590    0.1424    0.5676 C   0  0  0  0  0  0  0  0  0  0  0  0
   -1.2923    0.5624    1.7001 C   0  0  0  0  0  0  0  0  0  0  0  0
   -2.6121    0.9612    1.5263 C   0  0  0  0  0  0  0  0  0  0  0  0
   -3.2559    0.9881    0.3479 O   0  0  0  0  0  0  0  0  0  0  0  0
   -2.6363    0.4605   -0.8427 C   0  0  0  0  0  0  0  0  0  0  0  0
   -3.4368   -0.7967   -1.2482 C   0  0  0  0  0  0  0  0  0  0  0  0
   -3.3369   -1.9130   -0.2157 C   0  0  0  0  0  0  0  0  0  0  0  0
   -2.7870    1.5545   -1.9192 C   0  0  0  0  0  0  0  0  0  0  0  0
   -2.0954    2.8513   -1.5159 C   0  0  0  0  0  0  0  0  0  0  0  0
   -1.1848    0.0984   -0.6664 C   0  0  0  0  0  0  0  0  0  0  0  0
   -0.3394   -0.3519   -1.6828 C   0  0  0  0  0  0  0  0  0  0  0  0
   -3.2247    1.3563    2.7234 C   0  0  0  0  0  0  0  0  0  0  0  0
   -2.3836    1.2493    3.8098 C   0  0  0  0  0  0  0  0  0  0  0  0
   -0.8022    0.6592    3.3572 S   0  0  0  0  0  0  0  0  0  0  0  0
   -2.6791    1.5274    5.1323 C   0  0  0  0  0  0  0  0  0  0  0  0
   -2.9611    1.7692    6.2889 C   0  0  0  0  0  0  0  0  0  0  0  0
   -3.2405    1.9717    7.6298 C   0  0  0  0  0  0  0  0  0  0  0  0
   -2.1392    1.3635    8.8369 S   0  0  0  0  0  0  0  0  0  0  0  0
   -3.1853    1.9357   10.1137 C   0  0  0  0  0  0  0  0  0  0  0  0
   -4.2963    2.5691    9.6047 C   0  0  0  0  0  0  0  0  0  0  0  0
   -4.3302    2.5868    8.2081 C   0  0  0  0  0  0  0  0  0  0  0  0
   -2.8225    1.6570   11.4226 C   0  0  0  0  0  0  0  0  0  0  0  0
   -2.4072    1.3176   12.5112 C   0  0  0  0  0  0  0  0  0  0  0  0
   -1.8317    0.8208   13.6825 C   0  0  0  0  0  0  0  0  0  0  0  0
   -0.8897   -0.1452   13.5944 C   0  0  0  0  0  0  0  0  0  0  0  0
   -0.5423   -0.6536   12.3358 C   0  0  0  0  0  0  0  0  0  0  0  0
   -0.3956   -0.9811   11.1771 C   0  0  0  0  0  0  0  0  0  0  0  0
   -0.2607   -1.2754    9.8239 C   0  0  0  0  0  0  0  0  0  0  0  0
    1.1180   -0.7241    8.9135 S   0  0  0  0  0  0  0  0  0  0  0  0
    0.3976   -1.2998    7.4295 C   0  0  0  0  0  0  0  0  0  0  0  0
   -0.8230   -1.8915    7.6630 C   0  0  0  0  0  0  0  0  0  0  0  0
   -1.1925   -1.8776    9.0105 C   0  0  0  0  0  0  0  0  0  0  0  0
    1.0495   -1.1241    6.2200 C   0  0  0  0  0  0  0  0  0  0  0  0
    1.6448   -0.9409    5.1776 C   0  0  0  0  0  0  0  0  0  0  0  0
    2.3395   -0.7393    3.9907 C   0  0  0  0  0  0  0  0  0  0  0  0
    3.5938   -0.2347    3.9734 C   0  0  0  0  0  0  0  0  0  0  0  0
    4.3361   -0.0313    2.8167 C   0  0  0  0  0  0  0  0  0  0  0  0
    5.0488    0.1506    1.8499 C   0  0  0  0  0  0  0  0  0  0  0  0
    5.8943    0.3292    0.7675 C   0  0  0  0  0  0  0  0  0  0  0  0
    5.3152    0.2806   -0.8785 S   0  0  0  0  0  0  0  0  0  0  0  0
    6.9364    0.5165   -1.4831 C   0  0  0  0  0  0  0  0  0  0  0  0
    7.8426    0.6327   -0.4514 C   0  0  0  0  0  0  0  0  0  0  0  0
    7.2577    0.5332    0.8107 C   0  0  0  0  0  0  0  0  0  0  0  0
    7.1876    0.5508   -2.8444 C   0  0  0  0  0  0  0  0  0  0  0  0
    7.4014    0.5613   -4.0395 C   0  0  0  0  0  0  0  0  0  0  0  0
    7.6240    0.5595   -5.4132 C   0  0  0  0  0  0  0  0  0  0  0  0
    6.6224    0.7247   -6.3087 C   0  0  0  0  0  0  0  0  0  0  0  0
    5.3056    0.9578   -5.9240 C   0  0  0  0  0  0  0  0  0  0  0  0
    4.1823    1.1899   -5.5258 C   0  0  0  0  0  0  0  0  0  0  0  0
    2.8851    1.4717   -5.1319 C   0  0  0  0  0  0  0  0  0  0  0  0
    1.6036    1.5779   -6.3083 S   0  0  0  0  0  0  0  0  0  0  0  0
    0.4498    1.9416   -5.0522 C   0  0  0  0  0  0  0  0  0  0  0  0
    1.0509    1.9808   -3.8147 C   0  0  0  0  0  0  0  0  0  0  0  0
    2.4198    1.7134   -3.8575 C   0  0  0  0  0  0  0  0  0  0  0  0
   -0.8869    2.1341   -5.3755 C   0  0  0  0  0  0  0  0  0  0  0  0
   -2.0366    2.2702   -5.7339 C   0  0  0  0  0  0  0  0  0  0  0  0
   -3.3686    2.4208   -6.1438 C   0  0  0  0  0  0  0  0  0  0  0  0
   -4.3728    2.7159   -5.3206 C   0  0  0  0  0  0  0  0  0  0  0  0
   -3.8303   -0.0969  -11.0729 H   0  0  0  0  0  0  0  0  0  0  0  0
   -2.6079   -1.1751   -4.4709 H   0  0  0  0  0  0  0  0  0  0  0  0
   -4.1790   -0.7675   -6.5029 H   0  0  0  0  0  0  0  0  0  0  0  0
    3.0762   -1.7441   -3.7094 H   0  0  0  0  0  0  0  0  0  0  0  0
    2.9684   -1.2489   -1.3834 H   0  0  0  0  0  0  0  0  0  0  0  0
   -4.4815   -0.5056   -1.3705 H   0  0  0  0  0  0  0  0  0  0  0  0
   -3.0608   -1.1505   -2.2087 H   0  0  0  0  0  0  0  0  0  0  0  0
   -2.3050   -2.2373   -0.0965 H   0  0  0  0  0  0  0  0  0  0  0  0
   -3.7085   -1.5748    0.7490 H   0  0  0  0  0  0  0  0  0  0  0  0
   -3.9311   -2.7671   -0.5310 H   0  0  0  0  0  0  0  0  0  0  0  0
   -3.8533    1.7408   -2.0582 H   0  0  0  0  0  0  0  0  0  0  0  0
   -2.3735    1.1901   -2.8606 H   0  0  0  0  0  0  0  0  0  0  0  0
   -2.1474    3.5728   -2.3277 H   0  0  0  0  0  0  0  0  0  0  0  0
   -2.5721    3.2784   -0.6366 H   0  0  0  0  0  0  0  0  0  0  0  0
   -1.0483    2.6712   -1.2800 H   0  0  0  0  0  0  0  0  0  0  0  0
   -0.6335   -0.4578   -2.7091 H   0  0  0  0  0  0  0  0  0  0  0  0
   -4.2403    1.6988    2.7915 H   0  0  0  0  0  0  0  0  0  0  0  0
   -5.0606    2.9926   10.2322 H   0  0  0  0  0  0  0  0  0  0  0  0
   -5.1217    3.0271    7.6279 H   0  0  0  0  0  0  0  0  0  0  0  0
   -2.1458    1.2262   14.6335 H   0  0  0  0  0  0  0  0  0  0  0  0
   -0.3979   -0.5435   14.4702 H   0  0  0  0  0  0  0  0  0  0  0  0
   -1.4240   -2.3081    6.8743 H   0  0  0  0  0  0  0  0  0  0  0  0
   -2.1157   -2.2790    9.3898 H   0  0  0  0  0  0  0  0  0  0  0  0
    1.8382   -1.0050    3.0695 H   0  0  0  0  0  0  0  0  0  0  0  0
    4.0853    0.0207    4.9050 H   0  0  0  0  0  0  0  0  0  0  0  0
    8.8936    0.7857   -0.6221 H   0  0  0  0  0  0  0  0  0  0  0  0
    7.8006    0.5961    1.7371 H   0  0  0  0  0  0  0  0  0  0  0  0
    8.6424    0.4116   -5.7474 H   0  0  0  0  0  0  0  0  0  0  0  0
    6.8246    0.6950   -7.3711 H   0  0  0  0  0  0  0  0  0  0  0  0
    0.5053    2.1919   -2.9135 H   0  0  0  0  0  0  0  0  0  0  0  0
    3.0620    1.6931   -2.9949 H   0  0  0  0  0  0  0  0  0  0  0  0
   -3.5391    2.2774   -7.2048 H   0  0  0  0  0  0  0  0  0  0  0  0
   -5.3808    2.8224   -5.6821 H   0  0  0  0  0  0  0  0  0  0  0  0
   -4.2125    2.8655   -4.2665 H   0  0  0  0  0  0  0  0  0  0  0  0
  1  2  3  0  0  0  0
  2  3  1  0  0  0  0
  3  4  1  0  0  0  0
  4  5  1  0  0  0  0
  5  6  2  0  0  0  0
  6  7  1  0  0  0  0
  5  8  1  0  0  0  0
  8  9  3  0  0  0  0
  9 10  1  0  0  0  0
 10 11  2  0  0  0  0
 11 12  1  0  0  0  0
 12 13  1  0  0  0  0
 13 14  1  0  0  0  0
 14 15  1  0  0  0  0
 15 16  2  0  0  0  0
 16 17  1  0  0  0  0
 17 18  1  0  0  0  0
 18 19  1  0  0  0  0
 19 20  1  0  0  0  0
 18 21  1  0  0  0  0
 21 22  1  0  0  0  0
 18 23  1  0  0  0  0
 23 24  1  0  0  0  0
 16 25  1  0  0  0  0
 25 26  2  0  0  0  0
 26 27  1  0  0  0  0
 26 28  1  0  0  0  0
 28 29  3  0  0  0  0
 29 30  1  0  0  0  0
 30 31  1  0  0  0  0
 31 32  1  0  0  0  0
 32 33  2  0  0  0  0
 33 34  1  0  0  0  0
 32 35  1  0  0  0  0
 35 36  3  0  0  0  0
 36 37  1  0  0  0  0
 37 38  2  0  0  0  0
 38 39  1  0  0  0  0
 39 40  3  0  0  0  0
 40 41  1  0  0  0  0
 41 42  1  0  0  0  0
 42 43  1  0  0  0  0
 43 44  2  0  0  0  0
 44 45  1  0  0  0  0
 43 46  1  0  0  0  0
 46 47  3  0  0  0  0
 47 48  1  0  0  0  0
 48 49  2  0  0  0  0
 49 50  1  0  0  0  0
 50 51  3  0  0  0  0
 51 52  1  0  0  0  0
 52 53  1  0  0  0  0
 53 54  1  0  0  0  0
 54 55  2  0  0  0  0
 55 56  1  0  0  0  0
 54 57  1  0  0  0  0
 57 58  3  0  0  0  0
 58 59  1  0  0  0  0
 59 60  2  0  0  0  0
 60 61  1  0  0  0  0
 61 62  3  0  0  0  0
 62 63  1  0  0  0  0
 63 64  1  0  0  0  0
 64 65  1  0  0  0  0
 65 66  2  0  0  0  0
 66 67  1  0  0  0  0
 65 68  1  0  0  0  0
 68 69  3  0  0  0  0
 69 70  1  0  0  0  0
 70 71  2  0  0  0  0
  7  3  2  0  0  0  0
 24 12  2  0  0  0  0
 34 30  2  0  0  0  0
 45 41  2  0  0  0  0
 56 52  2  0  0  0  0
 67 63  2  0  0  0  0
 23 14  2  0  0  0  0
 27 15  1  0  0  0  0
  1 72  1  0  0  0  0
  6 73  1  0  0  0  0
  7 74  1  0  0  0  0
 10 75  1  0  0  0  0
 11 76  1  0  0  0  0
 19 77  1  0  0  0  0
 19 78  1  0  0  0  0
 20 79  1  0  0  0  0
 20 80  1  0  0  0  0
 20 81  1  0  0  0  0
 21 82  1  0  0  0  0
 21 83  1  0  0  0  0
 22 84  1  0  0  0  0
 22 85  1  0  0  0  0
 22 86  1  0  0  0  0
 24 87  1  0  0  0  0
 25 88  1  0  0  0  0
 33 89  1  0  0  0  0
 34 90  1  0  0  0  0
 37 91  1  0  0  0  0
 38 92  1  0  0  0  0
 44 93  1  0  0  0  0
 45 94  1  0  0  0  0
 48 95  1  0  0  0  0
 49 96  1  0  0  0  0
 55 97  1  0  0  0  0
 56 98  1  0  0  0  0
 59 99  1  0  0  0  0
 60100  1  0  0  0  0
 66101  1  0  0  0  0
 67102  1  0  0  0  0
 70103  1  0  0  0  0
 71104  1  0  0  0  0
 71105  1  0  0  0  0
M  END
