
  xtb     03012205513D
 energy: -183.324642390080 gnorm: 0.000404360293 xtb: 6.4.1 (unknown)
102115  0     0  0            999 V2000
   -0.7547    4.8775   -1.3794 C   0  0  0  0  0  0  0  0  0  0  0  0
   -0.2417    6.1955   -2.3877 S   0  0  0  0  0  0  0  0  0  0  0  0
    1.3682    5.5707   -2.4976 C   0  0  0  0  0  0  0  0  0  0  0  0
    1.4892    4.4219   -1.7926 C   0  0  0  0  0  0  0  0  0  0  0  0
    0.2695    4.0191   -1.1485 C   0  0  0  0  0  0  0  0  0  0  0  0
    0.5167    2.7898   -0.4477 C   0  0  0  0  0  0  0  0  0  0  0  0
    1.8150    2.4077   -0.6334 C   0  0  0  0  0  0  0  0  0  0  0  0
    2.5301    3.4210   -1.4864 C   0  0  0  0  0  0  0  0  0  0  0  0
    3.6891    3.4148   -1.8254 O   0  0  0  0  0  0  0  0  0  0  0  0
    2.4408    1.2425   -0.1190 C   0  0  0  0  0  0  0  0  0  0  0  0
    1.5049    0.0712    0.7815 S   0  0  0  0  0  0  0  0  0  0  0  0
    2.9173   -0.8891    1.0201 C   0  0  0  0  0  0  0  0  0  0  0  0
    3.0304   -2.0870    1.7493 C   0  0  0  0  0  0  0  0  0  0  0  0
    4.2913   -2.6301    1.9825 C   0  0  0  0  0  0  0  0  0  0  0  0
    5.4235   -2.0681    1.5338 O   0  0  0  0  0  0  0  0  0  0  0  0
    5.3638   -1.0744    0.4819 C   0  0  0  0  0  0  0  0  0  0  0  0
    6.5307   -0.1173    0.7670 C   0  0  0  0  0  0  0  0  0  0  0  0
    6.3013    0.7122    2.0253 C   0  0  0  0  0  0  0  0  0  0  0  0
    5.5214   -1.8043   -0.8737 C   0  0  0  0  0  0  0  0  0  0  0  0
    6.8101   -2.6088   -0.9906 C   0  0  0  0  0  0  0  0  0  0  0  0
    4.0469   -0.3367    0.4381 C   0  0  0  0  0  0  0  0  0  0  0  0
    3.7660    0.8649   -0.2148 C   0  0  0  0  0  0  0  0  0  0  0  0
    4.2429   -3.7803    2.7821 C   0  0  0  0  0  0  0  0  0  0  0  0
    2.9563   -4.1268    3.1517 C   0  0  0  0  0  0  0  0  0  0  0  0
    1.7847   -3.0054    2.4954 S   0  0  0  0  0  0  0  0  0  0  0  0
    2.4907   -5.2234    3.9124 C   0  0  0  0  0  0  0  0  0  0  0  0
    3.5433   -6.4759    4.5686 S   0  0  0  0  0  0  0  0  0  0  0  0
    2.1984   -7.3767    5.1991 C   0  0  0  0  0  0  0  0  0  0  0  0
    1.0217   -6.7666    4.9322 C   0  0  0  0  0  0  0  0  0  0  0  0
    1.1825   -5.5353    4.2164 C   0  0  0  0  0  0  0  0  0  0  0  0
   -0.0977   -4.9746    3.9767 C   0  0  0  0  0  0  0  0  0  0  0  0
   -1.0704   -5.8177    4.4511 C   0  0  0  0  0  0  0  0  0  0  0  0
   -0.4349   -6.9921    5.1252 C   0  0  0  0  0  0  0  0  0  0  0  0
   -1.0014   -7.9007    5.6833 O   0  0  0  0  0  0  0  0  0  0  0  0
   -2.4618   -5.6146    4.2886 C   0  0  0  0  0  0  0  0  0  0  0  0
   -3.6833   -6.5244    5.1622 S   0  0  0  0  0  0  0  0  0  0  0  0
   -4.9684   -5.6394    4.4081 C   0  0  0  0  0  0  0  0  0  0  0  0
   -4.5005   -4.7175    3.5314 C   0  0  0  0  0  0  0  0  0  0  0  0
   -3.0713   -4.7054    3.4470 C   0  0  0  0  0  0  0  0  0  0  0  0
   -2.6865   -3.7561    2.4598 C   0  0  0  0  0  0  0  0  0  0  0  0
   -3.7970   -3.1373    1.9477 C   0  0  0  0  0  0  0  0  0  0  0  0
   -5.0290   -3.6972    2.5967 C   0  0  0  0  0  0  0  0  0  0  0  0
   -6.1780   -3.3856    2.3873 O   0  0  0  0  0  0  0  0  0  0  0  0
   -3.7729   -2.1324    0.9488 C   0  0  0  0  0  0  0  0  0  0  0  0
   -2.2388   -1.6676    0.2389 S   0  0  0  0  0  0  0  0  0  0  0  0
   -3.0379   -0.5302   -0.7794 C   0  0  0  0  0  0  0  0  0  0  0  0
   -2.4490    0.3613   -1.6990 C   0  0  0  0  0  0  0  0  0  0  0  0
   -3.2370    1.3753   -2.2375 C   0  0  0  0  0  0  0  0  0  0  0  0
   -4.5333    1.5387   -1.9192 O   0  0  0  0  0  0  0  0  0  0  0  0
   -5.2713    0.3844   -1.4458 C   0  0  0  0  0  0  0  0  0  0  0  0
   -5.7014   -0.4116   -2.6994 C   0  0  0  0  0  0  0  0  0  0  0  0
   -6.5996   -1.6069   -2.4152 C   0  0  0  0  0  0  0  0  0  0  0  0
   -6.4472    0.9602   -0.6430 C   0  0  0  0  0  0  0  0  0  0  0  0
   -7.3519    1.8775   -1.4572 C   0  0  0  0  0  0  0  0  0  0  0  0
   -4.4110   -0.5008   -0.5741 C   0  0  0  0  0  0  0  0  0  0  0  0
   -4.8174   -1.4109    0.4043 C   0  0  0  0  0  0  0  0  0  0  0  0
   -2.5168    2.2340   -3.0747 C   0  0  0  0  0  0  0  0  0  0  0  0
   -1.1885    1.8733   -3.1985 C   0  0  0  0  0  0  0  0  0  0  0  0
   -0.8206    0.4512   -2.2574 S   0  0  0  0  0  0  0  0  0  0  0  0
   -0.1624    2.5020   -3.9478 C   0  0  0  0  0  0  0  0  0  0  0  0
    1.4714    1.8271   -3.9214 S   0  0  0  0  0  0  0  0  0  0  0  0
    2.0847    3.0862   -4.9333 C   0  0  0  0  0  0  0  0  0  0  0  0
    1.1086    3.9568   -5.2736 C   0  0  0  0  0  0  0  0  0  0  0  0
   -0.1770    3.6328   -4.7286 C   0  0  0  0  0  0  0  0  0  0  0  0
   -1.1073    4.6386   -5.1809 C   0  0  0  0  0  0  0  0  0  0  0  0
   -0.4635    5.5381   -5.9547 C   0  0  0  0  0  0  0  0  0  0  0  0
    0.9723    5.2012   -6.0727 C   0  0  0  0  0  0  0  0  0  0  0  0
    1.8341    5.8061   -6.6680 O   0  0  0  0  0  0  0  0  0  0  0  0
   -1.7697    4.8387   -1.0388 H   0  0  0  0  0  0  0  0  0  0  0  0
    2.1021    6.0989   -3.0735 H   0  0  0  0  0  0  0  0  0  0  0  0
   -0.2132    2.2589    0.1373 H   0  0  0  0  0  0  0  0  0  0  0  0
    7.4291   -0.7197    0.8983 H   0  0  0  0  0  0  0  0  0  0  0  0
    6.6699    0.5353   -0.0946 H   0  0  0  0  0  0  0  0  0  0  0  0
    7.1781    1.3193    2.2349 H   0  0  0  0  0  0  0  0  0  0  0  0
    6.1219    0.0595    2.8765 H   0  0  0  0  0  0  0  0  0  0  0  0
    5.4456    1.3732    1.9075 H   0  0  0  0  0  0  0  0  0  0  0  0
    5.4639   -1.0618   -1.6710 H   0  0  0  0  0  0  0  0  0  0  0  0
    4.6661   -2.4777   -0.9825 H   0  0  0  0  0  0  0  0  0  0  0  0
    6.7746   -3.2323   -1.8805 H   0  0  0  0  0  0  0  0  0  0  0  0
    6.9320   -3.2509   -0.1218 H   0  0  0  0  0  0  0  0  0  0  0  0
    7.6744   -1.9552   -1.0671 H   0  0  0  0  0  0  0  0  0  0  0  0
    4.4842    1.4651   -0.7426 H   0  0  0  0  0  0  0  0  0  0  0  0
    5.1103   -4.3386    3.0827 H   0  0  0  0  0  0  0  0  0  0  0  0
    2.3886   -8.2949    5.7195 H   0  0  0  0  0  0  0  0  0  0  0  0
   -0.2743   -4.0203    3.5244 H   0  0  0  0  0  0  0  0  0  0  0  0
   -5.9840   -5.8702    4.6645 H   0  0  0  0  0  0  0  0  0  0  0  0
   -1.6849   -3.5526    2.1269 H   0  0  0  0  0  0  0  0  0  0  0  0
   -6.2010    0.2802   -3.3791 H   0  0  0  0  0  0  0  0  0  0  0  0
   -4.7881   -0.7554   -3.1946 H   0  0  0  0  0  0  0  0  0  0  0  0
   -7.5503   -1.2936   -1.9934 H   0  0  0  0  0  0  0  0  0  0  0  0
   -6.1223   -2.2962   -1.7231 H   0  0  0  0  0  0  0  0  0  0  0  0
   -6.7991   -2.1391   -3.3423 H   0  0  0  0  0  0  0  0  0  0  0  0
   -6.0220    1.5244    0.1901 H   0  0  0  0  0  0  0  0  0  0  0  0
   -7.0284    0.1376   -0.2295 H   0  0  0  0  0  0  0  0  0  0  0  0
   -6.7622    2.6450   -1.9503 H   0  0  0  0  0  0  0  0  0  0  0  0
   -7.9037    1.3205   -2.2095 H   0  0  0  0  0  0  0  0  0  0  0  0
   -8.0698    2.3601   -0.7985 H   0  0  0  0  0  0  0  0  0  0  0  0
   -5.8289   -1.5678    0.7310 H   0  0  0  0  0  0  0  0  0  0  0  0
   -2.9567    3.0798   -3.5655 H   0  0  0  0  0  0  0  0  0  0  0  0
    3.1245    3.0924   -5.1935 H   0  0  0  0  0  0  0  0  0  0  0  0
   -2.1541    4.6599   -4.9361 H   0  0  0  0  0  0  0  0  0  0  0  0
   -0.8940    6.3993   -6.4315 H   0  0  0  0  0  0  0  0  0  0  0  0
  1  2  1  0  0  0  0
  2  3  1  0  0  0  0
  3  4  2  0  0  0  0
  4  5  1  0  0  0  0
  5  6  1  0  0  0  0
  6  7  2  0  0  0  0
  7  8  1  0  0  0  0
  8  9  2  0  0  0  0
  7 10  1  0  0  0  0
 10 11  1  0  0  0  0
 11 12  1  0  0  0  0
 12 13  1  0  0  0  0
 13 14  2  0  0  0  0
 14 15  1  0  0  0  0
 15 16  1  0  0  0  0
 16 17  1  0  0  0  0
 17 18  1  0  0  0  0
 16 19  1  0  0  0  0
 19 20  1  0  0  0  0
 16 21  1  0  0  0  0
 21 22  1  0  0  0  0
 14 23  1  0  0  0  0
 23 24  2  0  0  0  0
 24 25  1  0  0  0  0
 24 26  1  0  0  0  0
 26 27  1  0  0  0  0
 27 28  1  0  0  0  0
 28 29  2  0  0  0  0
 29 30  1  0  0  0  0
 30 31  1  0  0  0  0
 31 32  2  0  0  0  0
 32 33  1  0  0  0  0
 33 34  2  0  0  0  0
 32 35  1  0  0  0  0
 35 36  1  0  0  0  0
 36 37  1  0  0  0  0
 37 38  2  0  0  0  0
 38 39  1  0  0  0  0
 39 40  1  0  0  0  0
 40 41  2  0  0  0  0
 41 42  1  0  0  0  0
 42 43  2  0  0  0  0
 41 44  1  0  0  0  0
 44 45  1  0  0  0  0
 45 46  1  0  0  0  0
 46 47  1  0  0  0  0
 47 48  2  0  0  0  0
 48 49  1  0  0  0  0
 49 50  1  0  0  0  0
 50 51  1  0  0  0  0
 51 52  1  0  0  0  0
 50 53  1  0  0  0  0
 53 54  1  0  0  0  0
 50 55  1  0  0  0  0
 55 56  1  0  0  0  0
 48 57  1  0  0  0  0
 57 58  2  0  0  0  0
 58 59  1  0  0  0  0
 58 60  1  0  0  0  0
 60 61  1  0  0  0  0
 61 62  1  0  0  0  0
 62 63  2  0  0  0  0
 63 64  1  0  0  0  0
 64 65  1  0  0  0  0
 65 66  2  0  0  0  0
 66 67  1  0  0  0  0
 67 68  2  0  0  0  0
  5  1  2  0  0  0  0
 22 10  2  0  0  0  0
 30 26  2  0  0  0  0
 39 35  2  0  0  0  0
 56 44  2  0  0  0  0
 64 60  2  0  0  0  0
  8  4  1  0  0  0  0
 21 12  2  0  0  0  0
 33 29  1  0  0  0  0
 42 38  1  0  0  0  0
 55 46  2  0  0  0  0
 67 63  1  0  0  0  0
 25 13  1  0  0  0  0
 59 47  1  0  0  0  0
  1 69  1  0  0  0  0
  3 70  1  0  0  0  0
  6 71  1  0  0  0  0
 17 72  1  0  0  0  0
 17 73  1  0  0  0  0
 18 74  1  0  0  0  0
 18 75  1  0  0  0  0
 18 76  1  0  0  0  0
 19 77  1  0  0  0  0
 19 78  1  0  0  0  0
 20 79  1  0  0  0  0
 20 80  1  0  0  0  0
 20 81  1  0  0  0  0
 22 82  1  0  0  0  0
 23 83  1  0  0  0  0
 28 84  1  0  0  0  0
 31 85  1  0  0  0  0
 37 86  1  0  0  0  0
 40 87  1  0  0  0  0
 51 88  1  0  0  0  0
 51 89  1  0  0  0  0
 52 90  1  0  0  0  0
 52 91  1  0  0  0  0
 52 92  1  0  0  0  0
 53 93  1  0  0  0  0
 53 94  1  0  0  0  0
 54 95  1  0  0  0  0
 54 96  1  0  0  0  0
 54 97  1  0  0  0  0
 56 98  1  0  0  0  0
 57 99  1  0  0  0  0
 62100  1  0  0  0  0
 65101  1  0  0  0  0
 66102  1  0  0  0  0
M  END
