90

C         -7.60580        0.99530       -9.40400
S         -6.24200        1.98510       -9.15880
C         -5.56760        0.91550       -7.95970
C         -6.37930       -0.21230       -7.80380
C         -7.57700       -0.13560       -8.61720
N         -8.53560       -1.08180       -8.58220
C         -8.32040       -2.08900       -7.78910
N         -7.19570       -2.34550       -7.11200
C         -6.22680       -1.45380       -7.13530
C         -5.00090       -1.88480       -6.55770
N         -4.01440       -2.28410       -6.13330
C         -4.39530        1.33670       -7.29480
S         -3.79950        0.73890       -5.78430
C         -2.46790        1.86140       -5.73510
C         -2.46650        2.66810       -6.87980
C         -3.59720        2.40370       -7.73070
N         -3.84540        3.10020       -8.84620
C         -2.98270        4.03220       -9.15300
N         -1.82700        4.26470       -8.53500
C         -1.54130        3.58280       -7.44070
C         -0.22000        3.76230       -6.94580
N          0.86410        3.90440       -6.60270
C         -1.61480        1.86830       -4.61140
S         -1.50940        0.45930       -3.58010
C         -0.36120        1.26120       -2.56900
C          0.25210        0.78010       -1.40450
C          1.04990        1.66520       -0.65920
O          1.27500        2.93730       -0.99890
C          0.95780        3.39940       -2.32860
C          2.23440        3.28540       -3.19800
C          3.41420        4.08420       -2.65870
C          0.50250        4.85600       -2.15470
C         -0.83540        4.95970       -1.43140
C         -0.09650        2.56010       -3.00060
C         -0.81260        2.89820       -4.14000
C          1.52330        1.08910        0.51530
C          1.10900       -0.22710        0.67060
S          0.11720       -0.77420       -0.65730
C          1.38240       -1.10080        1.72930
S          2.29680       -0.69860        3.14440
C          2.03320       -2.27460        3.86820
C          1.30700       -3.10840        2.99810
C          0.90840       -2.42020        1.80220
N          0.15640       -2.96820        0.84550
C         -0.21050       -4.20900        1.03930
N          0.18540       -4.98710        2.04020
C          0.95060       -4.48020        2.99270
C          1.43230       -5.46320        3.90150
N          1.81070       -6.33420        4.54260
C          2.48570       -2.46100        5.17960
S          2.13300       -3.79220        6.23420
C          2.99090       -3.07210        7.58270
C          3.57740       -1.85640        7.20940
C          3.24640       -1.49070        5.86000
N          3.61980       -0.34220        5.29780
C          4.33930        0.46510        6.03870
N          4.81720        0.18760        7.24460
C          4.48420       -0.95360        7.82270
C          5.18130       -1.23030        9.02860
N          5.80330       -1.43580        9.96860
C          2.91500       -3.76920        8.80330
S          3.38870       -3.24900       10.38600
C          2.84640       -4.69320       11.13340
C          2.30910       -5.57090       10.22250
C          2.33220       -5.04490        8.88690
N          1.84410       -5.70810        7.83840
C          1.34280       -6.89360        8.07560
N          1.26180       -7.49240        9.26680
C          1.72430       -6.86740       10.32600
C          1.63170       -7.49300       11.59700
N          1.57820       -7.94890       12.64640
H         -8.37930        1.27620      -10.08880
H         -9.09990       -2.83320       -7.70160
H         -3.19400        4.64410      -10.01830
H          2.50580        2.22670       -3.23790
H          1.98990        3.60600       -4.21170
H          4.31290        3.82180       -3.21080
H          3.24820        5.15180       -2.76940
H          3.57470        3.85950       -1.60710
H          0.44470        5.32650       -3.13600
H          1.26240        5.37020       -1.56740
H         -1.63090        4.49070       -2.00650
H         -0.77530        4.47080       -0.46190
H         -1.09340        6.00380       -1.27480
H         -0.78320        3.86810       -4.59710
H          2.13780        1.59820        1.23420
H         -0.85920       -4.66220        0.30350
H          4.60850        1.42430        5.62060
H          2.95490       -4.81700       12.19210
H          0.95580       -7.44380        7.23070
