
  xtb     03012208543D
 energy: -260.660255027132 gnorm: 0.000213492251 xtb: 6.4.1 (unknown)
170187  0     0  0            999 V2000
   -4.2974    4.0307   12.1554 C   0  0  0  0  0  0  0  0  0  0  0  0
   -3.0437    4.2904   11.6106 C   0  0  0  0  0  0  0  0  0  0  0  0
   -2.0888    5.2764   12.0005 C   0  0  0  0  0  0  0  0  0  0  0  0
   -0.9500    5.2490   11.2750 C   0  0  0  0  0  0  0  0  0  0  0  0
    0.2304    6.1524   11.3714 C   0  0  0  0  0  0  0  0  0  0  0  0
    0.2784    7.1191   10.1862 C   0  0  0  0  0  0  0  0  0  0  0  0
   -0.9691    3.9964   10.0512 S   0  0  0  0  0  0  0  0  0  0  0  0
   -2.5752    3.5111   10.5276 C   0  0  0  0  0  0  0  0  0  0  0  0
   -3.3166    2.4849    9.9611 C   0  0  0  0  0  0  0  0  0  0  0  0
   -4.5852    2.2438   10.5000 C   0  0  0  0  0  0  0  0  0  0  0  0
   -5.0426    3.0161   11.5934 C   0  0  0  0  0  0  0  0  0  0  0  0
   -6.6348    2.5100   12.0916 S   0  0  0  0  0  0  0  0  0  0  0  0
   -6.6873    1.3033   10.8249 C   0  0  0  0  0  0  0  0  0  0  0  0
   -7.8697    0.4050   10.7127 C   0  0  0  0  0  0  0  0  0  0  0  0
   -7.7724   -0.7424   11.7209 C   0  0  0  0  0  0  0  0  0  0  0  0
   -5.5590    1.2889   10.0833 C   0  0  0  0  0  0  0  0  0  0  0  0
   -2.7760    1.6675    8.8672 C   0  0  0  0  0  0  0  0  0  0  0  0
   -2.4067    2.2335    7.6423 C   0  0  0  0  0  0  0  0  0  0  0  0
   -2.5446    3.5919    7.2292 C   0  0  0  0  0  0  0  0  0  0  0  0
   -2.0612    3.8338    5.9928 C   0  0  0  0  0  0  0  0  0  0  0  0
   -2.0571    5.1157    5.2350 C   0  0  0  0  0  0  0  0  0  0  0  0
   -3.0198    5.0594    4.0477 C   0  0  0  0  0  0  0  0  0  0  0  0
   -1.4169    2.3924    5.2414 S   0  0  0  0  0  0  0  0  0  0  0  0
   -1.8253    1.4310    6.6367 C   0  0  0  0  0  0  0  0  0  0  0  0
   -1.5947    0.0646    6.7888 C   0  0  0  0  0  0  0  0  0  0  0  0
   -2.0145   -0.5105    8.0021 C   0  0  0  0  0  0  0  0  0  0  0  0
   -2.5791    0.3028    9.0100 C   0  0  0  0  0  0  0  0  0  0  0  0
   -2.9728   -0.6273   10.4320 S   0  0  0  0  0  0  0  0  0  0  0  0
   -2.4545   -2.1011    9.6469 C   0  0  0  0  0  0  0  0  0  0  0  0
   -2.6053   -3.4013   10.3582 C   0  0  0  0  0  0  0  0  0  0  0  0
   -4.0804   -3.7639   10.5382 C   0  0  0  0  0  0  0  0  0  0  0  0
   -1.9854   -1.8805    8.3991 C   0  0  0  0  0  0  0  0  0  0  0  0
   -0.9425   -0.7237    5.7655 C   0  0  0  0  0  0  0  0  0  0  0  0
   -1.2877   -0.4585    4.0762 S   0  0  0  0  0  0  0  0  0  0  0  0
   -0.1487   -1.6738    3.6279 C   0  0  0  0  0  0  0  0  0  0  0  0
    0.2144   -2.1027    2.3277 C   0  0  0  0  0  0  0  0  0  0  0  0
    1.0530   -3.1950    2.2033 C   0  0  0  0  0  0  0  0  0  0  0  0
    1.4986   -3.9184    3.2524 O   0  0  0  0  0  0  0  0  0  0  0  0
    1.5423   -3.2939    4.5479 C   0  0  0  0  0  0  0  0  0  0  0  0
    2.8877   -2.5376    4.6794 C   0  0  0  0  0  0  0  0  0  0  0  0
    4.1235   -3.4088    4.4984 C   0  0  0  0  0  0  0  0  0  0  0  0
    1.3647   -4.4129    5.6008 C   0  0  0  0  0  0  0  0  0  0  0  0
    1.8036   -5.7990    5.1413 C   0  0  0  0  0  0  0  0  0  0  0  0
    0.4515   -2.2593    4.7215 C   0  0  0  0  0  0  0  0  0  0  0  0
   -0.0034   -1.7112    5.9309 C   0  0  0  0  0  0  0  0  0  0  0  0
    1.3493   -3.5035    0.8623 C   0  0  0  0  0  0  0  0  0  0  0  0
    0.7443   -2.6518   -0.0242 C   0  0  0  0  0  0  0  0  0  0  0  0
   -0.2160   -1.4474    0.7915 S   0  0  0  0  0  0  0  0  0  0  0  0
    0.8735   -2.5988   -1.4670 C   0  0  0  0  0  0  0  0  0  0  0  0
    2.1299   -2.6651   -2.0929 C   0  0  0  0  0  0  0  0  0  0  0  0
    3.4173   -2.7977   -1.4941 C   0  0  0  0  0  0  0  0  0  0  0  0
    4.4392   -2.7566   -2.3773 C   0  0  0  0  0  0  0  0  0  0  0  0
    5.8973   -2.8992   -2.1089 C   0  0  0  0  0  0  0  0  0  0  0  0
    6.4363   -4.2129   -2.6777 C   0  0  0  0  0  0  0  0  0  0  0  0
    3.8878   -2.5437   -4.0214 S   0  0  0  0  0  0  0  0  0  0  0  0
    2.2272   -2.5154   -3.4953 C   0  0  0  0  0  0  0  0  0  0  0  0
    1.1300   -2.2992   -4.3146 C   0  0  0  0  0  0  0  0  0  0  0  0
   -0.1256   -2.2728   -3.6968 C   0  0  0  0  0  0  0  0  0  0  0  0
   -0.2289   -2.4108   -2.2963 C   0  0  0  0  0  0  0  0  0  0  0  0
   -1.8942   -2.3425   -1.7865 S   0  0  0  0  0  0  0  0  0  0  0  0
   -2.4318   -2.1441   -3.4390 C   0  0  0  0  0  0  0  0  0  0  0  0
   -3.8842   -1.9731   -3.7201 C   0  0  0  0  0  0  0  0  0  0  0  0
   -4.3551   -0.5717   -3.3256 C   0  0  0  0  0  0  0  0  0  0  0  0
   -1.4031   -2.1227   -4.3132 C   0  0  0  0  0  0  0  0  0  0  0  0
    1.2761   -2.0369   -5.7511 C   0  0  0  0  0  0  0  0  0  0  0  0
    0.8810   -0.8051   -6.2875 C   0  0  0  0  0  0  0  0  0  0  0  0
    0.3310    0.3129   -5.5908 C   0  0  0  0  0  0  0  0  0  0  0  0
    0.0927    1.3814   -6.3790 C   0  0  0  0  0  0  0  0  0  0  0  0
   -0.4501    2.7130   -5.9918 C   0  0  0  0  0  0  0  0  0  0  0  0
    0.6418    3.7840   -6.0200 C   0  0  0  0  0  0  0  0  0  0  0  0
    0.5388    1.0818   -8.0444 S   0  0  0  0  0  0  0  0  0  0  0  0
    1.0666   -0.5368   -7.6598 C   0  0  0  0  0  0  0  0  0  0  0  0
    1.6547   -1.4432   -8.5429 C   0  0  0  0  0  0  0  0  0  0  0  0
    2.0293   -2.6877   -8.0047 C   0  0  0  0  0  0  0  0  0  0  0  0
    1.8312   -2.9526   -6.6300 C   0  0  0  0  0  0  0  0  0  0  0  0
    2.3326   -4.5677   -6.2138 S   0  0  0  0  0  0  0  0  0  0  0  0
    2.8011   -4.8809   -7.8667 C   0  0  0  0  0  0  0  0  0  0  0  0
    3.4006   -6.1965   -8.2228 C   0  0  0  0  0  0  0  0  0  0  0  0
    4.8164   -6.3230   -7.6568 C   0  0  0  0  0  0  0  0  0  0  0  0
    2.5850   -3.8178   -8.6725 C   0  0  0  0  0  0  0  0  0  0  0  0
    1.8906   -1.0771   -9.9222 C   0  0  0  0  0  0  0  0  0  0  0  0
    3.3713   -1.5094  -10.7413 S   0  0  0  0  0  0  0  0  0  0  0  0
    2.8973   -0.6085  -12.1354 C   0  0  0  0  0  0  0  0  0  0  0  0
    3.5930   -0.4412  -13.3612 C   0  0  0  0  0  0  0  0  0  0  0  0
    2.9532    0.2095  -14.3982 C   0  0  0  0  0  0  0  0  0  0  0  0
    1.6941    0.6853  -14.3328 O   0  0  0  0  0  0  0  0  0  0  0  0
    1.0828    0.8795  -13.0407 C   0  0  0  0  0  0  0  0  0  0  0  0
    1.3555    2.3342  -12.5857 C   0  0  0  0  0  0  0  0  0  0  0  0
    0.8378    3.3891  -13.5553 C   0  0  0  0  0  0  0  0  0  0  0  0
   -0.4147    0.6133  -13.2577 C   0  0  0  0  0  0  0  0  0  0  0  0
   -0.7004   -0.8560  -13.5462 C   0  0  0  0  0  0  0  0  0  0  0  0
    1.6586   -0.0271  -11.9810 C   0  0  0  0  0  0  0  0  0  0  0  0
    1.1005   -0.2902  -10.7210 C   0  0  0  0  0  0  0  0  0  0  0  0
    3.7433    0.2737  -15.5685 C   0  0  0  0  0  0  0  0  0  0  0  0
    4.9579   -0.3128  -15.3979 C   0  0  0  0  0  0  0  0  0  0  0  0
    5.1783   -0.9595  -13.8190 S   0  0  0  0  0  0  0  0  0  0  0  0
   -4.6687    4.6058   12.9886 H   0  0  0  0  0  0  0  0  0  0  0  0
   -2.2656    5.9730   12.8013 H   0  0  0  0  0  0  0  0  0  0  0  0
    1.1467    5.5571   11.3845 H   0  0  0  0  0  0  0  0  0  0  0  0
    0.1711    6.7148   12.3056 H   0  0  0  0  0  0  0  0  0  0  0  0
    0.3453    6.5649    9.2525 H   0  0  0  0  0  0  0  0  0  0  0  0
   -0.6205    7.7313   10.1616 H   0  0  0  0  0  0  0  0  0  0  0  0
    1.1431    7.7729   10.2667 H   0  0  0  0  0  0  0  0  0  0  0  0
   -7.9125   -0.0001    9.6994 H   0  0  0  0  0  0  0  0  0  0  0  0
   -8.7841    0.9725   10.8987 H   0  0  0  0  0  0  0  0  0  0  0  0
   -7.7366   -0.3503   12.7347 H   0  0  0  0  0  0  0  0  0  0  0  0
   -6.8696   -1.3224   11.5427 H   0  0  0  0  0  0  0  0  0  0  0  0
   -8.6339   -1.3993   11.6309 H   0  0  0  0  0  0  0  0  0  0  0  0
   -5.4123    0.6271    9.2482 H   0  0  0  0  0  0  0  0  0  0  0  0
   -2.9965    4.3472    7.8473 H   0  0  0  0  0  0  0  0  0  0  0  0
   -2.3453    5.9244    5.9099 H   0  0  0  0  0  0  0  0  0  0  0  0
   -1.0477    5.3179    4.8672 H   0  0  0  0  0  0  0  0  0  0  0  0
   -4.0345    4.8735    4.3927 H   0  0  0  0  0  0  0  0  0  0  0  0
   -3.0036    6.0002    3.5032 H   0  0  0  0  0  0  0  0  0  0  0  0
   -2.7332    4.2586    3.3698 H   0  0  0  0  0  0  0  0  0  0  0  0
   -2.0995   -4.1793    9.7823 H   0  0  0  0  0  0  0  0  0  0  0  0
   -2.1310   -3.3376   11.3411 H   0  0  0  0  0  0  0  0  0  0  0  0
   -4.5731   -3.8343    9.5709 H   0  0  0  0  0  0  0  0  0  0  0  0
   -4.1757   -4.7191   11.0484 H   0  0  0  0  0  0  0  0  0  0  0  0
   -4.5837   -3.0017   11.1288 H   0  0  0  0  0  0  0  0  0  0  0  0
   -1.6483   -2.6721    7.7549 H   0  0  0  0  0  0  0  0  0  0  0  0
    2.9105   -2.0455    5.6535 H   0  0  0  0  0  0  0  0  0  0  0  0
    2.8881   -1.7558    3.9136 H   0  0  0  0  0  0  0  0  0  0  0  0
    5.0093   -2.7813    4.4262 H   0  0  0  0  0  0  0  0  0  0  0  0
    4.2532   -4.0836    5.3400 H   0  0  0  0  0  0  0  0  0  0  0  0
    4.0377   -3.9933    3.5857 H   0  0  0  0  0  0  0  0  0  0  0  0
    1.9141   -4.1277    6.4993 H   0  0  0  0  0  0  0  0  0  0  0  0
    0.3044   -4.4661    5.8604 H   0  0  0  0  0  0  0  0  0  0  0  0
    1.6324   -6.5145    5.9430 H   0  0  0  0  0  0  0  0  0  0  0  0
    2.8550   -5.8189    4.8764 H   0  0  0  0  0  0  0  0  0  0  0  0
    1.2287   -6.1064    4.2727 H   0  0  0  0  0  0  0  0  0  0  0  0
    0.3812   -1.9904    6.8951 H   0  0  0  0  0  0  0  0  0  0  0  0
    1.9544   -4.3413    0.5688 H   0  0  0  0  0  0  0  0  0  0  0  0
    3.5636   -2.8994   -0.4342 H   0  0  0  0  0  0  0  0  0  0  0  0
    6.0629   -2.8653   -1.0300 H   0  0  0  0  0  0  0  0  0  0  0  0
    6.4358   -2.0649   -2.5659 H   0  0  0  0  0  0  0  0  0  0  0  0
    7.5002   -4.3047   -2.4739 H   0  0  0  0  0  0  0  0  0  0  0  0
    6.2829   -4.2460   -3.7539 H   0  0  0  0  0  0  0  0  0  0  0  0
    5.9205   -5.0590   -2.2290 H   0  0  0  0  0  0  0  0  0  0  0  0
   -4.4561   -2.7152   -3.1582 H   0  0  0  0  0  0  0  0  0  0  0  0
   -4.0596   -2.1354   -4.7857 H   0  0  0  0  0  0  0  0  0  0  0  0
   -5.4168   -0.4587   -3.5300 H   0  0  0  0  0  0  0  0  0  0  0  0
   -4.1839   -0.4030   -2.2649 H   0  0  0  0  0  0  0  0  0  0  0  0
   -3.8089    0.1817   -3.8891 H   0  0  0  0  0  0  0  0  0  0  0  0
   -1.5285   -2.0146   -5.3760 H   0  0  0  0  0  0  0  0  0  0  0  0
    0.1297    0.3013   -4.5345 H   0  0  0  0  0  0  0  0  0  0  0  0
   -0.8721    2.6416   -4.9871 H   0  0  0  0  0  0  0  0  0  0  0  0
   -1.2485    2.9974   -6.6821 H   0  0  0  0  0  0  0  0  0  0  0  0
    1.0627    3.8657   -7.0196 H   0  0  0  0  0  0  0  0  0  0  0  0
    0.2310    4.7491   -5.7344 H   0  0  0  0  0  0  0  0  0  0  0  0
    1.4405    3.5262   -5.3283 H   0  0  0  0  0  0  0  0  0  0  0  0
    2.7808   -7.0026   -7.8221 H   0  0  0  0  0  0  0  0  0  0  0  0
    3.4278   -6.2894   -9.3104 H   0  0  0  0  0  0  0  0  0  0  0  0
    5.2444   -7.2864   -7.9223 H   0  0  0  0  0  0  0  0  0  0  0  0
    5.4527   -5.5360   -8.0549 H   0  0  0  0  0  0  0  0  0  0  0  0
    4.7960   -6.2366   -6.5727 H   0  0  0  0  0  0  0  0  0  0  0  0
    2.8001   -3.8384   -9.7252 H   0  0  0  0  0  0  0  0  0  0  0  0
    2.4392    2.4422  -12.4833 H   0  0  0  0  0  0  0  0  0  0  0  0
    0.9129    2.4734  -11.5979 H   0  0  0  0  0  0  0  0  0  0  0  0
    1.2171    4.3684  -13.2730 H   0  0  0  0  0  0  0  0  0  0  0  0
   -0.2480    3.4288  -13.5482 H   0  0  0  0  0  0  0  0  0  0  0  0
    1.1736    3.1644  -14.5647 H   0  0  0  0  0  0  0  0  0  0  0  0
   -0.7375    1.2109  -14.1100 H   0  0  0  0  0  0  0  0  0  0  0  0
   -0.9642    0.9403  -12.3747 H   0  0  0  0  0  0  0  0  0  0  0  0
   -0.1237   -1.1845  -14.4076 H   0  0  0  0  0  0  0  0  0  0  0  0
   -1.7566   -0.9965  -13.7630 H   0  0  0  0  0  0  0  0  0  0  0  0
   -0.4361   -1.4792  -12.6948 H   0  0  0  0  0  0  0  0  0  0  0  0
    0.1320    0.0601  -10.4154 H   0  0  0  0  0  0  0  0  0  0  0  0
    3.4115    0.7339  -16.4803 H   0  0  0  0  0  0  0  0  0  0  0  0
    5.7528   -0.4010  -16.1107 H   0  0  0  0  0  0  0  0  0  0  0  0
  1  2  2  0  0  0  0
  2  3  1  0  0  0  0
  3  4  2  0  0  0  0
  4  5  1  0  0  0  0
  5  6  1  0  0  0  0
  4  7  1  0  0  0  0
  7  8  1  0  0  0  0
  8  9  2  0  0  0  0
  9 10  1  0  0  0  0
 10 11  2  0  0  0  0
 11 12  1  0  0  0  0
 12 13  1  0  0  0  0
 13 14  1  0  0  0  0
 14 15  1  0  0  0  0
 13 16  2  0  0  0  0
  9 17  1  0  0  0  0
 17 18  2  0  0  0  0
 18 19  1  0  0  0  0
 19 20  2  0  0  0  0
 20 21  1  0  0  0  0
 21 22  1  0  0  0  0
 20 23  1  0  0  0  0
 23 24  1  0  0  0  0
 24 25  2  0  0  0  0
 25 26  1  0  0  0  0
 26 27  2  0  0  0  0
 27 28  1  0  0  0  0
 28 29  1  0  0  0  0
 29 30  1  0  0  0  0
 30 31  1  0  0  0  0
 29 32  2  0  0  0  0
 25 33  1  0  0  0  0
 33 34  1  0  0  0  0
 34 35  1  0  0  0  0
 35 36  1  0  0  0  0
 36 37  2  0  0  0  0
 37 38  1  0  0  0  0
 38 39  1  0  0  0  0
 39 40  1  0  0  0  0
 40 41  1  0  0  0  0
 39 42  1  0  0  0  0
 42 43  1  0  0  0  0
 39 44  1  0  0  0  0
 44 45  1  0  0  0  0
 37 46  1  0  0  0  0
 46 47  2  0  0  0  0
 47 48  1  0  0  0  0
 47 49  1  0  0  0  0
 49 50  2  0  0  0  0
 50 51  1  0  0  0  0
 51 52  2  0  0  0  0
 52 53  1  0  0  0  0
 53 54  1  0  0  0  0
 52 55  1  0  0  0  0
 55 56  1  0  0  0  0
 56 57  2  0  0  0  0
 57 58  1  0  0  0  0
 58 59  2  0  0  0  0
 59 60  1  0  0  0  0
 60 61  1  0  0  0  0
 61 62  1  0  0  0  0
 62 63  1  0  0  0  0
 61 64  2  0  0  0  0
 57 65  1  0  0  0  0
 65 66  2  0  0  0  0
 66 67  1  0  0  0  0
 67 68  2  0  0  0  0
 68 69  1  0  0  0  0
 69 70  1  0  0  0  0
 68 71  1  0  0  0  0
 71 72  1  0  0  0  0
 72 73  2  0  0  0  0
 73 74  1  0  0  0  0
 74 75  2  0  0  0  0
 75 76  1  0  0  0  0
 76 77  1  0  0  0  0
 77 78  1  0  0  0  0
 78 79  1  0  0  0  0
 77 80  2  0  0  0  0
 73 81  1  0  0  0  0
 81 82  1  0  0  0  0
 82 83  1  0  0  0  0
 83 84  1  0  0  0  0
 84 85  2  0  0  0  0
 85 86  1  0  0  0  0
 86 87  1  0  0  0  0
 87 88  1  0  0  0  0
 88 89  1  0  0  0  0
 87 90  1  0  0  0  0
 90 91  1  0  0  0  0
 87 92  1  0  0  0  0
 92 93  1  0  0  0  0
 85 94  1  0  0  0  0
 94 95  2  0  0  0  0
 95 96  1  0  0  0  0
 11  1  1  0  0  0  0
 27 17  1  0  0  0  0
 45 33  2  0  0  0  0
 59 49  1  0  0  0  0
 75 65  1  0  0  0  0
 93 81  2  0  0  0  0
  8  2  1  0  0  0  0
 16 10  1  0  0  0  0
 24 18  1  0  0  0  0
 32 26  1  0  0  0  0
 44 35  2  0  0  0  0
 56 50  1  0  0  0  0
 64 58  1  0  0  0  0
 72 66  1  0  0  0  0
 80 74  1  0  0  0  0
 92 83  2  0  0  0  0
 48 36  1  0  0  0  0
 96 84  1  0  0  0  0
  1 97  1  0  0  0  0
  3 98  1  0  0  0  0
  5 99  1  0  0  0  0
  5100  1  0  0  0  0
  6101  1  0  0  0  0
  6102  1  0  0  0  0
  6103  1  0  0  0  0
 14104  1  0  0  0  0
 14105  1  0  0  0  0
 15106  1  0  0  0  0
 15107  1  0  0  0  0
 15108  1  0  0  0  0
 16109  1  0  0  0  0
 19110  1  0  0  0  0
 21111  1  0  0  0  0
 21112  1  0  0  0  0
 22113  1  0  0  0  0
 22114  1  0  0  0  0
 22115  1  0  0  0  0
 30116  1  0  0  0  0
 30117  1  0  0  0  0
 31118  1  0  0  0  0
 31119  1  0  0  0  0
 31120  1  0  0  0  0
 32121  1  0  0  0  0
 40122  1  0  0  0  0
 40123  1  0  0  0  0
 41124  1  0  0  0  0
 41125  1  0  0  0  0
 41126  1  0  0  0  0
 42127  1  0  0  0  0
 42128  1  0  0  0  0
 43129  1  0  0  0  0
 43130  1  0  0  0  0
 43131  1  0  0  0  0
 45132  1  0  0  0  0
 46133  1  0  0  0  0
 51134  1  0  0  0  0
 53135  1  0  0  0  0
 53136  1  0  0  0  0
 54137  1  0  0  0  0
 54138  1  0  0  0  0
 54139  1  0  0  0  0
 62140  1  0  0  0  0
 62141  1  0  0  0  0
 63142  1  0  0  0  0
 63143  1  0  0  0  0
 63144  1  0  0  0  0
 64145  1  0  0  0  0
 67146  1  0  0  0  0
 69147  1  0  0  0  0
 69148  1  0  0  0  0
 70149  1  0  0  0  0
 70150  1  0  0  0  0
 70151  1  0  0  0  0
 78152  1  0  0  0  0
 78153  1  0  0  0  0
 79154  1  0  0  0  0
 79155  1  0  0  0  0
 79156  1  0  0  0  0
 80157  1  0  0  0  0
 88158  1  0  0  0  0
 88159  1  0  0  0  0
 89160  1  0  0  0  0
 89161  1  0  0  0  0
 89162  1  0  0  0  0
 90163  1  0  0  0  0
 90164  1  0  0  0  0
 91165  1  0  0  0  0
 91166  1  0  0  0  0
 91167  1  0  0  0  0
 93168  1  0  0  0  0
 94169  1  0  0  0  0
 95170  1  0  0  0  0
M  END
