
  xtb     03012204303D
 energy: -304.535418818997 gnorm: 0.000306351299 xtb: 6.4.1 (unknown)
170183  0     0  0            999 V2000
   -2.7826   -0.4607   16.5198 C   0  0  0  0  0  0  0  0  0  0  0  0
   -2.4803    0.2164   15.3687 C   0  0  0  0  0  0  0  0  0  0  0  0
   -2.2183    1.6513   15.2018 C   0  0  0  0  0  0  0  0  0  0  0  0
   -2.0782    2.1711   14.1189 O   0  0  0  0  0  0  0  0  0  0  0  0
   -2.1704    2.3107   16.3610 O   0  0  0  0  0  0  0  0  0  0  0  0
   -1.9334    3.7177   16.2696 C   0  0  0  0  0  0  0  0  0  0  0  0
   -1.8648    4.2846   17.6744 C   0  0  0  0  0  0  0  0  0  0  0  0
   -2.5013   -0.6579   14.2540 C   0  0  0  0  0  0  0  0  0  0  0  0
   -2.8331   -1.9628   14.5771 C   0  0  0  0  0  0  0  0  0  0  0  0
   -3.1043   -2.1366   16.2724 S   0  0  0  0  0  0  0  0  0  0  0  0
   -2.9005   -2.8248   13.4584 C   0  0  0  0  0  0  0  0  0  0  0  0
   -3.3425   -4.2212   13.5556 C   0  0  0  0  0  0  0  0  0  0  0  0
   -3.6269   -4.9407   12.6298 O   0  0  0  0  0  0  0  0  0  0  0  0
   -3.4309   -4.5851   14.8446 O   0  0  0  0  0  0  0  0  0  0  0  0
   -3.8340   -5.9275   15.1080 C   0  0  0  0  0  0  0  0  0  0  0  0
   -2.6594   -6.8886   14.9943 C   0  0  0  0  0  0  0  0  0  0  0  0
   -2.6089   -2.1413   12.2885 C   0  0  0  0  0  0  0  0  0  0  0  0
   -2.2283   -0.4593   12.5722 S   0  0  0  0  0  0  0  0  0  0  0  0
   -2.4923   -2.6673   10.9610 C   0  0  0  0  0  0  0  0  0  0  0  0
   -2.8786   -2.0648    9.7720 C   0  0  0  0  0  0  0  0  0  0  0  0
   -3.6770   -0.8550    9.5279 C   0  0  0  0  0  0  0  0  0  0  0  0
   -3.8304   -0.4050    8.4153 O   0  0  0  0  0  0  0  0  0  0  0  0
   -4.2222   -0.3367   10.6281 O   0  0  0  0  0  0  0  0  0  0  0  0
   -4.9671    0.8735   10.4803 C   0  0  0  0  0  0  0  0  0  0  0  0
   -5.0312    1.5680   11.8289 C   0  0  0  0  0  0  0  0  0  0  0  0
   -2.4513   -2.8251    8.6657 C   0  0  0  0  0  0  0  0  0  0  0  0
   -1.7610   -3.9754    9.0041 C   0  0  0  0  0  0  0  0  0  0  0  0
   -1.6256   -4.1671   10.7030 S   0  0  0  0  0  0  0  0  0  0  0  0
   -1.3324   -4.7506    7.9011 C   0  0  0  0  0  0  0  0  0  0  0  0
   -0.7217   -6.0423    8.2195 C   0  0  0  0  0  0  0  0  0  0  0  0
   -0.3881   -6.3184    9.3512 O   0  0  0  0  0  0  0  0  0  0  0  0
   -0.6125   -6.8892    7.1871 O   0  0  0  0  0  0  0  0  0  0  0  0
   -0.1264   -8.1976    7.4928 C   0  0  0  0  0  0  0  0  0  0  0  0
   -1.2021   -9.0653    8.1294 C   0  0  0  0  0  0  0  0  0  0  0  0
   -1.6830   -4.1342    6.7034 C   0  0  0  0  0  0  0  0  0  0  0  0
   -2.5809   -2.6412    6.9638 S   0  0  0  0  0  0  0  0  0  0  0  0
   -1.3399   -4.4494    5.3604 C   0  0  0  0  0  0  0  0  0  0  0  0
   -2.2537   -3.7262    4.0583 S   0  0  0  0  0  0  0  0  0  0  0  0
   -1.1753   -4.4022    2.8952 C   0  0  0  0  0  0  0  0  0  0  0  0
   -1.1024   -4.1160    1.5145 C   0  0  0  0  0  0  0  0  0  0  0  0
    0.0868   -4.4018    0.8504 C   0  0  0  0  0  0  0  0  0  0  0  0
    1.1123   -5.0487    1.4318 O   0  0  0  0  0  0  0  0  0  0  0  0
    0.8156   -5.8719    2.5835 C   0  0  0  0  0  0  0  0  0  0  0  0
    2.1883   -6.0790    3.2463 C   0  0  0  0  0  0  0  0  0  0  0  0
    2.3174   -7.2901    4.1629 C   0  0  0  0  0  0  0  0  0  0  0  0
    0.1596   -7.1797    2.0844 C   0  0  0  0  0  0  0  0  0  0  0  0
    0.9706   -7.8905    1.0069 C   0  0  0  0  0  0  0  0  0  0  0  0
   -0.1733   -5.1648    3.4837 C   0  0  0  0  0  0  0  0  0  0  0  0
   -0.2703   -5.1752    4.8747 C   0  0  0  0  0  0  0  0  0  0  0  0
    0.1308   -3.8687   -0.4433 C   0  0  0  0  0  0  0  0  0  0  0  0
   -1.0249   -3.1981   -0.7836 C   0  0  0  0  0  0  0  0  0  0  0  0
   -2.1951   -3.2287    0.5118 S   0  0  0  0  0  0  0  0  0  0  0  0
   -1.3058   -2.4968   -1.9827 C   0  0  0  0  0  0  0  0  0  0  0  0
   -0.0516   -2.2051   -3.1613 S   0  0  0  0  0  0  0  0  0  0  0  0
   -1.1474   -1.2777   -4.1245 C   0  0  0  0  0  0  0  0  0  0  0  0
   -0.8832   -0.5760   -5.3208 C   0  0  0  0  0  0  0  0  0  0  0  0
   -1.9455    0.0278   -5.9858 C   0  0  0  0  0  0  0  0  0  0  0  0
   -3.2276   -0.0769   -5.5913 O   0  0  0  0  0  0  0  0  0  0  0  0
   -3.5150   -0.4169   -4.2191 C   0  0  0  0  0  0  0  0  0  0  0  0
   -4.8349   -1.2026   -4.2663 C   0  0  0  0  0  0  0  0  0  0  0  0
   -4.6652   -2.5725   -4.9132 C   0  0  0  0  0  0  0  0  0  0  0  0
   -3.6449    0.8980   -3.4126 C   0  0  0  0  0  0  0  0  0  0  0  0
   -4.7107    1.8431   -3.9531 C   0  0  0  0  0  0  0  0  0  0  0  0
   -2.4179   -1.2297   -3.5765 C   0  0  0  0  0  0  0  0  0  0  0  0
   -2.4970   -1.9111   -2.3604 C   0  0  0  0  0  0  0  0  0  0  0  0
   -1.5467    0.7186   -7.1352 C   0  0  0  0  0  0  0  0  0  0  0  0
   -0.1854    0.6624   -7.3521 C   0  0  0  0  0  0  0  0  0  0  0  0
    0.6176   -0.2722   -6.1130 S   0  0  0  0  0  0  0  0  0  0  0  0
    0.6078    1.3264   -8.3287 C   0  0  0  0  0  0  0  0  0  0  0  0
    0.2693    1.8685   -9.5647 C   0  0  0  0  0  0  0  0  0  0  0  0
   -0.9425    1.8266  -10.3874 C   0  0  0  0  0  0  0  0  0  0  0  0
   -1.0503    2.5289  -11.3716 O   0  0  0  0  0  0  0  0  0  0  0  0
   -1.8588    0.9380  -10.0021 O   0  0  0  0  0  0  0  0  0  0  0  0
   -3.0391    0.8404  -10.8019 C   0  0  0  0  0  0  0  0  0  0  0  0
   -4.0715    1.8854  -10.4030 C   0  0  0  0  0  0  0  0  0  0  0  0
    1.3707    2.5551  -10.1242 C   0  0  0  0  0  0  0  0  0  0  0  0
    2.5226    2.5301   -9.3603 C   0  0  0  0  0  0  0  0  0  0  0  0
    2.2878    1.6473   -7.9048 S   0  0  0  0  0  0  0  0  0  0  0  0
    3.5945    3.2581   -9.9199 C   0  0  0  0  0  0  0  0  0  0  0  0
    4.8480    3.3831   -9.1636 C   0  0  0  0  0  0  0  0  0  0  0  0
    5.0688    2.7346   -8.1671 O   0  0  0  0  0  0  0  0  0  0  0  0
    5.6876    4.2885   -9.6678 O   0  0  0  0  0  0  0  0  0  0  0  0
    6.9460    4.4386   -9.0101 C   0  0  0  0  0  0  0  0  0  0  0  0
    7.8417    5.2840   -9.8967 C   0  0  0  0  0  0  0  0  0  0  0  0
    3.2249    3.8321  -11.1254 C   0  0  0  0  0  0  0  0  0  0  0  0
    1.5769    3.4471  -11.5736 S   0  0  0  0  0  0  0  0  0  0  0  0
    4.0248    4.6209  -12.0187 C   0  0  0  0  0  0  0  0  0  0  0  0
    3.6768    5.7934  -12.6638 C   0  0  0  0  0  0  0  0  0  0  0  0
    2.4660    6.6187  -12.5195 C   0  0  0  0  0  0  0  0  0  0  0  0
    2.2287    7.5402  -13.2648 O   0  0  0  0  0  0  0  0  0  0  0  0
    1.7128    6.2720  -11.4748 O   0  0  0  0  0  0  0  0  0  0  0  0
    0.4711    6.9575  -11.3031 C   0  0  0  0  0  0  0  0  0  0  0  0
   -0.6367    6.2942  -12.1092 C   0  0  0  0  0  0  0  0  0  0  0  0
    4.7137    6.2294  -13.5199 C   0  0  0  0  0  0  0  0  0  0  0  0
    5.8302    5.4098  -13.5201 C   0  0  0  0  0  0  0  0  0  0  0  0
    5.6133    4.0541  -12.4848 S   0  0  0  0  0  0  0  0  0  0  0  0
    6.8701    5.8867  -14.3562 C   0  0  0  0  0  0  0  0  0  0  0  0
    8.1773    5.2375  -14.5192 C   0  0  0  0  0  0  0  0  0  0  0  0
    9.0470    5.6047  -15.2693 O   0  0  0  0  0  0  0  0  0  0  0  0
    8.2733    4.1689  -13.7118 O   0  0  0  0  0  0  0  0  0  0  0  0
    9.4929    3.4297  -13.7605 C   0  0  0  0  0  0  0  0  0  0  0  0
   10.5630    4.0536  -12.8759 C   0  0  0  0  0  0  0  0  0  0  0  0
    6.4940    7.0529  -14.9724 C   0  0  0  0  0  0  0  0  0  0  0  0
    4.9136    7.5908  -14.5562 S   0  0  0  0  0  0  0  0  0  0  0  0
   -2.8394   -0.0491   17.5076 H   0  0  0  0  0  0  0  0  0  0  0  0
   -0.9975    3.8826   15.7242 H   0  0  0  0  0  0  0  0  0  0  0  0
   -2.7459    4.1744   15.6930 H   0  0  0  0  0  0  0  0  0  0  0  0
   -2.7970    4.0966   18.2000 H   0  0  0  0  0  0  0  0  0  0  0  0
   -1.6933    5.3558   17.6263 H   0  0  0  0  0  0  0  0  0  0  0  0
   -1.0537    3.8188   18.2273 H   0  0  0  0  0  0  0  0  0  0  0  0
   -4.2337   -5.9072   16.1239 H   0  0  0  0  0  0  0  0  0  0  0  0
   -4.6213   -6.2064   14.3998 H   0  0  0  0  0  0  0  0  0  0  0  0
   -2.9832   -7.8924   15.2538 H   0  0  0  0  0  0  0  0  0  0  0  0
   -2.2810   -6.8921   13.9748 H   0  0  0  0  0  0  0  0  0  0  0  0
   -1.8605   -6.5862   15.6672 H   0  0  0  0  0  0  0  0  0  0  0  0
   -4.4764    1.4996    9.7276 H   0  0  0  0  0  0  0  0  0  0  0  0
   -5.9702    0.6206   10.1171 H   0  0  0  0  0  0  0  0  0  0  0  0
   -5.6290    2.4707   11.7423 H   0  0  0  0  0  0  0  0  0  0  0  0
   -4.0338    1.8334   12.1707 H   0  0  0  0  0  0  0  0  0  0  0  0
   -5.4869    0.9096   12.5642 H   0  0  0  0  0  0  0  0  0  0  0  0
    0.7339   -8.1093    8.1648 H   0  0  0  0  0  0  0  0  0  0  0  0
    0.1908   -8.6094    6.5319 H   0  0  0  0  0  0  0  0  0  0  0  0
   -1.4876   -8.6529    9.0937 H   0  0  0  0  0  0  0  0  0  0  0  0
   -2.0790   -9.1070    7.4876 H   0  0  0  0  0  0  0  0  0  0  0  0
   -0.8178  -10.0708    8.2752 H   0  0  0  0  0  0  0  0  0  0  0  0
    2.9171   -6.1599    2.4380 H   0  0  0  0  0  0  0  0  0  0  0  0
    2.4234   -5.1707    3.8050 H   0  0  0  0  0  0  0  0  0  0  0  0
    2.2680   -8.2200    3.6041 H   0  0  0  0  0  0  0  0  0  0  0  0
    1.5385   -7.3058    4.9189 H   0  0  0  0  0  0  0  0  0  0  0  0
    3.2805   -7.2527    4.6672 H   0  0  0  0  0  0  0  0  0  0  0  0
   -0.8197   -6.9201    1.6725 H   0  0  0  0  0  0  0  0  0  0  0  0
   -0.0071   -7.8333    2.9404 H   0  0  0  0  0  0  0  0  0  0  0  0
    0.4120   -8.7437    0.6289 H   0  0  0  0  0  0  0  0  0  0  0  0
    1.1694   -7.2141    0.1794 H   0  0  0  0  0  0  0  0  0  0  0  0
    1.9217   -8.2458    1.3923 H   0  0  0  0  0  0  0  0  0  0  0  0
    0.4248   -5.6568    5.5318 H   0  0  0  0  0  0  0  0  0  0  0  0
    0.9770   -3.9575   -1.0992 H   0  0  0  0  0  0  0  0  0  0  0  0
   -5.5456   -0.6197   -4.8515 H   0  0  0  0  0  0  0  0  0  0  0  0
   -5.2214   -1.3085   -3.2527 H   0  0  0  0  0  0  0  0  0  0  0  0
   -4.2429   -2.4645   -5.9094 H   0  0  0  0  0  0  0  0  0  0  0  0
   -5.6296   -3.0670   -4.9978 H   0  0  0  0  0  0  0  0  0  0  0  0
   -4.0045   -3.2038   -4.3233 H   0  0  0  0  0  0  0  0  0  0  0  0
   -2.6720    1.3966   -3.4470 H   0  0  0  0  0  0  0  0  0  0  0  0
   -3.8540    0.6463   -2.3719 H   0  0  0  0  0  0  0  0  0  0  0  0
   -4.6302    2.8093   -3.4611 H   0  0  0  0  0  0  0  0  0  0  0  0
   -4.5759    1.9857   -5.0224 H   0  0  0  0  0  0  0  0  0  0  0  0
   -5.7084    1.4518   -3.7748 H   0  0  0  0  0  0  0  0  0  0  0  0
   -3.3825   -1.9822   -1.7548 H   0  0  0  0  0  0  0  0  0  0  0  0
   -2.2279    1.2553   -7.7641 H   0  0  0  0  0  0  0  0  0  0  0  0
   -3.4127   -0.1704  -10.6273 H   0  0  0  0  0  0  0  0  0  0  0  0
   -2.7645    0.9640  -11.8545 H   0  0  0  0  0  0  0  0  0  0  0  0
   -3.6709    2.8835  -10.5639 H   0  0  0  0  0  0  0  0  0  0  0  0
   -4.9634    1.7639  -11.0110 H   0  0  0  0  0  0  0  0  0  0  0  0
   -4.3408    1.7735   -9.3551 H   0  0  0  0  0  0  0  0  0  0  0  0
    7.3732    3.4449   -8.8355 H   0  0  0  0  0  0  0  0  0  0  0  0
    6.7816    4.9147   -8.0367 H   0  0  0  0  0  0  0  0  0  0  0  0
    7.3932    6.2608  -10.0578 H   0  0  0  0  0  0  0  0  0  0  0  0
    7.9735    4.8016  -10.8618 H   0  0  0  0  0  0  0  0  0  0  0  0
    8.8099    5.4123   -9.4212 H   0  0  0  0  0  0  0  0  0  0  0  0
    0.2657    6.9050  -10.2317 H   0  0  0  0  0  0  0  0  0  0  0  0
    0.5973    8.0012  -11.6098 H   0  0  0  0  0  0  0  0  0  0  0  0
   -0.4132    6.3628  -13.1710 H   0  0  0  0  0  0  0  0  0  0  0  0
   -1.5777    6.8013  -11.9152 H   0  0  0  0  0  0  0  0  0  0  0  0
   -0.7320    5.2450  -11.8392 H   0  0  0  0  0  0  0  0  0  0  0  0
    9.2294    2.4276  -13.4159 H   0  0  0  0  0  0  0  0  0  0  0  0
    9.8397    3.3905  -14.7984 H   0  0  0  0  0  0  0  0  0  0  0  0
   10.7972    5.0550  -13.2287 H   0  0  0  0  0  0  0  0  0  0  0  0
   11.4637    3.4479  -12.9154 H   0  0  0  0  0  0  0  0  0  0  0  0
   10.2191    4.1118  -11.8460 H   0  0  0  0  0  0  0  0  0  0  0  0
    7.0933    7.6204  -15.6566 H   0  0  0  0  0  0  0  0  0  0  0  0
  1  2  2  0  0  0  0
  2  3  1  0  0  0  0
  3  4  2  0  0  0  0
  3  5  1  0  0  0  0
  5  6  1  0  0  0  0
  6  7  1  0  0  0  0
  2  8  1  0  0  0  0
  8  9  2  0  0  0  0
  9 10  1  0  0  0  0
  9 11  1  0  0  0  0
 11 12  1  0  0  0  0
 12 13  2  0  0  0  0
 12 14  1  0  0  0  0
 14 15  1  0  0  0  0
 15 16  1  0  0  0  0
 11 17  2  0  0  0  0
 17 18  1  0  0  0  0
 17 19  1  0  0  0  0
 19 20  2  0  0  0  0
 20 21  1  0  0  0  0
 21 22  2  0  0  0  0
 21 23  1  0  0  0  0
 23 24  1  0  0  0  0
 24 25  1  0  0  0  0
 20 26  1  0  0  0  0
 26 27  2  0  0  0  0
 27 28  1  0  0  0  0
 27 29  1  0  0  0  0
 29 30  1  0  0  0  0
 30 31  2  0  0  0  0
 30 32  1  0  0  0  0
 32 33  1  0  0  0  0
 33 34  1  0  0  0  0
 29 35  2  0  0  0  0
 35 36  1  0  0  0  0
 35 37  1  0  0  0  0
 37 38  1  0  0  0  0
 38 39  1  0  0  0  0
 39 40  1  0  0  0  0
 40 41  2  0  0  0  0
 41 42  1  0  0  0  0
 42 43  1  0  0  0  0
 43 44  1  0  0  0  0
 44 45  1  0  0  0  0
 43 46  1  0  0  0  0
 46 47  1  0  0  0  0
 43 48  1  0  0  0  0
 48 49  1  0  0  0  0
 41 50  1  0  0  0  0
 50 51  2  0  0  0  0
 51 52  1  0  0  0  0
 51 53  1  0  0  0  0
 53 54  1  0  0  0  0
 54 55  1  0  0  0  0
 55 56  1  0  0  0  0
 56 57  2  0  0  0  0
 57 58  1  0  0  0  0
 58 59  1  0  0  0  0
 59 60  1  0  0  0  0
 60 61  1  0  0  0  0
 59 62  1  0  0  0  0
 62 63  1  0  0  0  0
 59 64  1  0  0  0  0
 64 65  1  0  0  0  0
 57 66  1  0  0  0  0
 66 67  2  0  0  0  0
 67 68  1  0  0  0  0
 67 69  1  0  0  0  0
 69 70  2  0  0  0  0
 70 71  1  0  0  0  0
 71 72  2  0  0  0  0
 71 73  1  0  0  0  0
 73 74  1  0  0  0  0
 74 75  1  0  0  0  0
 70 76  1  0  0  0  0
 76 77  2  0  0  0  0
 77 78  1  0  0  0  0
 77 79  1  0  0  0  0
 79 80  1  0  0  0  0
 80 81  2  0  0  0  0
 80 82  1  0  0  0  0
 82 83  1  0  0  0  0
 83 84  1  0  0  0  0
 79 85  2  0  0  0  0
 85 86  1  0  0  0  0
 85 87  1  0  0  0  0
 87 88  2  0  0  0  0
 88 89  1  0  0  0  0
 89 90  2  0  0  0  0
 89 91  1  0  0  0  0
 91 92  1  0  0  0  0
 92 93  1  0  0  0  0
 88 94  1  0  0  0  0
 94 95  2  0  0  0  0
 95 96  1  0  0  0  0
 95 97  1  0  0  0  0
 97 98  1  0  0  0  0
 98 99  2  0  0  0  0
 98100  1  0  0  0  0
100101  1  0  0  0  0
101102  1  0  0  0  0
 97103  2  0  0  0  0
103104  1  0  0  0  0
 10  1  1  0  0  0  0
 28 19  1  0  0  0  0
 49 37  2  0  0  0  0
 65 53  2  0  0  0  0
 78 69  1  0  0  0  0
 96 87  1  0  0  0  0
 18  8  1  0  0  0  0
 36 26  1  0  0  0  0
 48 39  2  0  0  0  0
 64 55  2  0  0  0  0
 86 76  1  0  0  0  0
104 94  1  0  0  0  0
 52 40  1  0  0  0  0
 68 56  1  0  0  0  0
  1105  1  0  0  0  0
  6106  1  0  0  0  0
  6107  1  0  0  0  0
  7108  1  0  0  0  0
  7109  1  0  0  0  0
  7110  1  0  0  0  0
 15111  1  0  0  0  0
 15112  1  0  0  0  0
 16113  1  0  0  0  0
 16114  1  0  0  0  0
 16115  1  0  0  0  0
 24116  1  0  0  0  0
 24117  1  0  0  0  0
 25118  1  0  0  0  0
 25119  1  0  0  0  0
 25120  1  0  0  0  0
 33121  1  0  0  0  0
 33122  1  0  0  0  0
 34123  1  0  0  0  0
 34124  1  0  0  0  0
 34125  1  0  0  0  0
 44126  1  0  0  0  0
 44127  1  0  0  0  0
 45128  1  0  0  0  0
 45129  1  0  0  0  0
 45130  1  0  0  0  0
 46131  1  0  0  0  0
 46132  1  0  0  0  0
 47133  1  0  0  0  0
 47134  1  0  0  0  0
 47135  1  0  0  0  0
 49136  1  0  0  0  0
 50137  1  0  0  0  0
 60138  1  0  0  0  0
 60139  1  0  0  0  0
 61140  1  0  0  0  0
 61141  1  0  0  0  0
 61142  1  0  0  0  0
 62143  1  0  0  0  0
 62144  1  0  0  0  0
 63145  1  0  0  0  0
 63146  1  0  0  0  0
 63147  1  0  0  0  0
 65148  1  0  0  0  0
 66149  1  0  0  0  0
 74150  1  0  0  0  0
 74151  1  0  0  0  0
 75152  1  0  0  0  0
 75153  1  0  0  0  0
 75154  1  0  0  0  0
 83155  1  0  0  0  0
 83156  1  0  0  0  0
 84157  1  0  0  0  0
 84158  1  0  0  0  0
 84159  1  0  0  0  0
 92160  1  0  0  0  0
 92161  1  0  0  0  0
 93162  1  0  0  0  0
 93163  1  0  0  0  0
 93164  1  0  0  0  0
101165  1  0  0  0  0
101166  1  0  0  0  0
102167  1  0  0  0  0
102168  1  0  0  0  0
102169  1  0  0  0  0
103170  1  0  0  0  0
M  END
