235

C          1.71690      -12.98380        9.13740
C          2.41920      -11.96430        8.60350
C          1.69510      -11.26130        7.59640
C          2.12080      -10.17400        6.81610
C          3.40310       -9.53080        7.05200
S          4.55060       -9.27300        5.77310
C          5.67300       -8.49150        6.83300
C          7.00150       -8.02730        6.34710
C          8.03170       -9.15770        6.40450
C          5.17480       -8.44450        8.10100
Cl         6.00260       -7.74090        9.42960
C          3.88610       -9.02790        8.22860
Cl         3.00810       -9.01620        9.70370
C          1.24920       -9.72280        5.83370
C         -0.03750      -10.27910        5.63530
C         -0.46560      -11.36490        6.41700
C         -1.76360      -11.97700        6.19130
S         -2.89830      -12.21450        7.48660
C         -4.07660      -12.91300        6.43070
C         -5.41900      -13.32330        6.92700
C         -6.42770      -12.18110        6.78130
C         -3.60500      -12.95050        5.15210
C         -2.29270      -12.42720        5.01220
Cl        -1.44770      -12.44930        3.51730
Cl        -4.49590      -13.57230        3.82390
C          0.41330      -11.82380        7.39010
S          0.13770      -13.17170        8.45690
C         -0.76220       -9.58550        4.63590
C         -0.05930       -8.57140        4.05820
S          1.54130       -8.39230        4.74750
C         -0.50720       -7.71240        3.01280
C          0.18240       -6.73040        2.36760
C         -0.57970       -6.06510        1.37500
C         -0.19770       -4.98540        0.56020
C          1.04850       -4.26820        0.76170
S          2.07350       -3.81500       -0.56820
C          3.14760       -2.92500        0.45340
C          4.33410       -2.21930       -0.10230
C          5.64100       -2.93940        0.23100
C          2.73210       -2.99610        1.75000
Cl         3.53030       -2.21680        3.05200
C          1.54410       -3.75270        1.93000
Cl         0.77350       -3.88850        3.45750
C         -1.11280       -4.57240       -0.40140
C         -2.41370       -5.11870       -0.52150
C         -2.82630       -6.13770        0.35390
C         -4.18750       -6.64520        0.34200
S         -4.51410       -8.35170        0.29150
C         -6.22680       -8.10700        0.35250
C         -7.15990       -9.26630        0.39180
C         -7.04860      -10.01380        1.72220
C         -6.51160       -6.77570        0.41160
C         -5.36010       -5.94300        0.40240
Cl        -5.46600       -4.23410        0.55070
Cl        -8.10140       -6.13300        0.48900
C         -1.88170       -6.61110        1.25520
S         -2.14460       -7.88350        2.41110
C         -3.16410       -4.48600       -1.54510
C         -2.48760       -3.47780       -2.16030
S         -0.86140       -3.28460       -1.54000
C         -2.96920       -2.51110       -3.09730
C         -4.24190       -2.03750       -3.21790
C         -4.33500       -0.88000       -4.03280
C         -5.42470        0.00270       -4.16960
C         -6.71370       -0.26420       -3.55660
S         -6.86800       -0.76810       -1.89780
C         -8.59380       -0.83170       -1.98930
C         -9.41290       -1.19420       -0.80050
C         -9.61660        0.01550        0.11440
C         -9.01380       -0.46950       -3.23440
Cl       -10.66130       -0.41380       -3.71010
C         -7.95410       -0.14780       -4.12420
Cl        -8.23050        0.25440       -5.76630
C         -5.18220        1.19570       -4.84270
C         -3.95180        1.47930       -5.48470
C         -2.87100        0.58920       -5.37470
C         -1.53440        0.91650       -5.84530
S         -0.77020        2.41810       -5.40080
C          0.72960        1.96740       -6.13890
C          1.88980        2.90160       -6.15660
C          1.65980        4.04410       -7.14800
C          0.62600        0.73020       -6.70020
C         -0.65080        0.12860       -6.52970
Cl        -1.03750       -1.40270       -7.19480
Cl         1.90930       -0.06260       -7.52010
C         -3.08410       -0.55160       -4.61220
S         -1.83140       -1.63420       -4.08820
C         -3.91530        2.79400       -6.00150
C         -4.99390        3.54990       -5.64210
S         -6.21100        2.60820       -4.81500
C         -4.89890        4.98080       -5.57520
C         -5.09720        5.71720       -4.44290
C         -4.23280        6.84080       -4.35220
C         -3.85540        7.53490       -3.18350
C         -4.60760        7.50480       -1.94380
S         -5.27700        6.05750       -1.24800
C         -5.88120        6.89820        0.13670
C         -6.57530        6.17730        1.23850
C         -5.57320        5.69270        2.28950
C         -5.57220        8.22310        0.05610
Cl        -6.01250        9.38000        1.24370
C         -4.85050        8.57000       -1.11580
Cl        -4.41220       10.18760       -1.47150
C         -2.60380        8.14520       -3.21490
C         -1.82980        8.28190       -4.39230
C         -2.32710        7.79410       -5.61410
C         -1.59720        7.86920       -6.86680
S          0.07090        7.39750       -7.01230
C          0.08190        7.64070       -8.72700
C          1.30880        7.38590       -9.53160
C          2.54140        8.04850       -8.92060
C         -1.14140        8.06910       -9.14580
C         -2.09680        8.18690       -8.09940
Cl        -3.69700        8.73620       -8.36920
Cl        -1.52570        8.43240      -10.77840
C         -3.46770        7.00550       -5.53200
S         -3.87410        5.80760       -6.73110
C         -0.48730        8.62290       -4.11050
C         -0.19050        8.59470       -2.77510
S         -1.64150        8.47450       -1.79540
C          1.09240        8.25220       -2.24630
C          2.15860        7.83570       -3.01230
C          3.10290        7.07190       -2.30870
C          4.22830        6.38820       -2.95060
C          5.49230        6.34710       -2.36950
C          6.50700        5.61830       -2.95730
C          6.29170        4.91520       -4.13700
C          7.36680        4.05050       -4.72660
C          7.23320        2.62010       -4.20000
C          5.03650        4.98130       -4.72870
C          4.01710        5.71110       -4.14930
C          2.77420        6.93310       -0.97260
S          1.31500        7.79450       -0.58220
C          3.35790        5.99190       -0.05920
C          3.71820        4.72160       -0.39350
C          4.20640        3.96210        0.69720
C          4.65780        2.63210        0.68670
C          4.60500        1.82180       -0.52000
S          3.12020        1.64460       -1.41410
C          3.83250        0.54090       -2.54320
C          3.04230       -0.05070       -3.65970
C          1.67100       -0.54600       -3.20780
C          5.14580        0.34280       -2.23780
Cl         6.19330       -0.69050       -3.12270
C          5.58620        1.06320       -1.09390
Cl         7.21320        1.01910       -0.55670
C          5.10350        2.11380        1.89850
C          5.12060        2.86660        3.09760
C          4.69660        4.20520        3.09680
C          4.75600        5.01610        4.30140
S          3.37040        5.88610        4.88710
C          4.24790        6.53240        6.23040
C          3.60950        7.47920        7.18550
C          3.71870        8.91880        6.67670
C          5.54130        6.10240        6.20460
C          5.83190        5.23780        5.11600
Cl         7.40370        4.61140        4.82660
Cl         6.72070        6.54610        7.36990
C          4.22400        4.71530        1.89470
S          3.61170        6.32740        1.63950
C          5.52990        2.07340        4.20950
C          5.81530        0.80060        3.86880
S          5.61430        0.47590        2.18490
H          2.02630      -13.66450        9.90630
H          3.42350      -11.71670        8.89300
H          7.33380       -7.19880        6.97530
H          6.90690       -7.67280        5.31950
H          8.14810       -9.50990        7.42630
H          8.99450       -8.80340        6.04650
H          7.71230       -9.99090        5.78310
H         -5.76000      -14.18450        6.34880
H         -5.34300      -13.61270        7.97600
H         -7.40220      -12.49570        7.14460
H         -6.52080      -11.89230        5.73740
H         -6.10340      -11.31590        7.35440
H         -1.77420       -9.81660        4.35780
H          1.21110       -6.50650        2.58460
H          4.22500       -2.14360       -1.18450
H          4.36970       -1.21050        0.31650
H          6.47730       -2.38890       -0.19000
H          5.63840       -3.94460       -0.18330
H          5.77460       -3.00290        1.30710
H         -6.92410       -9.95140       -0.42550
H         -8.17830       -8.89940        0.25460
H         -6.03630      -10.38620        1.86100
H         -7.29150       -9.35150        2.54960
H         -7.73550      -10.85570        1.73620
H         -4.15880       -4.77940       -1.82360
H         -5.06770       -2.46190       -2.67910
H        -10.38140       -1.56320       -1.14260
H         -8.91170       -1.98880       -0.24450
H        -10.21710       -0.26530        0.97530
H         -8.65690        0.38910        0.46390
H        -10.12610        0.81210       -0.42190
H          2.04170        3.31480       -5.15690
H          2.78100        2.34050       -6.44430
H          0.77530        4.61160       -6.86940
H          1.52010        3.64820       -8.15100
H          2.51510        4.71460       -7.15320
H         -3.07130        3.20430       -6.52390
H         -5.71200        5.36700       -3.63460
H         -7.11580        5.32260        0.82850
H         -7.29210        6.85610        1.70470
H         -4.85530        5.01010        1.84110
H         -5.03340        6.53630        2.71180
H         -6.09430        5.17570        3.09060
H          1.47680        6.30680       -9.59690
H          1.13880        7.76350      -10.54120
H          3.41600        7.84950       -9.53380
H          2.40090        9.12450       -8.85550
H          2.72160        7.66150       -7.92010
H          0.25920        8.74410       -4.87100
H          2.23560        8.02580       -4.06690
H          5.67480        6.88840       -1.45290
H          7.48150        5.58900       -2.49160
H          8.34990        4.44250       -4.46020
H          7.28390        4.04300       -5.81540
H          8.00280        1.98190       -4.62710
H          7.33290        2.60620       -3.11720
H          6.25890        2.21000       -4.45830
H          4.85540        4.44710       -5.65090
H          3.03910        5.73820       -4.60880
H          3.61960        4.33380       -1.38990
H          3.61800       -0.87470       -4.08530
H          2.90650        0.70110       -4.44280
H          1.76800       -1.30630       -2.43670
H          1.08210        0.27730       -2.81090
H          1.13580       -0.97820       -4.04870
H          2.55780        7.21580        7.30840
H          4.10880        7.39420        8.15260
H          3.22860        9.01500        5.71100
H          4.76240        9.20100        6.56670
H          3.24560        9.59960        7.37910
H          5.58370        2.44620        5.21540
H          6.13830        0.00220        4.50780
