
  xtb     02282215503D
 energy: -258.413794311031 gnorm: 0.000326120113 xtb: 6.4.1 (unknown)
145155  0     0  0            999 V2000
    3.7182   -0.0890   14.7120 C   0  0  0  0  0  0  0  0  0  0  0  0
    2.4796   -0.1300   13.5206 S   0  0  0  0  0  0  0  0  0  0  0  0
    3.6356   -0.0571   12.2308 C   0  0  0  0  0  0  0  0  0  0  0  0
    4.9276   -0.0050   12.7421 C   0  0  0  0  0  0  0  0  0  0  0  0
    4.9677   -0.0228   14.1678 C   0  0  0  0  0  0  0  0  0  0  0  0
    6.0952    0.0202   14.9115 O   0  0  0  0  0  0  0  0  0  0  0  0
    6.0792    0.0538   11.9485 C   0  0  0  0  0  0  0  0  0  0  0  0
    7.0550    0.1027   11.3434 N   0  0  0  0  0  0  0  0  0  0  0  0
    3.3007   -0.0460   10.8504 C   0  0  0  0  0  0  0  0  0  0  0  0
    2.0419   -0.0945   10.3692 C   0  0  0  0  0  0  0  0  0  0  0  0
    1.6708   -0.0695    8.9791 C   0  0  0  0  0  0  0  0  0  0  0  0
    0.3248   -0.1230    8.6411 C   0  0  0  0  0  0  0  0  0  0  0  0
   -0.5989   -0.2094    9.6150 F   0  0  0  0  0  0  0  0  0  0  0  0
   -0.1344   -0.1138    7.3172 C   0  0  0  0  0  0  0  0  0  0  0  0
   -1.4525   -0.2353    7.1005 F   0  0  0  0  0  0  0  0  0  0  0  0
    0.7373   -0.0217    6.2576 C   0  0  0  0  0  0  0  0  0  0  0  0
    2.1219    0.0743    6.5516 C   0  0  0  0  0  0  0  0  0  0  0  0
    2.9833    0.2656    5.5382 N   0  0  0  0  0  0  0  0  0  0  0  0
    4.2678    0.3107    5.7795 C   0  0  0  0  0  0  0  0  0  0  0  0
    5.1527    0.5189    4.5879 C   0  0  0  0  0  0  0  0  0  0  0  0
    5.4348   -0.8226    3.9074 C   0  0  0  0  0  0  0  0  0  0  0  0
    4.7544    0.1299    7.1052 C   0  0  0  0  0  0  0  0  0  0  0  0
    3.9179    0.0174    8.1070 N   0  0  0  0  0  0  0  0  0  0  0  0
    2.5925    0.0118    7.8886 C   0  0  0  0  0  0  0  0  0  0  0  0
    6.2089    0.1260    7.4643 C   0  0  0  0  0  0  0  0  0  0  0  0
    6.6754    1.5473    7.7914 C   0  0  0  0  0  0  0  0  0  0  0  0
    0.3136   -0.0478    4.8556 C   0  0  0  0  0  0  0  0  0  0  0  0
   -0.5681    0.8637    4.3249 C   0  0  0  0  0  0  0  0  0  0  0  0
   -1.1057    1.8131    5.1055 F   0  0  0  0  0  0  0  0  0  0  0  0
   -0.8796    0.8799    2.9530 C   0  0  0  0  0  0  0  0  0  0  0  0
   -1.6908    1.8508    2.5085 F   0  0  0  0  0  0  0  0  0  0  0  0
   -0.3097   -0.0123    2.0748 C   0  0  0  0  0  0  0  0  0  0  0  0
    0.5740   -0.9894    2.5992 C   0  0  0  0  0  0  0  0  0  0  0  0
    1.1161   -1.9027    1.7753 N   0  0  0  0  0  0  0  0  0  0  0  0
    1.9431   -2.7926    2.2606 C   0  0  0  0  0  0  0  0  0  0  0  0
    2.5732   -3.7121    1.2597 C   0  0  0  0  0  0  0  0  0  0  0  0
    3.8830   -3.1014    0.7526 C   0  0  0  0  0  0  0  0  0  0  0  0
    2.2291   -2.8316    3.6573 C   0  0  0  0  0  0  0  0  0  0  0  0
    1.6902   -1.9640    4.4756 N   0  0  0  0  0  0  0  0  0  0  0  0
    0.8804   -1.0115    3.9820 C   0  0  0  0  0  0  0  0  0  0  0  0
    3.0836   -3.8880    4.2921 C   0  0  0  0  0  0  0  0  0  0  0  0
    2.2379   -5.1192    4.6276 C   0  0  0  0  0  0  0  0  0  0  0  0
   -0.5960    0.0232    0.6373 C   0  0  0  0  0  0  0  0  0  0  0  0
    0.4021    0.1016   -0.3057 C   0  0  0  0  0  0  0  0  0  0  0  0
    1.6882    0.2063    0.0660 F   0  0  0  0  0  0  0  0  0  0  0  0
    0.1168    0.1258   -1.6825 C   0  0  0  0  0  0  0  0  0  0  0  0
    1.1553    0.1541   -2.5333 F   0  0  0  0  0  0  0  0  0  0  0  0
   -1.1741    0.0883   -2.1551 C   0  0  0  0  0  0  0  0  0  0  0  0
   -2.2253    0.0210   -1.2061 C   0  0  0  0  0  0  0  0  0  0  0  0
   -3.5020    0.0539   -1.6213 N   0  0  0  0  0  0  0  0  0  0  0  0
   -4.4686   -0.0260   -0.7420 C   0  0  0  0  0  0  0  0  0  0  0  0
   -5.8546    0.0967   -1.2993 C   0  0  0  0  0  0  0  0  0  0  0  0
   -6.1010    1.5268   -1.7859 C   0  0  0  0  0  0  0  0  0  0  0  0
   -4.1734   -0.2064    0.6434 C   0  0  0  0  0  0  0  0  0  0  0  0
   -2.9343   -0.1999    1.0648 N   0  0  0  0  0  0  0  0  0  0  0  0
   -1.9358   -0.0442    0.1795 C   0  0  0  0  0  0  0  0  0  0  0  0
   -5.2139   -0.3805    1.7066 C   0  0  0  0  0  0  0  0  0  0  0  0
   -5.7497    0.9796    2.1603 C   0  0  0  0  0  0  0  0  0  0  0  0
   -1.4820    0.1821   -3.5859 C   0  0  0  0  0  0  0  0  0  0  0  0
   -2.2748   -0.7371   -4.2320 C   0  0  0  0  0  0  0  0  0  0  0  0
   -2.7394   -1.8137   -3.5803 F   0  0  0  0  0  0  0  0  0  0  0  0
   -2.5898   -0.6093   -5.5974 C   0  0  0  0  0  0  0  0  0  0  0  0
   -3.4138   -1.5201   -6.1378 F   0  0  0  0  0  0  0  0  0  0  0  0
   -2.1089    0.4324   -6.3555 C   0  0  0  0  0  0  0  0  0  0  0  0
   -1.2752    1.3869   -5.7207 C   0  0  0  0  0  0  0  0  0  0  0  0
   -0.7387    2.3874   -6.4414 N   0  0  0  0  0  0  0  0  0  0  0  0
   -0.0023    3.2857   -5.8390 C   0  0  0  0  0  0  0  0  0  0  0  0
    0.5206    4.3896   -6.7057 C   0  0  0  0  0  0  0  0  0  0  0  0
   -0.5014    5.5290   -6.7586 C   0  0  0  0  0  0  0  0  0  0  0  0
    0.2157    3.2227   -4.4303 C   0  0  0  0  0  0  0  0  0  0  0  0
   -0.2644    2.2310   -3.7250 N   0  0  0  0  0  0  0  0  0  0  0  0
   -0.9890    1.2787   -4.3373 C   0  0  0  0  0  0  0  0  0  0  0  0
    1.0455    4.2159   -3.6763 C   0  0  0  0  0  0  0  0  0  0  0  0
    2.5011    3.7416   -3.6354 C   0  0  0  0  0  0  0  0  0  0  0  0
   -2.4026    0.5579   -7.7878 C   0  0  0  0  0  0  0  0  0  0  0  0
   -2.9456    1.7036   -8.3206 C   0  0  0  0  0  0  0  0  0  0  0  0
   -3.2964    2.7271   -7.5272 F   0  0  0  0  0  0  0  0  0  0  0  0
   -3.1960    1.8176   -9.7023 C   0  0  0  0  0  0  0  0  0  0  0  0
   -3.7299    2.9614  -10.1619 F   0  0  0  0  0  0  0  0  0  0  0  0
   -2.9200    0.7975  -10.5673 C   0  0  0  0  0  0  0  0  0  0  0  0
   -2.3671   -0.3916  -10.0566 C   0  0  0  0  0  0  0  0  0  0  0  0
   -2.1085   -1.4229  -10.8836 N   0  0  0  0  0  0  0  0  0  0  0  0
   -1.5812   -2.5149  -10.3913 C   0  0  0  0  0  0  0  0  0  0  0  0
   -1.4044   -3.6526  -11.3505 C   0  0  0  0  0  0  0  0  0  0  0  0
   -2.6187   -4.5832  -11.2869 C   0  0  0  0  0  0  0  0  0  0  0  0
   -1.2386   -2.6033   -9.0077 C   0  0  0  0  0  0  0  0  0  0  0  0
   -1.4977   -1.6160   -8.1900 N   0  0  0  0  0  0  0  0  0  0  0  0
   -2.0895   -0.5076   -8.6699 C   0  0  0  0  0  0  0  0  0  0  0  0
   -0.5153   -3.7733   -8.4133 C   0  0  0  0  0  0  0  0  0  0  0  0
    0.9968   -3.5873   -8.5658 C   0  0  0  0  0  0  0  0  0  0  0  0
    3.4697   -0.1151   15.7528 H   0  0  0  0  0  0  0  0  0  0  0  0
    6.8701    0.0651   14.3363 H   0  0  0  0  0  0  0  0  0  0  0  0
    4.1308    0.0066   10.1600 H   0  0  0  0  0  0  0  0  0  0  0  0
    1.2175   -0.1500   11.0705 H   0  0  0  0  0  0  0  0  0  0  0  0
    4.6240    1.1624    3.8835 H   0  0  0  0  0  0  0  0  0  0  0  0
    6.0877    0.9982    4.8754 H   0  0  0  0  0  0  0  0  0  0  0  0
    4.4970   -1.2759    3.5968 H   0  0  0  0  0  0  0  0  0  0  0  0
    5.9413   -1.5054    4.5868 H   0  0  0  0  0  0  0  0  0  0  0  0
    6.0602   -0.6736    3.0307 H   0  0  0  0  0  0  0  0  0  0  0  0
    6.8053   -0.2854    6.6503 H   0  0  0  0  0  0  0  0  0  0  0  0
    6.3444   -0.4939    8.3516 H   0  0  0  0  0  0  0  0  0  0  0  0
    7.7224    1.5348    8.0809 H   0  0  0  0  0  0  0  0  0  0  0  0
    6.0944    1.9454    8.6193 H   0  0  0  0  0  0  0  0  0  0  0  0
    6.5545    2.2076    6.9350 H   0  0  0  0  0  0  0  0  0  0  0  0
    1.8847   -3.8165    0.4204 H   0  0  0  0  0  0  0  0  0  0  0  0
    2.7601   -4.6951    1.6910 H   0  0  0  0  0  0  0  0  0  0  0  0
    4.3206   -3.7389   -0.0114 H   0  0  0  0  0  0  0  0  0  0  0  0
    4.6004   -2.9877    1.5628 H   0  0  0  0  0  0  0  0  0  0  0  0
    3.6902   -2.1218    0.3227 H   0  0  0  0  0  0  0  0  0  0  0  0
    3.4932   -3.4775    5.2162 H   0  0  0  0  0  0  0  0  0  0  0  0
    3.9059   -4.1678    3.6336 H   0  0  0  0  0  0  0  0  0  0  0  0
    2.8552   -5.8798    5.0991 H   0  0  0  0  0  0  0  0  0  0  0  0
    1.7898   -5.5417    3.7308 H   0  0  0  0  0  0  0  0  0  0  0  0
    1.4399   -4.8441    5.3126 H   0  0  0  0  0  0  0  0  0  0  0  0
   -6.6034   -0.1801   -0.5593 H   0  0  0  0  0  0  0  0  0  0  0  0
   -5.9345   -0.5798   -2.1524 H   0  0  0  0  0  0  0  0  0  0  0  0
   -6.0176    2.2346   -0.9637 H   0  0  0  0  0  0  0  0  0  0  0  0
   -5.3660    1.7901   -2.5420 H   0  0  0  0  0  0  0  0  0  0  0  0
   -7.0955    1.6103   -2.2168 H   0  0  0  0  0  0  0  0  0  0  0  0
   -6.0312   -1.0083    1.3485 H   0  0  0  0  0  0  0  0  0  0  0  0
   -4.7378   -0.8731    2.5553 H   0  0  0  0  0  0  0  0  0  0  0  0
   -6.2547    1.4931    1.3460 H   0  0  0  0  0  0  0  0  0  0  0  0
   -6.4550    0.8475    2.9769 H   0  0  0  0  0  0  0  0  0  0  0  0
   -4.9284    1.6017    2.5069 H   0  0  0  0  0  0  0  0  0  0  0  0
    0.6586    3.9928   -7.7122 H   0  0  0  0  0  0  0  0  0  0  0  0
    1.4768    4.7580   -6.3348 H   0  0  0  0  0  0  0  0  0  0  0  0
   -0.6737    5.9446   -5.7680 H   0  0  0  0  0  0  0  0  0  0  0  0
   -0.1447    6.3218   -7.4113 H   0  0  0  0  0  0  0  0  0  0  0  0
   -1.4476    5.1573   -7.1431 H   0  0  0  0  0  0  0  0  0  0  0  0
    0.9839    5.2041   -4.1308 H   0  0  0  0  0  0  0  0  0  0  0  0
    0.6638    4.2692   -2.6560 H   0  0  0  0  0  0  0  0  0  0  0  0
    3.1064    4.4398   -3.0627 H   0  0  0  0  0  0  0  0  0  0  0  0
    2.9141    3.6647   -4.6392 H   0  0  0  0  0  0  0  0  0  0  0  0
    2.5560    2.7627   -3.1662 H   0  0  0  0  0  0  0  0  0  0  0  0
   -3.1252    0.8860  -11.6213 H   0  0  0  0  0  0  0  0  0  0  0  0
   -0.4954   -4.2108  -11.1272 H   0  0  0  0  0  0  0  0  0  0  0  0
   -1.3276   -3.2369  -12.3557 H   0  0  0  0  0  0  0  0  0  0  0  0
   -2.4941   -5.4085  -11.9835 H   0  0  0  0  0  0  0  0  0  0  0  0
   -3.5193   -4.0356  -11.5527 H   0  0  0  0  0  0  0  0  0  0  0  0
   -2.7484   -4.9893  -10.2859 H   0  0  0  0  0  0  0  0  0  0  0  0
   -0.7629   -3.8159   -7.3523 H   0  0  0  0  0  0  0  0  0  0  0  0
   -0.8256   -4.7042   -8.8869 H   0  0  0  0  0  0  0  0  0  0  0  0
    1.2778   -3.5120   -9.6145 H   0  0  0  0  0  0  0  0  0  0  0  0
    1.3112   -2.6777   -8.0602 H   0  0  0  0  0  0  0  0  0  0  0  0
    1.5233   -4.4304   -8.1253 H   0  0  0  0  0  0  0  0  0  0  0  0
  1  2  1  0  0  0  0
  2  3  1  0  0  0  0
  3  4  2  0  0  0  0
  4  5  1  0  0  0  0
  5  6  1  0  0  0  0
  4  7  1  0  0  0  0
  7  8  3  0  0  0  0
  3  9  1  0  0  0  0
  9 10  2  0  0  0  0
 10 11  1  0  0  0  0
 11 12  2  0  0  0  0
 12 13  1  0  0  0  0
 12 14  1  0  0  0  0
 14 15  1  0  0  0  0
 14 16  2  0  0  0  0
 16 17  1  0  0  0  0
 17 18  2  0  0  0  0
 18 19  1  0  0  0  0
 19 20  1  0  0  0  0
 20 21  1  0  0  0  0
 19 22  2  0  0  0  0
 22 23  1  0  0  0  0
 23 24  2  0  0  0  0
 22 25  1  0  0  0  0
 25 26  1  0  0  0  0
 16 27  1  0  0  0  0
 27 28  2  0  0  0  0
 28 29  1  0  0  0  0
 28 30  1  0  0  0  0
 30 31  1  0  0  0  0
 30 32  2  0  0  0  0
 32 33  1  0  0  0  0
 33 34  2  0  0  0  0
 34 35  1  0  0  0  0
 35 36  1  0  0  0  0
 36 37  1  0  0  0  0
 35 38  2  0  0  0  0
 38 39  1  0  0  0  0
 39 40  2  0  0  0  0
 38 41  1  0  0  0  0
 41 42  1  0  0  0  0
 32 43  1  0  0  0  0
 43 44  2  0  0  0  0
 44 45  1  0  0  0  0
 44 46  1  0  0  0  0
 46 47  1  0  0  0  0
 46 48  2  0  0  0  0
 48 49  1  0  0  0  0
 49 50  2  0  0  0  0
 50 51  1  0  0  0  0
 51 52  1  0  0  0  0
 52 53  1  0  0  0  0
 51 54  2  0  0  0  0
 54 55  1  0  0  0  0
 55 56  2  0  0  0  0
 54 57  1  0  0  0  0
 57 58  1  0  0  0  0
 48 59  1  0  0  0  0
 59 60  2  0  0  0  0
 60 61  1  0  0  0  0
 60 62  1  0  0  0  0
 62 63  1  0  0  0  0
 62 64  2  0  0  0  0
 64 65  1  0  0  0  0
 65 66  2  0  0  0  0
 66 67  1  0  0  0  0
 67 68  1  0  0  0  0
 68 69  1  0  0  0  0
 67 70  2  0  0  0  0
 70 71  1  0  0  0  0
 71 72  2  0  0  0  0
 70 73  1  0  0  0  0
 73 74  1  0  0  0  0
 64 75  1  0  0  0  0
 75 76  2  0  0  0  0
 76 77  1  0  0  0  0
 76 78  1  0  0  0  0
 78 79  1  0  0  0  0
 78 80  2  0  0  0  0
 80 81  1  0  0  0  0
 81 82  2  0  0  0  0
 82 83  1  0  0  0  0
 83 84  1  0  0  0  0
 84 85  1  0  0  0  0
 83 86  2  0  0  0  0
 86 87  1  0  0  0  0
 87 88  2  0  0  0  0
 86 89  1  0  0  0  0
 89 90  1  0  0  0  0
  5  1  2  0  0  0  0
 24 11  1  0  0  0  0
 40 27  1  0  0  0  0
 56 43  1  0  0  0  0
 72 59  1  0  0  0  0
 88 75  1  0  0  0  0
 24 17  1  0  0  0  0
 40 33  1  0  0  0  0
 56 49  1  0  0  0  0
 72 65  1  0  0  0  0
 88 81  1  0  0  0  0
  1 91  1  0  0  0  0
  6 92  1  0  0  0  0
  9 93  1  0  0  0  0
 10 94  1  0  0  0  0
 20 95  1  0  0  0  0
 20 96  1  0  0  0  0
 21 97  1  0  0  0  0
 21 98  1  0  0  0  0
 21 99  1  0  0  0  0
 25100  1  0  0  0  0
 25101  1  0  0  0  0
 26102  1  0  0  0  0
 26103  1  0  0  0  0
 26104  1  0  0  0  0
 36105  1  0  0  0  0
 36106  1  0  0  0  0
 37107  1  0  0  0  0
 37108  1  0  0  0  0
 37109  1  0  0  0  0
 41110  1  0  0  0  0
 41111  1  0  0  0  0
 42112  1  0  0  0  0
 42113  1  0  0  0  0
 42114  1  0  0  0  0
 52115  1  0  0  0  0
 52116  1  0  0  0  0
 53117  1  0  0  0  0
 53118  1  0  0  0  0
 53119  1  0  0  0  0
 57120  1  0  0  0  0
 57121  1  0  0  0  0
 58122  1  0  0  0  0
 58123  1  0  0  0  0
 58124  1  0  0  0  0
 68125  1  0  0  0  0
 68126  1  0  0  0  0
 69127  1  0  0  0  0
 69128  1  0  0  0  0
 69129  1  0  0  0  0
 73130  1  0  0  0  0
 73131  1  0  0  0  0
 74132  1  0  0  0  0
 74133  1  0  0  0  0
 74134  1  0  0  0  0
 80135  1  0  0  0  0
 84136  1  0  0  0  0
 84137  1  0  0  0  0
 85138  1  0  0  0  0
 85139  1  0  0  0  0
 85140  1  0  0  0  0
 89141  1  0  0  0  0
 89142  1  0  0  0  0
 90143  1  0  0  0  0
 90144  1  0  0  0  0
 90145  1  0  0  0  0
M  END
