
  xtb     03082206173D
 energy: -356.201989536493 gnorm: 0.000193636891 xtb: 6.4.1 (unknown)
188211  0     0  0            999 V2000
    6.4207  -12.2292   12.4289 C   0  0  0  0  0  0  0  0  0  0  0  0
    5.9507  -10.9668   12.3640 C   0  0  0  0  0  0  0  0  0  0  0  0
    5.1303  -10.7362   11.2205 C   0  0  0  0  0  0  0  0  0  0  0  0
    4.4777   -9.5523   10.8452 C   0  0  0  0  0  0  0  0  0  0  0  0
    4.5355   -8.3387   11.6708 C   0  0  0  0  0  0  0  0  0  0  0  0
    4.2000   -8.3695   13.0206 C   0  0  0  0  0  0  0  0  0  0  0  0
    4.2322   -7.2238   13.7931 C   0  0  0  0  0  0  0  0  0  0  0  0
    4.6150   -6.0059   13.2436 C   0  0  0  0  0  0  0  0  0  0  0  0
    4.6835   -4.4667   14.0997 S   0  0  0  0  0  0  0  0  0  0  0  0
    4.5913   -4.9284   15.8638 C   0  0  0  0  0  0  0  0  0  0  0  0
    5.8599   -5.6034   16.3497 C   0  0  0  0  0  0  0  0  0  0  0  0
    4.9439   -5.9896   11.8868 C   0  0  0  0  0  0  0  0  0  0  0  0
    5.3176   -4.8243   11.3203 F   0  0  0  0  0  0  0  0  0  0  0  0
    4.9066   -7.1208   11.1048 C   0  0  0  0  0  0  0  0  0  0  0  0
    3.7669   -9.5790    9.6551 C   0  0  0  0  0  0  0  0  0  0  0  0
    3.6613  -10.7392    8.8452 C   0  0  0  0  0  0  0  0  0  0  0  0
    4.2983  -11.9336    9.2308 C   0  0  0  0  0  0  0  0  0  0  0  0
    4.1715  -13.1534    8.4271 C   0  0  0  0  0  0  0  0  0  0  0  0
    2.9199  -13.6065    8.0084 C   0  0  0  0  0  0  0  0  0  0  0  0
    2.8054  -14.7459    7.2441 C   0  0  0  0  0  0  0  0  0  0  0  0
    3.9267  -15.4858    6.8659 C   0  0  0  0  0  0  0  0  0  0  0  0
    3.6330  -16.9386    5.9091 S   0  0  0  0  0  0  0  0  0  0  0  0
    5.1610  -17.1470    4.9095 C   0  0  0  0  0  0  0  0  0  0  0  0
    4.8358  -17.9928    3.6940 C   0  0  0  0  0  0  0  0  0  0  0  0
    5.1651  -15.0391    7.3161 C   0  0  0  0  0  0  0  0  0  0  0  0
    5.2950  -13.8922    8.0729 C   0  0  0  0  0  0  0  0  0  0  0  0
    6.2992  -15.7183    7.0270 F   0  0  0  0  0  0  0  0  0  0  0  0
    5.0327  -11.8919   10.4069 C   0  0  0  0  0  0  0  0  0  0  0  0
    5.9143  -13.2267   11.1097 S   0  0  0  0  0  0  0  0  0  0  0  0
    2.9071  -10.4938    7.6759 C   0  0  0  0  0  0  0  0  0  0  0  0
    2.4180   -9.2156    7.5980 C   0  0  0  0  0  0  0  0  0  0  0  0
    2.8753   -8.2408    8.9770 S   0  0  0  0  0  0  0  0  0  0  0  0
    1.6545   -8.6391    6.5412 C   0  0  0  0  0  0  0  0  0  0  0  0
    1.2880   -9.3235    5.3644 C   0  0  0  0  0  0  0  0  0  0  0  0
    0.6012   -8.6610    4.2683 C   0  0  0  0  0  0  0  0  0  0  0  0
    0.3308   -9.5112    3.2738 N   0  0  0  0  0  0  0  0  0  0  0  0
    0.8954  -10.9561    3.6490 S   0  0  0  0  0  4  0  0  0  0  0  0
    1.5034  -10.6152    5.0954 N   0  0  0  0  0  0  0  0  0  0  0  0
    0.2400   -7.3031    4.3022 C   0  0  0  0  0  0  0  0  0  0  0  0
    0.5461   -6.6373    5.5016 C   0  0  0  0  0  0  0  0  0  0  0  0
    0.3387   -5.3432    5.7706 N   0  0  0  0  0  0  0  0  0  0  0  0
    0.9101   -5.0069    7.2249 S   0  0  0  0  0  0  0  0  0  0  0  0
    1.4789   -6.4574    7.6014 N   0  0  0  0  0  0  0  0  0  0  0  0
    1.2421   -7.2948    6.5880 C   0  0  0  0  0  0  0  0  0  0  0  0
   -0.3157   -6.6023    3.1735 C   0  0  0  0  0  0  0  0  0  0  0  0
    0.1959   -6.7482    1.8723 C   0  0  0  0  0  0  0  0  0  0  0  0
   -0.1993   -5.8673    0.7873 C   0  0  0  0  0  0  0  0  0  0  0  0
    0.4316   -6.1752   -0.3500 N   0  0  0  0  0  0  0  0  0  0  0  0
    1.4350   -7.3889   -0.0746 S   0  0  0  0  0  4  0  0  0  0  0  0
    1.1356   -7.6146    1.4813 N   0  0  0  0  0  0  0  0  0  0  0  0
   -1.1319   -4.8295    0.9540 C   0  0  0  0  0  0  0  0  0  0  0  0
   -1.7384   -4.7706    2.2209 C   0  0  0  0  0  0  0  0  0  0  0  0
   -2.6713   -3.8981    2.6146 N   0  0  0  0  0  0  0  0  0  0  0  0
   -3.0285   -4.1762    4.1495 S   0  0  0  0  0  0  0  0  0  0  0  0
   -2.0190   -5.3842    4.4268 N   0  0  0  0  0  0  0  0  0  0  0  0
   -1.3254   -5.6350    3.3121 C   0  0  0  0  0  0  0  0  0  0  0  0
   -1.3562   -3.8175   -0.0457 C   0  0  0  0  0  0  0  0  0  0  0  0
   -2.6203   -3.2761   -0.3289 C   0  0  0  0  0  0  0  0  0  0  0  0
   -2.7939   -2.1390   -1.2107 C   0  0  0  0  0  0  0  0  0  0  0  0
   -4.0804   -1.8050   -1.3398 N   0  0  0  0  0  0  0  0  0  0  0  0
   -4.9693   -2.8186   -0.4691 S   0  0  0  0  0  4  0  0  0  0  0  0
   -3.7956   -3.7286    0.1194 N   0  0  0  0  0  0  0  0  0  0  0  0
   -1.7174   -1.4727   -1.8244 C   0  0  0  0  0  0  0  0  0  0  0  0
   -0.4566   -2.0637   -1.5994 C   0  0  0  0  0  0  0  0  0  0  0  0
    0.7142   -1.6438   -2.0898 N   0  0  0  0  0  0  0  0  0  0  0  0
    1.8884   -2.5749   -1.5165 S   0  0  0  0  0  0  0  0  0  0  0  0
    1.0032   -3.5528   -0.6161 N   0  0  0  0  0  0  0  0  0  0  0  0
   -0.2853   -3.2177   -0.7344 C   0  0  0  0  0  0  0  0  0  0  0  0
   -1.8960   -0.2586   -2.5482 C   0  0  0  0  0  0  0  0  0  0  0  0
   -0.9061    0.5645   -3.0208 C   0  0  0  0  0  0  0  0  0  0  0  0
   -1.3888    1.7426   -3.6259 C   0  0  0  0  0  0  0  0  0  0  0  0
   -0.6333    2.8178   -4.1339 C   0  0  0  0  0  0  0  0  0  0  0  0
    0.8304    2.7552   -4.1864 C   0  0  0  0  0  0  0  0  0  0  0  0
    1.4777    1.6408   -4.7221 C   0  0  0  0  0  0  0  0  0  0  0  0
    2.8524    1.5792   -4.7615 C   0  0  0  0  0  0  0  0  0  0  0  0
    3.6428    2.6216   -4.2753 C   0  0  0  0  0  0  0  0  0  0  0  0
    5.3905    2.4241   -4.4128 S   0  0  0  0  0  0  0  0  0  0  0  0
    6.0735    3.3926   -3.0081 C   0  0  0  0  0  0  0  0  0  0  0  0
    7.4661    2.8805   -2.6971 C   0  0  0  0  0  0  0  0  0  0  0  0
    2.9838    3.7397   -3.7734 C   0  0  0  0  0  0  0  0  0  0  0  0
    3.6752    4.8092   -3.3174 F   0  0  0  0  0  0  0  0  0  0  0  0
    1.6064    3.8096   -3.7175 C   0  0  0  0  0  0  0  0  0  0  0  0
   -1.3470    3.9175   -4.5820 C   0  0  0  0  0  0  0  0  0  0  0  0
   -2.7637    3.9664   -4.5784 C   0  0  0  0  0  0  0  0  0  0  0  0
   -3.5151    2.8949   -4.0658 C   0  0  0  0  0  0  0  0  0  0  0  0
   -4.9814    2.9811   -4.0178 C   0  0  0  0  0  0  0  0  0  0  0  0
   -5.7867    2.0340   -4.6418 C   0  0  0  0  0  0  0  0  0  0  0  0
   -7.1611    2.1722   -4.6495 C   0  0  0  0  0  0  0  0  0  0  0  0
   -7.7754    3.2521   -4.0251 C   0  0  0  0  0  0  0  0  0  0  0  0
   -9.5242    3.5064   -4.0049 S   0  0  0  0  0  0  0  0  0  0  0  0
  -10.0004    3.0340   -5.7067 C   0  0  0  0  0  0  0  0  0  0  0  0
   -9.3147    3.8958   -6.7480 C   0  0  0  0  0  0  0  0  0  0  0  0
   -6.9592    4.1634   -3.3574 C   0  0  0  0  0  0  0  0  0  0  0  0
   -5.5859    4.0481   -3.3580 C   0  0  0  0  0  0  0  0  0  0  0  0
   -7.5137    5.2021   -2.7052 F   0  0  0  0  0  0  0  0  0  0  0  0
   -2.8082    1.8004   -3.6019 C   0  0  0  0  0  0  0  0  0  0  0  0
   -3.4966    0.3843   -2.8460 S   0  0  0  0  0  0  0  0  0  0  0  0
   -3.2538    5.1600   -5.1598 C   0  0  0  0  0  0  0  0  0  0  0  0
   -2.2705    6.0111   -5.5720 C   0  0  0  0  0  0  0  0  0  0  0  0
   -0.6699    5.3744   -5.2663 S   0  0  0  0  0  0  0  0  0  0  0  0
   -2.4618    7.2899   -6.1816 C   0  0  0  0  0  0  0  0  0  0  0  0
   -3.5922    7.7239   -6.8074 C   0  0  0  0  0  0  0  0  0  0  0  0
   -3.5056    9.0591   -7.2762 C   0  0  0  0  0  0  0  0  0  0  0  0
   -4.4702    9.7876   -7.9911 C   0  0  0  0  0  0  0  0  0  0  0  0
   -5.7750    9.1983   -8.3128 C   0  0  0  0  0  0  0  0  0  0  0  0
   -6.2631    9.2159   -9.6158 C   0  0  0  0  0  0  0  0  0  0  0  0
   -7.4684    8.6230   -9.9381 C   0  0  0  0  0  0  0  0  0  0  0  0
   -8.2368    7.9971   -8.9637 C   0  0  0  0  0  0  0  0  0  0  0  0
   -9.7672    7.1683   -9.2403 S   0  0  0  0  0  0  0  0  0  0  0  0
  -10.3001    7.7565  -10.8838 C   0  0  0  0  0  0  0  0  0  0  0  0
  -10.7017    9.2191  -10.8705 C   0  0  0  0  0  0  0  0  0  0  0  0
   -7.7400    7.9952   -7.6590 C   0  0  0  0  0  0  0  0  0  0  0  0
   -8.4573    7.3909   -6.6901 F   0  0  0  0  0  0  0  0  0  0  0  0
   -6.5401    8.5799   -7.3246 C   0  0  0  0  0  0  0  0  0  0  0  0
   -4.1133   11.0699   -8.3833 C   0  0  0  0  0  0  0  0  0  0  0  0
   -2.8574   11.6513   -8.0835 C   0  0  0  0  0  0  0  0  0  0  0  0
   -1.8915   10.9191   -7.3787 C   0  0  0  0  0  0  0  0  0  0  0  0
   -0.5653   11.4716   -7.0734 C   0  0  0  0  0  0  0  0  0  0  0  0
   -0.0675   11.4556   -5.7720 C   0  0  0  0  0  0  0  0  0  0  0  0
    1.1902   11.9477   -5.4960 C   0  0  0  0  0  0  0  0  0  0  0  0
    1.9981   12.4739   -6.5009 C   0  0  0  0  0  0  0  0  0  0  0  0
    3.5830   13.1097   -6.0336 S   0  0  0  0  0  0  0  0  0  0  0  0
    4.6970   12.4657   -7.3370 C   0  0  0  0  0  0  0  0  0  0  0  0
    4.6585   10.9528   -7.4162 C   0  0  0  0  0  0  0  0  0  0  0  0
    1.4782   12.5067   -7.7910 C   0  0  0  0  0  0  0  0  0  0  0  0
    0.2255   12.0070   -8.0845 C   0  0  0  0  0  0  0  0  0  0  0  0
    2.1907   13.0346   -8.8114 F   0  0  0  0  0  0  0  0  0  0  0  0
   -2.2448    9.6361   -6.9875 C   0  0  0  0  0  0  0  0  0  0  0  0
   -1.2083    8.5111   -6.1488 S   0  0  0  0  0  0  0  0  0  0  0  0
   -2.7804   13.0007   -8.5421 C   0  0  0  0  0  0  0  0  0  0  0  0
   -3.9052   13.4102   -9.1614 C   0  0  0  0  0  0  0  0  0  0  0  0
   -5.1381   12.1973   -9.2352 S   0  0  0  0  0  0  0  0  0  0  0  0
    7.0560  -12.6586   13.1789 H   0  0  0  0  0  0  0  0  0  0  0  0
    6.1793  -10.2061   13.0882 H   0  0  0  0  0  0  0  0  0  0  0  0
    3.8817   -9.2990   13.4689 H   0  0  0  0  0  0  0  0  0  0  0  0
    3.9440   -7.2888   14.8299 H   0  0  0  0  0  0  0  0  0  0  0  0
    4.4435   -3.9736   16.3684 H   0  0  0  0  0  0  0  0  0  0  0  0
    3.7050   -5.5421   16.0196 H   0  0  0  0  0  0  0  0  0  0  0  0
    5.7738   -5.8368   17.4093 H   0  0  0  0  0  0  0  0  0  0  0  0
    6.7128   -4.9442   16.2064 H   0  0  0  0  0  0  0  0  0  0  0  0
    6.0453   -6.5261   15.8039 H   0  0  0  0  0  0  0  0  0  0  0  0
    5.1827   -7.0497   10.0652 H   0  0  0  0  0  0  0  0  0  0  0  0
    2.0324  -13.0663    8.2991 H   0  0  0  0  0  0  0  0  0  0  0  0
    1.8357  -15.0912    6.9205 H   0  0  0  0  0  0  0  0  0  0  0  0
    5.9170  -17.6249    5.5305 H   0  0  0  0  0  0  0  0  0  0  0  0
    5.4954  -16.1524    4.6187 H   0  0  0  0  0  0  0  0  0  0  0  0
    4.4724  -18.9722    3.9969 H   0  0  0  0  0  0  0  0  0  0  0  0
    5.7306  -18.1246    3.0894 H   0  0  0  0  0  0  0  0  0  0  0  0
    4.0703  -17.5135    3.0880 H   0  0  0  0  0  0  0  0  0  0  0  0
    6.2846  -13.5831    8.3708 H   0  0  0  0  0  0  0  0  0  0  0  0
    2.7377  -11.2159    6.8991 H   0  0  0  0  0  0  0  0  0  0  0  0
    0.1343    0.3316   -2.8940 H   0  0  0  0  0  0  0  0  0  0  0  0
    0.8947    0.8260   -5.1220 H   0  0  0  0  0  0  0  0  0  0  0  0
    3.3487    0.7144   -5.1737 H   0  0  0  0  0  0  0  0  0  0  0  0
    5.4031    3.2508   -2.1618 H   0  0  0  0  0  0  0  0  0  0  0  0
    6.0950    4.4437   -3.2912 H   0  0  0  0  0  0  0  0  0  0  0  0
    7.4356    1.8268   -2.4289 H   0  0  0  0  0  0  0  0  0  0  0  0
    8.1170    2.9974   -3.5606 H   0  0  0  0  0  0  0  0  0  0  0  0
    7.8860    3.4422   -1.8654 H   0  0  0  0  0  0  0  0  0  0  0  0
    1.1541    4.6928   -3.2943 H   0  0  0  0  0  0  0  0  0  0  0  0
   -5.3304    1.1928   -5.1405 H   0  0  0  0  0  0  0  0  0  0  0  0
   -7.7648    1.4304   -5.1484 H   0  0  0  0  0  0  0  0  0  0  0  0
  -11.0788    3.1894   -5.7186 H   0  0  0  0  0  0  0  0  0  0  0  0
   -9.7977    1.9732   -5.8510 H   0  0  0  0  0  0  0  0  0  0  0  0
   -9.5046    4.9489   -6.5556 H   0  0  0  0  0  0  0  0  0  0  0  0
   -8.2385    3.7312   -6.7376 H   0  0  0  0  0  0  0  0  0  0  0  0
   -9.6929    3.6521   -7.7387 H   0  0  0  0  0  0  0  0  0  0  0  0
   -4.9942    4.7854   -2.8376 H   0  0  0  0  0  0  0  0  0  0  0  0
   -4.3010    5.3784   -5.2603 H   0  0  0  0  0  0  0  0  0  0  0  0
   -4.4498    7.0962   -6.9628 H   0  0  0  0  0  0  0  0  0  0  0  0
   -5.6793    9.6768  -10.3976 H   0  0  0  0  0  0  0  0  0  0  0  0
   -7.7961    8.6410  -10.9646 H   0  0  0  0  0  0  0  0  0  0  0  0
  -11.1553    7.1216  -11.1153 H   0  0  0  0  0  0  0  0  0  0  0  0
   -9.5093    7.5467  -11.6031 H   0  0  0  0  0  0  0  0  0  0  0  0
   -9.8643    9.8533  -10.5869 H   0  0  0  0  0  0  0  0  0  0  0  0
  -11.0442    9.5172  -11.8596 H   0  0  0  0  0  0  0  0  0  0  0  0
  -11.5087    9.3797  -10.1596 H   0  0  0  0  0  0  0  0  0  0  0  0
   -6.2204    8.5709   -6.2943 H   0  0  0  0  0  0  0  0  0  0  0  0
   -0.6748   11.0617   -4.9719 H   0  0  0  0  0  0  0  0  0  0  0  0
    1.5743   11.9313   -4.4881 H   0  0  0  0  0  0  0  0  0  0  0  0
    5.6793   12.8192   -7.0237 H   0  0  0  0  0  0  0  0  0  0  0  0
    4.4389   12.9314   -8.2856 H   0  0  0  0  0  0  0  0  0  0  0  0
    4.8934   10.5133   -6.4491 H   0  0  0  0  0  0  0  0  0  0  0  0
    5.3881   10.6056   -8.1452 H   0  0  0  0  0  0  0  0  0  0  0  0
    3.6737   10.6043   -7.7226 H   0  0  0  0  0  0  0  0  0  0  0  0
   -0.1190   12.0309   -9.1071 H   0  0  0  0  0  0  0  0  0  0  0  0
   -1.9210   13.6279   -8.3900 H   0  0  0  0  0  0  0  0  0  0  0  0
   -4.1074   14.3702   -9.5948 H   0  0  0  0  0  0  0  0  0  0  0  0
  1  2  2  0  0  0  0
  2  3  1  0  0  0  0
  3  4  2  0  0  0  0
  4  5  1  0  0  0  0
  5  6  2  0  0  0  0
  6  7  1  0  0  0  0
  7  8  2  0  0  0  0
  8  9  1  0  0  0  0
  9 10  1  0  0  0  0
 10 11  1  0  0  0  0
  8 12  1  0  0  0  0
 12 13  1  0  0  0  0
 12 14  2  0  0  0  0
  4 15  1  0  0  0  0
 15 16  2  0  0  0  0
 16 17  1  0  0  0  0
 17 18  1  0  0  0  0
 18 19  2  0  0  0  0
 19 20  1  0  0  0  0
 20 21  2  0  0  0  0
 21 22  1  0  0  0  0
 22 23  1  0  0  0  0
 23 24  1  0  0  0  0
 21 25  1  0  0  0  0
 25 26  2  0  0  0  0
 25 27  1  0  0  0  0
 17 28  2  0  0  0  0
 28 29  1  0  0  0  0
 16 30  1  0  0  0  0
 30 31  2  0  0  0  0
 31 32  1  0  0  0  0
 31 33  1  0  0  0  0
 33 34  2  0  0  0  0
 34 35  1  0  0  0  0
 35 36  1  0  0  0  0
 36 37  2  0  0  0  0
 37 38  2  0  0  0  0
 35 39  2  0  0  0  0
 39 40  1  0  0  0  0
 40 41  2  0  0  0  0
 41 42  1  0  0  0  0
 42 43  1  0  0  0  0
 43 44  2  0  0  0  0
 39 45  1  0  0  0  0
 45 46  2  0  0  0  0
 46 47  1  0  0  0  0
 47 48  1  0  0  0  0
 48 49  2  0  0  0  0
 49 50  2  0  0  0  0
 47 51  2  0  0  0  0
 51 52  1  0  0  0  0
 52 53  2  0  0  0  0
 53 54  1  0  0  0  0
 54 55  1  0  0  0  0
 55 56  2  0  0  0  0
 51 57  1  0  0  0  0
 57 58  2  0  0  0  0
 58 59  1  0  0  0  0
 59 60  1  0  0  0  0
 60 61  2  0  0  0  0
 61 62  2  0  0  0  0
 59 63  2  0  0  0  0
 63 64  1  0  0  0  0
 64 65  2  0  0  0  0
 65 66  1  0  0  0  0
 66 67  1  0  0  0  0
 67 68  2  0  0  0  0
 63 69  1  0  0  0  0
 69 70  2  0  0  0  0
 70 71  1  0  0  0  0
 71 72  2  0  0  0  0
 72 73  1  0  0  0  0
 73 74  2  0  0  0  0
 74 75  1  0  0  0  0
 75 76  2  0  0  0  0
 76 77  1  0  0  0  0
 77 78  1  0  0  0  0
 78 79  1  0  0  0  0
 76 80  1  0  0  0  0
 80 81  1  0  0  0  0
 80 82  2  0  0  0  0
 72 83  1  0  0  0  0
 83 84  2  0  0  0  0
 84 85  1  0  0  0  0
 85 86  1  0  0  0  0
 86 87  2  0  0  0  0
 87 88  1  0  0  0  0
 88 89  2  0  0  0  0
 89 90  1  0  0  0  0
 90 91  1  0  0  0  0
 91 92  1  0  0  0  0
 89 93  1  0  0  0  0
 93 94  2  0  0  0  0
 93 95  1  0  0  0  0
 85 96  2  0  0  0  0
 96 97  1  0  0  0  0
 84 98  1  0  0  0  0
 98 99  2  0  0  0  0
 99100  1  0  0  0  0
 99101  1  0  0  0  0
101102  2  0  0  0  0
102103  1  0  0  0  0
103104  2  0  0  0  0
104105  1  0  0  0  0
105106  2  0  0  0  0
106107  1  0  0  0  0
107108  2  0  0  0  0
108109  1  0  0  0  0
109110  1  0  0  0  0
110111  1  0  0  0  0
108112  1  0  0  0  0
112113  1  0  0  0  0
112114  2  0  0  0  0
104115  1  0  0  0  0
115116  2  0  0  0  0
116117  1  0  0  0  0
117118  1  0  0  0  0
118119  2  0  0  0  0
119120  1  0  0  0  0
120121  2  0  0  0  0
121122  1  0  0  0  0
122123  1  0  0  0  0
123124  1  0  0  0  0
121125  1  0  0  0  0
125126  2  0  0  0  0
125127  1  0  0  0  0
117128  2  0  0  0  0
128129  1  0  0  0  0
116130  1  0  0  0  0
130131  2  0  0  0  0
131132  1  0  0  0  0
 29  1  1  0  0  0  0
 44 33  1  0  0  0  0
 56 45  1  0  0  0  0
 68 57  1  0  0  0  0
 97 69  1  0  0  0  0
129101  1  0  0  0  0
 28  3  1  0  0  0  0
 38 34  1  0  0  0  0
 44 40  1  0  0  0  0
 50 46  1  0  0  0  0
 56 52  1  0  0  0  0
 62 58  1  0  0  0  0
 68 64  1  0  0  0  0
 96 71  1  0  0  0  0
128103  1  0  0  0  0
 14  5  1  0  0  0  0
 32 15  1  0  0  0  0
 82 73  1  0  0  0  0
100 83  1  0  0  0  0
114105  1  0  0  0  0
132115  1  0  0  0  0
 26 18  1  0  0  0  0
 94 86  1  0  0  0  0
126118  1  0  0  0  0
  1133  1  0  0  0  0
  2134  1  0  0  0  0
  6135  1  0  0  0  0
  7136  1  0  0  0  0
 10137  1  0  0  0  0
 10138  1  0  0  0  0
 11139  1  0  0  0  0
 11140  1  0  0  0  0
 11141  1  0  0  0  0
 14142  1  0  0  0  0
 19143  1  0  0  0  0
 20144  1  0  0  0  0
 23145  1  0  0  0  0
 23146  1  0  0  0  0
 24147  1  0  0  0  0
 24148  1  0  0  0  0
 24149  1  0  0  0  0
 26150  1  0  0  0  0
 30151  1  0  0  0  0
 70152  1  0  0  0  0
 74153  1  0  0  0  0
 75154  1  0  0  0  0
 78155  1  0  0  0  0
 78156  1  0  0  0  0
 79157  1  0  0  0  0
 79158  1  0  0  0  0
 79159  1  0  0  0  0
 82160  1  0  0  0  0
 87161  1  0  0  0  0
 88162  1  0  0  0  0
 91163  1  0  0  0  0
 91164  1  0  0  0  0
 92165  1  0  0  0  0
 92166  1  0  0  0  0
 92167  1  0  0  0  0
 94168  1  0  0  0  0
 98169  1  0  0  0  0
102170  1  0  0  0  0
106171  1  0  0  0  0
107172  1  0  0  0  0
110173  1  0  0  0  0
110174  1  0  0  0  0
111175  1  0  0  0  0
111176  1  0  0  0  0
111177  1  0  0  0  0
114178  1  0  0  0  0
119179  1  0  0  0  0
120180  1  0  0  0  0
123181  1  0  0  0  0
123182  1  0  0  0  0
124183  1  0  0  0  0
124184  1  0  0  0  0
124185  1  0  0  0  0
126186  1  0  0  0  0
130187  1  0  0  0  0
131188  1  0  0  0  0
M  END
