
  xtb     02282216483D
 energy: -148.504925404607 gnorm: 0.000596061048 xtb: 6.4.1 (unknown)
 74 79  0     0  0            999 V2000
   -1.9051   -1.0090    1.3727 C   0  0  0  0  0  0  0  0  0  0  0  0
   -3.1101   -1.6159    1.6048 C   0  0  0  0  0  0  0  0  0  0  0  0
   -3.8338   -2.3896    0.7020 C   0  0  0  0  0  0  0  0  0  0  0  0
   -4.3900   -3.0412   -0.0641 N   0  0  0  0  0  0  0  0  0  0  0  0
   -3.6564   -1.3369    3.2392 S   0  0  0  0  0  0  0  0  0  0  0  0
   -2.2305   -0.4179    3.5822 C   0  0  0  0  0  0  0  0  0  0  0  0
   -2.0221    0.1805    4.7443 O   0  0  0  0  0  0  0  0  0  0  0  0
   -3.0180    0.0531    5.7352 C   0  0  0  0  0  0  0  0  0  0  0  0
   -1.3793   -0.3386    2.4912 C   0  0  0  0  0  0  0  0  0  0  0  0
   -0.1156    0.3782    2.5042 C   0  0  0  0  0  0  0  0  0  0  0  0
    0.7430    0.3528    3.5833 C   0  0  0  0  0  0  0  0  0  0  0  0
    0.6225   -0.4113    4.7414 C   0  0  0  0  0  0  0  0  0  0  0  0
    0.5446   -1.0796    5.6727 N   0  0  0  0  0  0  0  0  0  0  0  0
    2.1668    1.3149    3.3129 S   0  0  0  0  0  0  0  0  0  0  0  0
    1.6272    1.6917    1.7127 C   0  0  0  0  0  0  0  0  0  0  0  0
    2.3264    2.4811    0.8974 O   0  0  0  0  0  0  0  0  0  0  0  0
    3.6055    2.8884    1.3389 C   0  0  0  0  0  0  0  0  0  0  0  0
    0.3958    1.1400    1.4150 C   0  0  0  0  0  0  0  0  0  0  0  0
   -0.3261    1.4122    0.1760 C   0  0  0  0  0  0  0  0  0  0  0  0
   -1.6554    1.7924    0.1700 C   0  0  0  0  0  0  0  0  0  0  0  0
   -2.5055    1.9856    1.2552 C   0  0  0  0  0  0  0  0  0  0  0  0
   -3.2215    2.1634    2.1369 N   0  0  0  0  0  0  0  0  0  0  0  0
   -2.2437    2.1339   -1.4341 S   0  0  0  0  0  0  0  0  0  0  0  0
   -0.6760    1.8031   -2.0877 C   0  0  0  0  0  0  0  0  0  0  0  0
   -0.4143    1.8351   -3.3968 O   0  0  0  0  0  0  0  0  0  0  0  0
   -1.2993    2.5766   -4.2105 C   0  0  0  0  0  0  0  0  0  0  0  0
    0.2341    1.4164   -1.1296 C   0  0  0  0  0  0  0  0  0  0  0  0
    1.6376    1.1844   -1.4704 C   0  0  0  0  0  0  0  0  0  0  0  0
    2.3867    2.1700   -2.0710 C   0  0  0  0  0  0  0  0  0  0  0  0
    1.9060    3.4154   -2.4666 C   0  0  0  0  0  0  0  0  0  0  0  0
    1.4621    4.4239   -2.7926 N   0  0  0  0  0  0  0  0  0  0  0  0
    4.0549    1.7056   -2.2338 S   0  0  0  0  0  0  0  0  0  0  0  0
    3.7294    0.1787   -1.4791 C   0  0  0  0  0  0  0  0  0  0  0  0
    4.8023   -0.6077   -1.3829 O   0  0  0  0  0  0  0  0  0  0  0  0
    4.6804   -2.0182   -1.3641 C   0  0  0  0  0  0  0  0  0  0  0  0
    2.3980    0.0271   -1.1502 C   0  0  0  0  0  0  0  0  0  0  0  0
    1.7715   -1.1430   -0.5432 C   0  0  0  0  0  0  0  0  0  0  0  0
    2.1916   -1.6797    0.6558 C   0  0  0  0  0  0  0  0  0  0  0  0
    3.2573   -1.2145    1.4197 C   0  0  0  0  0  0  0  0  0  0  0  0
    4.1381   -0.7845    2.0202 N   0  0  0  0  0  0  0  0  0  0  0  0
    1.1889   -3.0074    1.1774 S   0  0  0  0  0  0  0  0  0  0  0  0
    0.1958   -2.8189   -0.2325 C   0  0  0  0  0  0  0  0  0  0  0  0
   -0.8518   -3.5996   -0.4855 O   0  0  0  0  0  0  0  0  0  0  0  0
   -1.1460   -4.6265    0.4349 C   0  0  0  0  0  0  0  0  0  0  0  0
    0.6153   -1.7902   -1.0560 C   0  0  0  0  0  0  0  0  0  0  0  0
   -0.0742   -1.4675   -2.3021 C   0  0  0  0  0  0  0  0  0  0  0  0
    0.5688   -1.2060   -3.4980 C   0  0  0  0  0  0  0  0  0  0  0  0
    1.9254   -1.2609   -3.7834 C   0  0  0  0  0  0  0  0  0  0  0  0
    3.0449   -1.3395   -4.0363 N   0  0  0  0  0  0  0  0  0  0  0  0
   -0.5562   -0.8935   -4.7902 S   0  0  0  0  0  0  0  0  0  0  0  0
   -1.8890   -1.1167   -3.7006 C   0  0  0  0  0  0  0  0  0  0  0  0
   -3.1604   -0.9720   -4.0744 O   0  0  0  0  0  0  0  0  0  0  0  0
   -3.4148   -0.7861   -5.4488 C   0  0  0  0  0  0  0  0  0  0  0  0
   -1.4783   -1.4220   -2.4317 C   0  0  0  0  0  0  0  0  0  0  0  0
   -1.4060   -1.0473    0.4231 H   0  0  0  0  0  0  0  0  0  0  0  0
   -2.6552    0.6089    6.5964 H   0  0  0  0  0  0  0  0  0  0  0  0
   -3.9659    0.4749    5.3866 H   0  0  0  0  0  0  0  0  0  0  0  0
   -3.1628   -0.9970    6.0074 H   0  0  0  0  0  0  0  0  0  0  0  0
    3.5276    3.4965    2.2452 H   0  0  0  0  0  0  0  0  0  0  0  0
    4.0269    3.4826    0.5309 H   0  0  0  0  0  0  0  0  0  0  0  0
    4.2407    2.0198    1.5404 H   0  0  0  0  0  0  0  0  0  0  0  0
   -2.3189    2.1818   -4.1402 H   0  0  0  0  0  0  0  0  0  0  0  0
   -1.2958    3.6302   -3.9198 H   0  0  0  0  0  0  0  0  0  0  0  0
   -0.9257    2.4752   -5.2271 H   0  0  0  0  0  0  0  0  0  0  0  0
    3.8837   -2.3534   -2.0296 H   0  0  0  0  0  0  0  0  0  0  0  0
    4.5089   -2.3845   -0.3491 H   0  0  0  0  0  0  0  0  0  0  0  0
    5.6379   -2.3915   -1.7237 H   0  0  0  0  0  0  0  0  0  0  0  0
   -1.2887   -4.2216    1.4421 H   0  0  0  0  0  0  0  0  0  0  0  0
   -0.3446   -5.3715    0.4579 H   0  0  0  0  0  0  0  0  0  0  0  0
   -2.0719   -5.0798    0.0884 H   0  0  0  0  0  0  0  0  0  0  0  0
   -2.9361    0.1271   -5.8190 H   0  0  0  0  0  0  0  0  0  0  0  0
   -4.4948   -0.7031   -5.5472 H   0  0  0  0  0  0  0  0  0  0  0  0
   -3.0532   -1.6376   -6.0335 H   0  0  0  0  0  0  0  0  0  0  0  0
   -2.1768   -1.6195   -1.6405 H   0  0  0  0  0  0  0  0  0  0  0  0
  1  2  2  0  0  0  0
  2  3  1  0  0  0  0
  3  4  3  0  0  0  0
  2  5  1  0  0  0  0
  5  6  1  0  0  0  0
  6  7  1  0  0  0  0
  7  8  1  0  0  0  0
  6  9  2  0  0  0  0
  9 10  1  0  0  0  0
 10 11  2  0  0  0  0
 11 12  1  0  0  0  0
 12 13  3  0  0  0  0
 11 14  1  0  0  0  0
 14 15  1  0  0  0  0
 15 16  1  0  0  0  0
 16 17  1  0  0  0  0
 15 18  2  0  0  0  0
 18 19  1  0  0  0  0
 19 20  2  0  0  0  0
 20 21  1  0  0  0  0
 21 22  3  0  0  0  0
 20 23  1  0  0  0  0
 23 24  1  0  0  0  0
 24 25  1  0  0  0  0
 25 26  1  0  0  0  0
 24 27  2  0  0  0  0
 27 28  1  0  0  0  0
 28 29  2  0  0  0  0
 29 30  1  0  0  0  0
 30 31  3  0  0  0  0
 29 32  1  0  0  0  0
 32 33  1  0  0  0  0
 33 34  1  0  0  0  0
 34 35  1  0  0  0  0
 33 36  2  0  0  0  0
 36 37  1  0  0  0  0
 37 38  2  0  0  0  0
 38 39  1  0  0  0  0
 39 40  3  0  0  0  0
 38 41  1  0  0  0  0
 41 42  1  0  0  0  0
 42 43  1  0  0  0  0
 43 44  1  0  0  0  0
 42 45  2  0  0  0  0
 45 46  1  0  0  0  0
 46 47  2  0  0  0  0
 47 48  1  0  0  0  0
 48 49  3  0  0  0  0
 47 50  1  0  0  0  0
 50 51  1  0  0  0  0
 51 52  1  0  0  0  0
 52 53  1  0  0  0  0
 51 54  2  0  0  0  0
  9  1  1  0  0  0  0
 18 10  1  0  0  0  0
 27 19  1  0  0  0  0
 36 28  1  0  0  0  0
 45 37  1  0  0  0  0
 54 46  1  0  0  0  0
  1 55  1  0  0  0  0
  8 56  1  0  0  0  0
  8 57  1  0  0  0  0
  8 58  1  0  0  0  0
 17 59  1  0  0  0  0
 17 60  1  0  0  0  0
 17 61  1  0  0  0  0
 26 62  1  0  0  0  0
 26 63  1  0  0  0  0
 26 64  1  0  0  0  0
 35 65  1  0  0  0  0
 35 66  1  0  0  0  0
 35 67  1  0  0  0  0
 44 68  1  0  0  0  0
 44 69  1  0  0  0  0
 44 70  1  0  0  0  0
 53 71  1  0  0  0  0
 53 72  1  0  0  0  0
 53 73  1  0  0  0  0
 54 74  1  0  0  0  0
M  END
