134

C          7.15080       -7.37680       13.93680
S          5.83240       -8.00030       12.99660
C          5.25940       -6.39370       12.72790
C          4.24240       -5.68470       12.07890
C          4.48290       -4.32330       12.34230
N          5.59190       -4.18490       13.13930
C          6.21520       -2.94320       13.51100
C          7.16080       -2.44000       12.42080
C          6.08250       -5.44520       13.36040
C          7.16630       -6.02170       14.05150
C          3.55650       -3.46770       11.74160
C          2.61130       -4.15970       11.01400
S          2.85580       -5.90310       11.07430
C          1.54570       -3.63010       10.21450
C          0.73900       -4.49590        9.45260
N          0.86080       -5.84740        9.50670
C          0.05120       -6.46210        8.73540
C         -0.02030       -7.93430        8.57970
C          0.41470       -8.35830        7.17620
S         -1.00240       -5.40250        7.79520
C         -0.24410       -4.03200        8.55290
C         -0.51310       -2.67560        8.34780
C          0.22780       -1.80430        9.17880
C          1.22330       -2.27700       10.06840
S          1.93820       -0.91720       10.88880
C          0.86290        0.14950        9.98970
C          0.89770        1.61630       10.21350
C          0.41750        1.97100       11.62140
N          0.08040       -0.44830        9.18020
C         -1.38730       -2.17910        7.32410
S         -1.94150       -3.25210        6.03440
C         -2.63830       -1.91690        5.19940
C         -3.23650       -1.57700        3.98670
C         -3.42280       -0.17900        4.00190
N         -2.96630        0.33400        5.18710
C         -3.04180        1.70600        5.61200
C         -4.34840        1.99330        6.35010
C         -2.47960       -0.71660        5.92250
C         -1.78060       -0.87410        7.12100
C         -3.89580        0.33480        2.78920
C         -4.06950       -0.65580        1.84930
S         -3.70070       -2.26380        2.47340
C         -4.32720       -0.49560        0.46230
S         -4.25000        1.11860       -0.24620
C         -4.32960        0.43480       -1.82880
C         -4.19940        0.78050       -3.17280
C         -4.26680       -0.42030       -3.90930
N         -4.43880       -1.47680       -3.05370
C         -4.62760       -2.85380       -3.42560
C         -6.10450       -3.17720       -3.64550
C         -4.47000       -0.96760       -1.78200
C         -4.46970       -1.48630       -0.48240
C         -4.01910       -0.25260       -5.27620
C         -3.75260        1.06110       -5.58880
S         -3.86090        2.13210       -4.19120
C         -3.29140        1.57790       -6.82770
S         -2.94320        0.47060       -8.15480
C         -2.27300        1.76870       -9.07370
C         -1.60140        2.02580      -10.26990
C         -1.30400        3.40380      -10.26850
N         -1.79830        3.99050       -9.13050
C         -1.58480        5.35100       -8.71420
C         -0.26550        5.50830       -7.95960
C         -2.36220        2.99300       -8.37990
C         -2.94100        2.87880       -7.11160
C         -0.56720        3.81340      -11.38110
C         -0.29590        2.76470      -12.23420
S         -0.98720        1.24330      -11.68020
C          0.48210        2.78120      -13.44090
C          0.57810        1.61850      -14.22790
N         -0.03880        0.44780      -13.92070
C          0.18990       -0.48540      -14.75930
C         -0.36490       -1.85690      -14.67190
C         -1.34460       -2.13090      -15.81380
S          1.23980       -0.01990      -16.10840
C          1.34650        1.57210      -15.41530
C          2.05640        2.65850      -15.87630
C          1.98620        3.81500      -15.10920
C          1.21360        3.87330      -13.91930
S          1.39260        5.45860      -13.22360
C          2.46650        5.89200      -14.56320
C          3.06130        7.24910      -14.62990
C          1.98400        8.32590      -14.75870
N          2.65400        4.96530      -15.41530
H          7.84990       -8.07380       14.35430
H          5.42820       -2.20540       13.69230
H          6.76530       -3.10090       14.44260
H          7.94620       -3.16980       12.23790
H          6.61360       -2.28240       11.49440
H          7.61700       -1.50130       12.72330
H          7.91570       -5.47790       14.59790
H          3.58780       -2.39810       11.82450
H         -1.04660       -8.26530        8.75600
H          0.63200       -8.38230        9.33060
H         -0.22910       -7.90400        6.42620
H          0.35610       -9.43910        7.07860
H          1.43970       -8.04700        6.99030
H          1.92110        1.97520       10.07890
H          0.25900        2.08990        9.46630
H         -0.60400        1.62890       11.76980
H          0.44940        3.04770       11.76680
H          1.05310        1.49910       12.36740
H         -2.18920        1.90700        6.26640
H         -2.96200        2.34390        4.72750
H         -5.19830        1.79370        5.70160
H         -4.38200        3.03390        6.66110
H         -4.42850        1.36050        7.23090
H         -1.53390       -0.09010        7.81040
H         -4.07530        1.37260        2.57340
H         -4.06170       -3.04130       -4.34210
H         -4.22020       -3.48220       -2.62900
H         -6.51180       -2.55430       -4.43850
H         -6.66950       -2.99250       -2.73470
H         -6.22110       -4.22070       -3.92460
H         -4.53120       -2.52740       -0.22130
H         -3.99550       -1.03620       -6.01170
H         -1.58500        5.98500       -9.60530
H         -2.42080        5.64790       -8.07500
H         -0.26300        4.87910       -7.07260
H          0.56700        5.21490       -8.59490
H         -0.12850        6.54270       -7.65650
H         -3.08040        3.68070       -6.40920
H         -0.24660        4.82360      -11.55220
H          0.45390       -2.57930      -14.71660
H         -0.86890       -1.95110      -13.70900
H         -2.17320       -1.42790      -15.77570
H         -1.73990       -3.13970      -15.73080
H         -0.84520       -2.02970      -16.77500
H          2.65010        2.63320      -16.77340
H          3.64370        7.42700      -13.72180
H          3.73340        7.27880      -15.48860
H          2.44400        9.30940      -14.80660
H          1.40030        8.17010      -15.66280
H          1.31340        8.29590      -13.90250
