74

C         -1.90510       -1.00900        1.37270
C         -3.11010       -1.61590        1.60480
C         -3.83380       -2.38960        0.70200
N         -4.39000       -3.04120       -0.06410
S         -3.65640       -1.33690        3.23920
C         -2.23050       -0.41790        3.58220
O         -2.02210        0.18050        4.74430
C         -3.01800        0.05310        5.73520
C         -1.37930       -0.33860        2.49120
C         -0.11560        0.37820        2.50420
C          0.74300        0.35280        3.58330
C          0.62250       -0.41130        4.74140
N          0.54460       -1.07960        5.67270
S          2.16680        1.31490        3.31290
C          1.62720        1.69170        1.71270
O          2.32640        2.48110        0.89740
C          3.60550        2.88840        1.33890
C          0.39580        1.14000        1.41500
C         -0.32610        1.41220        0.17600
C         -1.65540        1.79240        0.17000
C         -2.50550        1.98560        1.25520
N         -3.22150        2.16340        2.13690
S         -2.24370        2.13390       -1.43410
C         -0.67600        1.80310       -2.08770
O         -0.41430        1.83510       -3.39680
C         -1.29930        2.57660       -4.21050
C          0.23410        1.41640       -1.12960
C          1.63760        1.18440       -1.47040
C          2.38670        2.17000       -2.07100
C          1.90600        3.41540       -2.46660
N          1.46210        4.42390       -2.79260
S          4.05490        1.70560       -2.23380
C          3.72940        0.17870       -1.47910
O          4.80230       -0.60770       -1.38290
C          4.68040       -2.01820       -1.36410
C          2.39800        0.02710       -1.15020
C          1.77150       -1.14300       -0.54320
C          2.19160       -1.67970        0.65580
C          3.25730       -1.21450        1.41970
N          4.13810       -0.78450        2.02020
S          1.18890       -3.00740        1.17740
C          0.19580       -2.81890       -0.23250
O         -0.85180       -3.59960       -0.48550
C         -1.14600       -4.62650        0.43490
C          0.61530       -1.79020       -1.05600
C         -0.07420       -1.46750       -2.30210
C          0.56880       -1.20600       -3.49800
C          1.92540       -1.26090       -3.78340
N          3.04490       -1.33950       -4.03630
S         -0.55620       -0.89350       -4.79020
C         -1.88900       -1.11670       -3.70060
O         -3.16040       -0.97200       -4.07440
C         -3.41480       -0.78610       -5.44880
C         -1.47830       -1.42200       -2.43170
H         -1.40600       -1.04730        0.42310
H         -2.65520        0.60890        6.59640
H         -3.96590        0.47490        5.38660
H         -3.16280       -0.99700        6.00740
H          3.52760        3.49650        2.24520
H          4.02690        3.48260        0.53090
H          4.24070        2.01980        1.54040
H         -2.31890        2.18180       -4.14020
H         -1.29580        3.63020       -3.91980
H         -0.92570        2.47520       -5.22710
H          3.88370       -2.35340       -2.02960
H          4.50890       -2.38450       -0.34910
H          5.63790       -2.39150       -1.72370
H         -1.28870       -4.22160        1.44210
H         -0.34460       -5.37150        0.45790
H         -2.07190       -5.07980        0.08840
H         -2.93610        0.12710       -5.81900
H         -4.49480       -0.70310       -5.54720
H         -3.05320       -1.63760       -6.03350
H         -2.17680       -1.61950       -1.64050
