
  xtb     02282223493D
 energy: -225.153280139190 gnorm: 0.000180717156 xtb: 6.4.1 (unknown)
134151  0     0  0            999 V2000
    7.1508   -7.3768   13.9368 C   0  0  0  0  0  0  0  0  0  0  0  0
    5.8324   -8.0003   12.9966 S   0  0  0  0  0  0  0  0  0  0  0  0
    5.2594   -6.3937   12.7279 C   0  0  0  0  0  0  0  0  0  0  0  0
    4.2424   -5.6847   12.0789 C   0  0  0  0  0  0  0  0  0  0  0  0
    4.4829   -4.3233   12.3423 C   0  0  0  0  0  0  0  0  0  0  0  0
    5.5919   -4.1849   13.1393 N   0  0  0  0  0  0  0  0  0  0  0  0
    6.2152   -2.9432   13.5110 C   0  0  0  0  0  0  0  0  0  0  0  0
    7.1608   -2.4400   12.4208 C   0  0  0  0  0  0  0  0  0  0  0  0
    6.0825   -5.4452   13.3604 C   0  0  0  0  0  0  0  0  0  0  0  0
    7.1663   -6.0217   14.0515 C   0  0  0  0  0  0  0  0  0  0  0  0
    3.5565   -3.4677   11.7416 C   0  0  0  0  0  0  0  0  0  0  0  0
    2.6113   -4.1597   11.0140 C   0  0  0  0  0  0  0  0  0  0  0  0
    2.8558   -5.9031   11.0743 S   0  0  0  0  0  0  0  0  0  0  0  0
    1.5457   -3.6301   10.2145 C   0  0  0  0  0  0  0  0  0  0  0  0
    0.7390   -4.4959    9.4526 C   0  0  0  0  0  0  0  0  0  0  0  0
    0.8608   -5.8474    9.5067 N   0  0  0  0  0  0  0  0  0  0  0  0
    0.0512   -6.4621    8.7354 C   0  0  0  0  0  0  0  0  0  0  0  0
   -0.0203   -7.9343    8.5797 C   0  0  0  0  0  0  0  0  0  0  0  0
    0.4147   -8.3583    7.1762 C   0  0  0  0  0  0  0  0  0  0  0  0
   -1.0024   -5.4025    7.7952 S   0  0  0  0  0  0  0  0  0  0  0  0
   -0.2441   -4.0320    8.5529 C   0  0  0  0  0  0  0  0  0  0  0  0
   -0.5131   -2.6756    8.3478 C   0  0  0  0  0  0  0  0  0  0  0  0
    0.2278   -1.8043    9.1788 C   0  0  0  0  0  0  0  0  0  0  0  0
    1.2233   -2.2770   10.0684 C   0  0  0  0  0  0  0  0  0  0  0  0
    1.9382   -0.9172   10.8888 S   0  0  0  0  0  0  0  0  0  0  0  0
    0.8629    0.1495    9.9897 C   0  0  0  0  0  0  0  0  0  0  0  0
    0.8977    1.6163   10.2135 C   0  0  0  0  0  0  0  0  0  0  0  0
    0.4175    1.9710   11.6214 C   0  0  0  0  0  0  0  0  0  0  0  0
    0.0804   -0.4483    9.1802 N   0  0  0  0  0  0  0  0  0  0  0  0
   -1.3873   -2.1791    7.3241 C   0  0  0  0  0  0  0  0  0  0  0  0
   -1.9415   -3.2521    6.0344 S   0  0  0  0  0  0  0  0  0  0  0  0
   -2.6383   -1.9169    5.1994 C   0  0  0  0  0  0  0  0  0  0  0  0
   -3.2365   -1.5770    3.9867 C   0  0  0  0  0  0  0  0  0  0  0  0
   -3.4228   -0.1790    4.0019 C   0  0  0  0  0  0  0  0  0  0  0  0
   -2.9663    0.3340    5.1871 N   0  0  0  0  0  0  0  0  0  0  0  0
   -3.0418    1.7060    5.6120 C   0  0  0  0  0  0  0  0  0  0  0  0
   -4.3484    1.9933    6.3501 C   0  0  0  0  0  0  0  0  0  0  0  0
   -2.4796   -0.7166    5.9225 C   0  0  0  0  0  0  0  0  0  0  0  0
   -1.7806   -0.8741    7.1210 C   0  0  0  0  0  0  0  0  0  0  0  0
   -3.8958    0.3348    2.7892 C   0  0  0  0  0  0  0  0  0  0  0  0
   -4.0695   -0.6558    1.8493 C   0  0  0  0  0  0  0  0  0  0  0  0
   -3.7007   -2.2638    2.4734 S   0  0  0  0  0  0  0  0  0  0  0  0
   -4.3272   -0.4956    0.4623 C   0  0  0  0  0  0  0  0  0  0  0  0
   -4.2500    1.1186   -0.2462 S   0  0  0  0  0  0  0  0  0  0  0  0
   -4.3296    0.4348   -1.8288 C   0  0  0  0  0  0  0  0  0  0  0  0
   -4.1994    0.7805   -3.1728 C   0  0  0  0  0  0  0  0  0  0  0  0
   -4.2668   -0.4203   -3.9093 C   0  0  0  0  0  0  0  0  0  0  0  0
   -4.4388   -1.4768   -3.0537 N   0  0  0  0  0  0  0  0  0  0  0  0
   -4.6276   -2.8538   -3.4256 C   0  0  0  0  0  0  0  0  0  0  0  0
   -6.1045   -3.1772   -3.6455 C   0  0  0  0  0  0  0  0  0  0  0  0
   -4.4700   -0.9676   -1.7820 C   0  0  0  0  0  0  0  0  0  0  0  0
   -4.4697   -1.4863   -0.4824 C   0  0  0  0  0  0  0  0  0  0  0  0
   -4.0191   -0.2526   -5.2762 C   0  0  0  0  0  0  0  0  0  0  0  0
   -3.7526    1.0611   -5.5888 C   0  0  0  0  0  0  0  0  0  0  0  0
   -3.8609    2.1321   -4.1912 S   0  0  0  0  0  0  0  0  0  0  0  0
   -3.2914    1.5779   -6.8277 C   0  0  0  0  0  0  0  0  0  0  0  0
   -2.9432    0.4706   -8.1548 S   0  0  0  0  0  0  0  0  0  0  0  0
   -2.2730    1.7687   -9.0737 C   0  0  0  0  0  0  0  0  0  0  0  0
   -1.6014    2.0258  -10.2699 C   0  0  0  0  0  0  0  0  0  0  0  0
   -1.3040    3.4038  -10.2685 C   0  0  0  0  0  0  0  0  0  0  0  0
   -1.7983    3.9905   -9.1305 N   0  0  0  0  0  0  0  0  0  0  0  0
   -1.5848    5.3510   -8.7142 C   0  0  0  0  0  0  0  0  0  0  0  0
   -0.2655    5.5083   -7.9596 C   0  0  0  0  0  0  0  0  0  0  0  0
   -2.3622    2.9930   -8.3799 C   0  0  0  0  0  0  0  0  0  0  0  0
   -2.9410    2.8788   -7.1116 C   0  0  0  0  0  0  0  0  0  0  0  0
   -0.5672    3.8134  -11.3811 C   0  0  0  0  0  0  0  0  0  0  0  0
   -0.2959    2.7647  -12.2342 C   0  0  0  0  0  0  0  0  0  0  0  0
   -0.9872    1.2433  -11.6802 S   0  0  0  0  0  0  0  0  0  0  0  0
    0.4821    2.7812  -13.4409 C   0  0  0  0  0  0  0  0  0  0  0  0
    0.5781    1.6185  -14.2279 C   0  0  0  0  0  0  0  0  0  0  0  0
   -0.0388    0.4478  -13.9207 N   0  0  0  0  0  0  0  0  0  0  0  0
    0.1899   -0.4854  -14.7593 C   0  0  0  0  0  0  0  0  0  0  0  0
   -0.3649   -1.8569  -14.6719 C   0  0  0  0  0  0  0  0  0  0  0  0
   -1.3446   -2.1309  -15.8138 C   0  0  0  0  0  0  0  0  0  0  0  0
    1.2398   -0.0199  -16.1084 S   0  0  0  0  0  0  0  0  0  0  0  0
    1.3465    1.5721  -15.4153 C   0  0  0  0  0  0  0  0  0  0  0  0
    2.0564    2.6585  -15.8763 C   0  0  0  0  0  0  0  0  0  0  0  0
    1.9862    3.8150  -15.1092 C   0  0  0  0  0  0  0  0  0  0  0  0
    1.2136    3.8733  -13.9193 C   0  0  0  0  0  0  0  0  0  0  0  0
    1.3926    5.4586  -13.2236 S   0  0  0  0  0  0  0  0  0  0  0  0
    2.4665    5.8920  -14.5632 C   0  0  0  0  0  0  0  0  0  0  0  0
    3.0613    7.2491  -14.6299 C   0  0  0  0  0  0  0  0  0  0  0  0
    1.9840    8.3259  -14.7587 C   0  0  0  0  0  0  0  0  0  0  0  0
    2.6540    4.9653  -15.4153 N   0  0  0  0  0  0  0  0  0  0  0  0
    7.8499   -8.0738   14.3543 H   0  0  0  0  0  0  0  0  0  0  0  0
    5.4282   -2.2054   13.6923 H   0  0  0  0  0  0  0  0  0  0  0  0
    6.7653   -3.1009   14.4426 H   0  0  0  0  0  0  0  0  0  0  0  0
    7.9462   -3.1698   12.2379 H   0  0  0  0  0  0  0  0  0  0  0  0
    6.6136   -2.2824   11.4944 H   0  0  0  0  0  0  0  0  0  0  0  0
    7.6170   -1.5013   12.7233 H   0  0  0  0  0  0  0  0  0  0  0  0
    7.9157   -5.4779   14.5979 H   0  0  0  0  0  0  0  0  0  0  0  0
    3.5878   -2.3981   11.8245 H   0  0  0  0  0  0  0  0  0  0  0  0
   -1.0466   -8.2653    8.7560 H   0  0  0  0  0  0  0  0  0  0  0  0
    0.6320   -8.3823    9.3306 H   0  0  0  0  0  0  0  0  0  0  0  0
   -0.2291   -7.9040    6.4262 H   0  0  0  0  0  0  0  0  0  0  0  0
    0.3561   -9.4391    7.0786 H   0  0  0  0  0  0  0  0  0  0  0  0
    1.4397   -8.0470    6.9903 H   0  0  0  0  0  0  0  0  0  0  0  0
    1.9211    1.9752   10.0789 H   0  0  0  0  0  0  0  0  0  0  0  0
    0.2590    2.0899    9.4663 H   0  0  0  0  0  0  0  0  0  0  0  0
   -0.6040    1.6289   11.7698 H   0  0  0  0  0  0  0  0  0  0  0  0
    0.4494    3.0477   11.7668 H   0  0  0  0  0  0  0  0  0  0  0  0
    1.0531    1.4991   12.3674 H   0  0  0  0  0  0  0  0  0  0  0  0
   -2.1892    1.9070    6.2664 H   0  0  0  0  0  0  0  0  0  0  0  0
   -2.9620    2.3439    4.7275 H   0  0  0  0  0  0  0  0  0  0  0  0
   -5.1983    1.7937    5.7016 H   0  0  0  0  0  0  0  0  0  0  0  0
   -4.3820    3.0339    6.6611 H   0  0  0  0  0  0  0  0  0  0  0  0
   -4.4285    1.3605    7.2309 H   0  0  0  0  0  0  0  0  0  0  0  0
   -1.5339   -0.0901    7.8104 H   0  0  0  0  0  0  0  0  0  0  0  0
   -4.0753    1.3726    2.5734 H   0  0  0  0  0  0  0  0  0  0  0  0
   -4.0617   -3.0413   -4.3421 H   0  0  0  0  0  0  0  0  0  0  0  0
   -4.2202   -3.4822   -2.6290 H   0  0  0  0  0  0  0  0  0  0  0  0
   -6.5118   -2.5543   -4.4385 H   0  0  0  0  0  0  0  0  0  0  0  0
   -6.6695   -2.9925   -2.7347 H   0  0  0  0  0  0  0  0  0  0  0  0
   -6.2211   -4.2207   -3.9246 H   0  0  0  0  0  0  0  0  0  0  0  0
   -4.5312   -2.5274   -0.2213 H   0  0  0  0  0  0  0  0  0  0  0  0
   -3.9955   -1.0362   -6.0117 H   0  0  0  0  0  0  0  0  0  0  0  0
   -1.5850    5.9850   -9.6053 H   0  0  0  0  0  0  0  0  0  0  0  0
   -2.4208    5.6479   -8.0750 H   0  0  0  0  0  0  0  0  0  0  0  0
   -0.2630    4.8791   -7.0726 H   0  0  0  0  0  0  0  0  0  0  0  0
    0.5670    5.2149   -8.5949 H   0  0  0  0  0  0  0  0  0  0  0  0
   -0.1285    6.5427   -7.6565 H   0  0  0  0  0  0  0  0  0  0  0  0
   -3.0804    3.6807   -6.4092 H   0  0  0  0  0  0  0  0  0  0  0  0
   -0.2466    4.8236  -11.5522 H   0  0  0  0  0  0  0  0  0  0  0  0
    0.4539   -2.5793  -14.7166 H   0  0  0  0  0  0  0  0  0  0  0  0
   -0.8689   -1.9511  -13.7090 H   0  0  0  0  0  0  0  0  0  0  0  0
   -2.1732   -1.4279  -15.7757 H   0  0  0  0  0  0  0  0  0  0  0  0
   -1.7399   -3.1397  -15.7308 H   0  0  0  0  0  0  0  0  0  0  0  0
   -0.8452   -2.0297  -16.7750 H   0  0  0  0  0  0  0  0  0  0  0  0
    2.6501    2.6332  -16.7734 H   0  0  0  0  0  0  0  0  0  0  0  0
    3.6437    7.4270  -13.7218 H   0  0  0  0  0  0  0  0  0  0  0  0
    3.7334    7.2788  -15.4886 H   0  0  0  0  0  0  0  0  0  0  0  0
    2.4440    9.3094  -14.8066 H   0  0  0  0  0  0  0  0  0  0  0  0
    1.4003    8.1701  -15.6628 H   0  0  0  0  0  0  0  0  0  0  0  0
    1.3134    8.2959  -13.9025 H   0  0  0  0  0  0  0  0  0  0  0  0
  1  2  1  0  0  0  0
  2  3  1  0  0  0  0
  3  4  1  0  0  0  0
  4  5  2  0  0  0  0
  5  6  1  0  0  0  0
  6  7  1  0  0  0  0
  7  8  1  0  0  0  0
  6  9  1  0  0  0  0
  9 10  1  0  0  0  0
  5 11  1  0  0  0  0
 11 12  2  0  0  0  0
 12 13  1  0  0  0  0
 12 14  1  0  0  0  0
 14 15  2  0  0  0  0
 15 16  1  0  0  0  0
 16 17  2  0  0  0  0
 17 18  1  0  0  0  0
 18 19  1  0  0  0  0
 17 20  1  0  0  0  0
 20 21  1  0  0  0  0
 21 22  2  0  0  0  0
 22 23  1  0  0  0  0
 23 24  2  0  0  0  0
 24 25  1  0  0  0  0
 25 26  1  0  0  0  0
 26 27  1  0  0  0  0
 27 28  1  0  0  0  0
 26 29  2  0  0  0  0
 22 30  1  0  0  0  0
 30 31  1  0  0  0  0
 31 32  1  0  0  0  0
 32 33  1  0  0  0  0
 33 34  2  0  0  0  0
 34 35  1  0  0  0  0
 35 36  1  0  0  0  0
 36 37  1  0  0  0  0
 35 38  1  0  0  0  0
 38 39  1  0  0  0  0
 34 40  1  0  0  0  0
 40 41  2  0  0  0  0
 41 42  1  0  0  0  0
 41 43  1  0  0  0  0
 43 44  1  0  0  0  0
 44 45  1  0  0  0  0
 45 46  1  0  0  0  0
 46 47  2  0  0  0  0
 47 48  1  0  0  0  0
 48 49  1  0  0  0  0
 49 50  1  0  0  0  0
 48 51  1  0  0  0  0
 51 52  1  0  0  0  0
 47 53  1  0  0  0  0
 53 54  2  0  0  0  0
 54 55  1  0  0  0  0
 54 56  1  0  0  0  0
 56 57  1  0  0  0  0
 57 58  1  0  0  0  0
 58 59  1  0  0  0  0
 59 60  2  0  0  0  0
 60 61  1  0  0  0  0
 61 62  1  0  0  0  0
 62 63  1  0  0  0  0
 61 64  1  0  0  0  0
 64 65  1  0  0  0  0
 60 66  1  0  0  0  0
 66 67  2  0  0  0  0
 67 68  1  0  0  0  0
 67 69  1  0  0  0  0
 69 70  2  0  0  0  0
 70 71  1  0  0  0  0
 71 72  2  0  0  0  0
 72 73  1  0  0  0  0
 73 74  1  0  0  0  0
 72 75  1  0  0  0  0
 75 76  1  0  0  0  0
 76 77  2  0  0  0  0
 77 78  1  0  0  0  0
 78 79  2  0  0  0  0
 79 80  1  0  0  0  0
 80 81  1  0  0  0  0
 81 82  1  0  0  0  0
 82 83  1  0  0  0  0
 81 84  2  0  0  0  0
 10  1  2  0  0  0  0
 24 14  1  0  0  0  0
 39 30  2  0  0  0  0
 52 43  2  0  0  0  0
 65 56  2  0  0  0  0
 79 69  1  0  0  0  0
  9  3  2  0  0  0  0
 21 15  1  0  0  0  0
 29 23  1  0  0  0  0
 38 32  2  0  0  0  0
 51 45  2  0  0  0  0
 64 58  2  0  0  0  0
 76 70  1  0  0  0  0
 84 78  1  0  0  0  0
 13  4  1  0  0  0  0
 42 33  1  0  0  0  0
 55 46  1  0  0  0  0
 68 59  1  0  0  0  0
  1 85  1  0  0  0  0
  7 86  1  0  0  0  0
  7 87  1  0  0  0  0
  8 88  1  0  0  0  0
  8 89  1  0  0  0  0
  8 90  1  0  0  0  0
 10 91  1  0  0  0  0
 11 92  1  0  0  0  0
 18 93  1  0  0  0  0
 18 94  1  0  0  0  0
 19 95  1  0  0  0  0
 19 96  1  0  0  0  0
 19 97  1  0  0  0  0
 27 98  1  0  0  0  0
 27 99  1  0  0  0  0
 28100  1  0  0  0  0
 28101  1  0  0  0  0
 28102  1  0  0  0  0
 36103  1  0  0  0  0
 36104  1  0  0  0  0
 37105  1  0  0  0  0
 37106  1  0  0  0  0
 37107  1  0  0  0  0
 39108  1  0  0  0  0
 40109  1  0  0  0  0
 49110  1  0  0  0  0
 49111  1  0  0  0  0
 50112  1  0  0  0  0
 50113  1  0  0  0  0
 50114  1  0  0  0  0
 52115  1  0  0  0  0
 53116  1  0  0  0  0
 62117  1  0  0  0  0
 62118  1  0  0  0  0
 63119  1  0  0  0  0
 63120  1  0  0  0  0
 63121  1  0  0  0  0
 65122  1  0  0  0  0
 66123  1  0  0  0  0
 73124  1  0  0  0  0
 73125  1  0  0  0  0
 74126  1  0  0  0  0
 74127  1  0  0  0  0
 74128  1  0  0  0  0
 77129  1  0  0  0  0
 82130  1  0  0  0  0
 82131  1  0  0  0  0
 83132  1  0  0  0  0
 83133  1  0  0  0  0
 83134  1  0  0  0  0
M  END
