244

C         -0.22530       -3.62770       11.51460
C         -0.09550       -2.80310       10.45630
C         -1.24280       -2.80140        9.60730
C         -1.47090       -2.03920        8.45370
C         -0.43410       -1.20910        7.82720
C          0.83650       -1.72720        7.57560
C          1.77630       -0.98670        6.89220
C          1.49330        0.29300        6.41350
S          2.76040        1.07410        5.46000
C          2.59190        2.86350        5.80120
C          2.75250        3.17970        7.27410
C          0.22100        0.79420        6.66780
F         -0.15300        2.01550        6.21660
C         -0.72090        0.07480        7.37500
C         -2.71880       -2.17070        7.85620
C         -3.71590       -3.05870        8.32490
C         -3.48520       -3.82910        9.47700
C         -4.50520       -4.73960       10.00950
C         -5.80600       -4.29790       10.23490
C         -6.77060       -5.14410       10.74650
C         -6.46770       -6.46580       11.05280
S         -7.60840       -7.65430       11.68180
C         -8.97510       -6.64400       12.35010
C         -8.55840       -5.85290       13.57530
C         -5.16230       -6.89770       10.81290
C         -4.19080       -6.06360       10.30770
F         -4.83790       -8.17840       11.08060
C         -2.25010       -3.67250       10.09050
S         -1.73890       -4.46590       11.56070
C         -4.84050       -3.08180        7.45750
C         -4.73820       -2.22640        6.39870
S         -3.24210       -1.32170        6.42790
C         -5.63450       -2.05200        5.28150
C         -5.38670       -0.98840        4.37220
N         -4.41940       -0.09450        4.65520
C         -4.12990        0.82830        3.79500
C         -4.78090        0.86210        2.52660
O         -4.35150        1.76280        1.64330
C         -4.83010        1.65890        0.30650
C         -4.15550        0.51070       -0.43110
N         -5.75760        0.04080        2.24360
C         -6.12720       -0.86630        3.17550
C         -7.19890       -1.76160        2.91520
C         -7.45150       -2.75830        3.83130
C         -6.68290       -2.90840        4.98810
C         -7.83540       -1.57940        1.60950
C         -8.24230       -0.26990        1.25050
N         -8.54930        0.62660        2.21520
C         -8.83110        1.83890        1.85820
C         -8.79180        2.24880        0.49140
O         -9.02650        3.53400        0.23920
C         -8.94620        3.98950       -1.10860
C        -10.11950        3.52210       -1.95770
N         -8.54250        1.38350       -0.46100
C         -8.28970        0.10410       -0.11240
C         -7.96930       -0.84470       -1.12120
C         -7.85700       -2.17370       -0.73090
C         -7.77650       -2.53260        0.61200
C         -7.45900       -0.37410       -2.38390
C         -6.88350       -1.10140       -3.38730
C         -5.96170       -0.36220       -4.17630
C         -4.99400       -0.87990       -5.05970
C         -5.14060       -2.23680       -5.59440
C         -6.36550       -2.62960       -6.13100
C         -6.54740       -3.89130       -6.66150
C         -5.50740       -4.81430       -6.67160
S         -5.60310       -6.45990       -7.29250
C         -7.11760       -6.46550       -8.31320
C         -6.96400       -5.64090       -9.57700
C         -4.29240       -4.41560       -6.11090
F         -3.27160       -5.29440       -6.07610
C         -4.09630       -3.15920       -5.58410
C         -3.89900       -0.06380       -5.31340
C         -3.78900        1.26020       -4.81350
C         -4.83660        1.82400       -4.07140
C         -4.77600        3.16180       -3.46860
C         -5.83660        4.04900       -3.61890
C         -5.83070        5.28520       -3.00140
C         -4.76080        5.67840       -2.20560
S         -4.63620        7.20290       -1.33150
C         -5.93590        8.25100       -2.06950
C         -5.59820        8.67730       -3.48560
C         -3.71140        4.77080       -2.05010
C         -3.70550        3.53640       -2.65940
F         -2.66630        5.10220       -1.26330
C         -5.89120        0.98420       -3.75460
S         -7.07290        1.33250       -2.51550
C         -2.49520        1.80090       -5.02000
C         -1.62780        0.93240       -5.60910
S         -2.41940       -0.55120       -6.10930
C         -0.19700        1.00810       -5.50860
C          0.41780        1.45260       -4.37530
C          1.81020        1.20430       -4.34360
C          2.68350        1.39130       -3.25970
C          2.21990        1.80750       -1.93040
C          2.89860        2.77360       -1.18850
C          2.50630        3.07720        0.09650
C          1.42880        2.43410        0.70810
S          1.12410        2.85160        2.39460
C         -0.67640        2.64150        2.64220
C         -1.48310        3.54320        1.73110
C          0.75680        1.47770       -0.04790
F         -0.29310        0.78690        0.45670
C          1.13260        1.17060       -1.34000
C          4.00840        1.04550       -3.47430
C          4.47560        0.50270       -4.69590
C          3.58610        0.25780       -5.75680
C          4.08330       -0.38560       -6.97920
C          3.88790        0.17850       -8.23760
C          4.49060       -0.37010       -9.35020
C          5.28730       -1.51040       -9.25910
S          6.05330       -2.09780      -10.73940
C          7.70340       -2.68560      -10.19430
C          8.49360       -1.61770       -9.46580
C          5.39410       -2.11550       -8.01040
C          4.82420       -1.56040       -6.88430
F          6.07790       -3.27140       -7.85370
C          2.26460        0.62180       -5.55410
S          0.93630        0.32510       -6.65200
C          5.86270        0.21540       -4.64450
C          6.42530        0.46090       -3.42920
S          5.27720        1.11520       -2.27960
C          7.76740        0.19890       -3.03080
C          8.30730        0.32860       -1.78810
C          9.66340       -0.08120       -1.71520
C         10.49580       -0.11550       -0.58580
C          9.94570        0.23110        0.73110
C         10.51630        1.20430        1.54730
C          9.90560        1.56930        2.72880
C          8.72540        0.96360        3.16070
S          8.03140        1.53600        4.68070
C          6.21900        1.36970        4.47010
C          5.69660        2.14550        3.27830
C          8.21460       -0.06470        2.37360
F          7.12590       -0.76650        2.75770
C          8.79200       -0.41150        1.17020
C         11.80490       -0.52330       -0.79250
C         12.29260       -0.95340       -2.05230
C         11.44910       -0.95590       -3.17080
C         11.84100       -1.46930       -4.49080
C         12.32210       -2.76570       -4.64430
C         12.54680       -3.29650       -5.90020
C         12.29690       -2.54840       -7.04500
S         12.50290       -3.13240       -8.69800
C         12.27330       -4.93820       -8.53980
C         10.86830       -5.29870       -8.09810
C         11.86710       -1.23260       -6.87400
C         11.63430       -0.69320       -5.62920
F         11.65010       -0.46610       -7.96100
C         10.15620       -0.49430       -2.97490
S          8.91660       -0.42110       -4.19980
C         13.66370       -1.34000       -1.98020
C         14.17620       -1.22460       -0.73840
S         13.04180       -0.64020        0.43200
H          0.48260       -3.81050       12.29950
H          0.76980       -2.19050       10.27880
H          1.07690       -2.72990        7.89470
H          2.75460       -1.39700        6.69390
H          3.39620        3.30450        5.21260
H          1.64150        3.21170        5.40470
H          2.72440        4.25730        7.42240
H          1.95010        2.73270        7.85740
H          3.70200        2.79970        7.64590
H         -1.68280        0.52790        7.55490
H         -6.06180       -3.27010       10.02520
H         -7.76740       -4.76330       10.90080
H         -9.73480       -7.38300       12.60480
H         -9.36460       -6.00840       11.55580
H         -7.76350       -5.14990       13.33460
H         -8.19760       -6.52540       14.34980
H         -9.40920       -5.29670       13.96470
H         -3.20100       -6.45520       10.13530
H         -5.68200       -3.73170        7.61730
H         -3.36730        1.54810        4.05190
H         -5.91490        1.52540        0.31380
H         -4.58180        2.61840       -0.15270
H         -4.48330       -0.44100       -0.01930
H         -3.07580        0.58740       -0.32540
H         -4.41400        0.54470       -1.48510
H         -8.25990       -3.45080        3.64670
H         -6.90190       -3.72940        5.65350
H         -9.10340        2.54700        2.62750
H         -8.94320        5.07850       -1.01720
H         -8.00200        3.65390       -1.54810
H        -11.05960        3.79840       -1.48610
H        -10.08330        2.44330       -2.07770
H        -10.06380        3.98780       -2.93730
H         -7.68910       -2.93360       -1.47850
H         -7.53230       -3.55340        0.86750
H         -7.00560       -2.16410       -3.49690
H         -7.18540       -1.92700       -6.14740
H         -7.51290       -4.15210       -7.06360
H         -7.25610       -7.51980       -8.55290
H         -7.95620       -6.13830       -7.69970
H         -6.76820       -4.59680       -9.34210
H         -7.87450       -5.69970      -10.17040
H         -6.13570       -6.01840      -10.17180
H         -3.13850       -2.92130       -5.15090
H         -6.67800        3.76860       -4.23400
H         -6.67710        5.93770       -3.13970
H         -6.88790        7.72520       -2.00670
H         -5.97300        9.11360       -1.40420
H         -5.50680        7.81540       -4.14320
H         -4.65530        9.21870       -3.49830
H         -6.37900        9.32930       -3.87240
H         -2.88440        2.86270       -2.47230
H         -2.20550        2.78540       -4.70220
H         -0.11870        1.90500       -3.56190
H          3.72880        3.30280       -1.62940
H          3.03910        3.82360        0.66470
H         -0.81340        2.91120        3.69000
H         -0.92960        1.59130        2.51410
H         -1.23480        4.58810        1.90260
H         -1.28940        3.31630        0.68490
H         -2.54410        3.39500        1.91780
H          0.59660        0.38980       -1.85790
H          3.29740        1.07660       -8.33510
H          4.37020        0.09050      -10.31830
H          8.18470       -2.95420      -11.13490
H          7.57480       -3.58290       -9.59220
H          8.54330       -0.70620      -10.05720
H          9.50890       -1.96690       -9.29020
H          8.04230       -1.38180       -8.50400
H          4.94620       -2.06500       -5.93810
H          6.42950       -0.16370       -5.47570
H          7.74960        0.71010       -0.95160
H         11.42030        1.70340        1.23410
H         10.33030        2.34820        3.34280
H          5.82750        1.77440        5.40300
H          5.95890        0.31590        4.41240
H          4.61270        2.05520        3.23810
H          6.10280        1.75460        2.34750
H          5.96360        3.19770        3.35640
H          8.34660       -1.20740        0.59310
H         12.49120       -3.37770       -3.77090
H         12.91080       -4.30820       -5.98310
H         13.03410       -5.33390       -7.86820
H         12.47360       -5.30720       -9.54560
H         10.75940       -6.38070       -8.05840
H         10.65260       -4.89160       -7.11220
H         10.13890       -4.90130       -8.80030
H         11.29220        0.32690       -5.55550
H         14.22540       -1.67450       -2.83360
H         15.17490       -1.44420       -0.41470
