149

C          8.27780       -7.24180        9.70320
C          8.77370       -7.28190        8.45000
C          7.84280       -6.82600        7.47100
C          8.00260       -6.76950        6.07720
C          9.24490       -7.16520        5.43270
S         10.76690       -6.46120        5.89440
C         11.63910       -7.37100        4.70850
C         13.10580       -7.19420        4.52470
C         13.40410       -6.00100        3.61360
C         10.78630       -8.16380        4.00050
Cl        11.28250       -9.21590        2.73950
C          9.42930       -8.05170        4.40840
Cl         8.18270       -9.00790        3.72450
C          6.92520       -6.29670        5.33700
C          5.70520       -5.89190        5.93220
C          5.52640       -5.99850        7.32190
C          4.25250       -5.66400        7.93470
S          4.14040       -4.56400        9.27590
C          2.41880       -4.71770        9.35940
C          1.61920       -3.93180       10.33860
C          1.34040       -2.52230        9.81100
C          1.97220       -5.57300        8.39660
C          3.00720       -6.11430        7.58860
Cl         2.70290       -7.27690        6.36070
Cl         0.32170       -5.98660        8.17270
C          6.61420       -6.44490        8.06150
S          6.65190       -6.65840        9.78900
C          4.80220       -5.36350        4.97950
C          5.28530       -5.38220        3.70330
S          6.89980       -6.04710        3.61560
C          4.59910       -4.94200        2.53030
C          3.42010       -4.25410        2.49010
C          2.96500       -3.98890        1.17820
C          1.78110       -3.33510        0.79070
C          0.83350       -2.85190        1.78170
S          0.23800       -3.90470        3.03400
C         -0.75870       -2.66520        3.71610
C         -1.55620       -2.91680        4.94750
C         -0.65160       -2.99920        6.17900
C         -0.62480       -1.50970        3.00650
Cl        -1.44770       -0.05130        3.38200
C          0.27060       -1.61220        1.90680
Cl         0.65650       -0.26840        0.91620
C          1.55150       -3.21060       -0.57320
C          2.44530       -3.71310       -1.55310
C          3.63630       -4.35310       -1.16450
C          4.56250       -4.88670       -2.14930
S          4.02580       -5.98940       -3.38310
C          5.61330       -6.13890       -4.05200
C          5.85760       -6.95710       -5.27110
C          5.47650       -6.17750       -6.53230
C          6.49540       -5.36790       -3.35510
C          5.90640       -4.66350       -2.27070
Cl         6.79790       -3.57720       -1.29100
Cl         8.16520       -5.24600       -3.72950
C          3.86820       -4.47490        0.19900
S          5.22440       -5.27760        0.93430
C          1.98020       -3.47470       -2.86810
C          0.77100       -2.84030       -2.90660
S          0.14650       -2.49590       -1.30800
C          0.03030       -2.44670       -4.05990
C          0.27700       -2.75020       -5.38280
F          1.30400       -3.50470       -5.79030
C         -0.65030       -2.19270       -6.27970
F         -0.54470       -2.34140       -7.59910
C         -1.63090       -1.44410       -5.66220
S         -1.38200       -1.44620       -3.94140
C         -2.71610       -0.71730       -6.23840
C         -3.34960       -0.89560       -7.44980
F         -3.05290       -1.86840       -8.30920
C         -4.38390        0.02910       -7.69030
F         -5.07940        0.03400       -8.82550
C         -4.56860        0.93360       -6.66600
S         -3.43180        0.61980       -5.38870
C         -5.49320        2.01540       -6.55670
C         -6.68660        2.22990       -7.21530
F         -7.22500        1.37600       -8.08390
C         -7.32310        3.42760       -6.84580
F         -8.49470        3.80640       -7.36670
C         -6.63780        4.15810       -5.89750
S         -5.17800        3.32890       -5.46160
C         -6.98340        5.41470       -5.31780
C         -8.07310        6.19270       -5.58700
C         -8.09460        7.39860       -4.84450
C         -9.07670        8.40410       -4.85880
C        -10.18420        8.35630       -5.79730
S        -11.83500        8.51260       -5.27710
C        -12.43800        8.37250       -6.89230
C        -13.89950        8.37440       -7.17480
C        -14.48800        6.96860       -7.03110
C        -11.40870        8.21220       -7.77230
Cl       -11.61530        8.04570       -9.46710
C        -10.12910        8.20450       -7.15630
Cl        -8.67180        8.10030       -8.05570
C         -8.92360        9.44470       -3.95110
C         -7.81840        9.54680       -3.07250
C         -6.81110        8.56930       -3.09390
C         -5.64340        8.64920       -2.23010
S         -5.79510        8.79000       -0.50360
C         -4.08040        8.78120       -0.27210
C         -3.48140        8.82690        1.09000
C         -3.31060        7.41630        1.65910
C         -3.44200        8.66900       -1.47100
C         -4.32350        8.59580       -2.58300
Cl        -3.76000        8.53250       -4.20000
Cl        -1.73570        8.63050       -1.64490
C         -6.98080        7.50900       -3.97570
S         -5.92800        6.13260       -4.11870
C         -7.88370       10.73250       -2.28440
C         -8.97620       11.47740       -2.55070
S         -9.99670       10.80410       -3.77280
H          8.76770       -7.52560       10.61400
H          9.76350       -7.62490        8.21220
H         13.51400       -8.10410        4.08120
H         13.57690       -7.03530        5.49640
H         12.94880       -6.14900        2.63770
H         13.00730       -5.08610        4.04730
H         14.47730       -5.88980        3.48450
H          2.16450       -3.86550       11.28140
H          0.67490       -4.44990       10.51480
H          0.79020       -2.57320        8.87500
H          0.75110       -1.96380       10.53300
H          2.27460       -1.99350        9.63830
H          3.83310       -4.97940        5.23470
H          2.89820       -3.93780        3.37280
H         -2.27430       -2.10440        5.06890
H         -2.10470       -3.85510        4.84210
H         -1.24980       -3.17800        7.06850
H         -0.10170       -2.06940        6.30590
H          0.05960       -3.81450        6.06970
H          6.91530       -7.22330       -5.30830
H          5.26660       -7.87320       -5.21920
H          5.65730       -6.78490       -7.41480
H          6.06880       -5.26910       -6.60730
H          4.42410       -5.90520       -6.50510
H          2.52610       -3.75370       -3.74900
H         -8.84360        5.91060       -6.27900
H        -14.40120        9.05130       -6.48150
H        -14.05760        8.73360       -8.19330
H        -14.00500        6.28500       -7.72450
H        -14.34080        6.59940       -6.01900
H        -15.55310        6.98710       -7.24510
H         -2.50660        9.31460        1.02770
H         -4.12480        9.41090        1.74990
H         -2.87100        7.46560        2.65160
H         -2.65950        6.82780        1.01800
H         -4.27430        6.91720        1.72790
H         -7.13910       11.00360       -1.55910
H         -9.26200       12.40820       -2.10120
