220

C         -3.50960        0.25200        6.12670
C         -4.24980        1.30340        5.71780
C         -4.34140        1.40030        4.29880
C         -5.00490        2.37170        3.52980
C         -5.68960        3.49690        4.14620
S         -4.88020        4.55080        5.26770
C         -6.27740        5.55450        5.45590
C         -6.24470        6.77310        6.31060
C         -5.73550        7.98050        5.51930
C         -7.30040        5.08990        4.68490
Cl        -8.85060        5.82150        4.61200
C         -6.97220        3.92390        3.94210
Cl        -8.11440        3.10770        2.95900
C         -4.95570        2.22930        2.14710
C         -4.29260        1.14380        1.53170
C         -3.59530        0.19760        2.29390
C         -2.76300       -0.77330        1.58630
S         -3.41170       -2.07530        0.64070
C         -1.86220       -2.46590       -0.02680
C         -1.71090       -3.53740       -1.04990
C         -1.61510       -2.94210       -2.45730
C         -0.91030       -1.62380        0.46450
C         -1.41780       -0.66820        1.38510
Cl        -0.43910        0.52240        2.13690
Cl         0.74380       -1.65880        0.00780
C         -3.63610        0.34310        3.66880
S         -2.87040       -0.69710        4.83220
C         -4.33630        1.22320        0.12120
C         -4.95070        2.34470       -0.34560
S         -5.55570        3.35280        0.94950
C         -4.99060        2.66810       -1.74190
C         -4.80870        3.85220       -2.38780
C         -4.56080        3.70370       -3.78220
C         -4.04760        4.66870       -4.67660
C         -3.99230        6.06850       -4.30210
S         -2.56850        7.03870       -4.53570
C         -3.33410        8.45450       -3.90100
C         -2.58950        9.73580       -3.76110
C         -1.79070        9.76590       -2.45570
C         -4.61660        8.17630       -3.53100
Cl        -5.69360        9.33440       -2.86500
C         -4.99560        6.82730       -3.75930
Cl        -6.58590        6.25630       -3.45820
C         -3.54000        4.19910       -5.88530
C         -3.69010        2.85120       -6.28760
C         -4.20830        1.88740       -5.41270
C         -4.06000        0.46240       -5.68880
S         -5.39390       -0.64740       -5.66600
C         -4.36450       -2.01540       -5.93130
C         -4.91550       -3.39780       -5.96740
C         -5.19630       -3.91040       -4.55290
C         -3.06300       -1.62020       -6.01960
C         -2.88840       -0.21590       -5.89250
Cl        -1.32950        0.50890       -5.93130
Cl        -1.73680       -2.69230       -6.24870
C         -4.61590        2.34230       -4.17070
S         -5.00000        1.29990       -2.83960
C         -3.02440        2.57100       -7.49650
C         -2.23910        3.59860       -7.94060
S         -2.49920        5.05640       -7.00470
C         -1.06080        3.23980       -8.68770
C         -1.00040        2.11060       -9.45440
C          0.18700        1.36150       -9.25890
C          0.28760       -0.03010       -9.45120
C         -0.70710       -0.72560      -10.24600
S         -1.61330       -2.06360       -9.60580
C         -2.57120       -2.19950      -11.04010
C         -3.64490       -3.22620      -11.13710
C         -4.65920       -3.07920      -10.00270
C         -2.19580       -1.26050      -11.95480
Cl        -2.90730       -1.08740      -13.50810
C         -1.14520       -0.41720      -11.50500
Cl        -0.47140        0.82880      -12.47300
C          1.21660       -0.69700       -8.66340
C          2.14030       -0.01990       -7.82990
C          2.11490        1.38430       -7.73280
C          2.95040        2.06930       -6.75210
S          4.14650        3.24110       -7.20610
C          4.62730        3.49820       -5.56310
C          5.74460        4.41760       -5.21120
C          7.07370        3.66190       -5.13890
C          3.89270        2.71330       -4.72540
C          2.93390        1.90760       -5.39510
Cl         1.83240        0.88780       -4.55870
Cl         4.08440        2.68460       -3.02100
C          1.09790        2.03590       -8.40770
S          0.50830        3.62600       -7.97690
C          2.81480       -0.90680       -6.96200
C          2.34910       -2.19250       -7.03200
S          1.22910       -2.41420       -8.36360
C          2.47080       -3.14940       -5.98540
C          1.71620       -4.29310       -5.75210
C          0.85540       -4.89010       -6.68810
N          0.14030       -5.41770       -7.41420
C          1.83510       -4.77810       -4.42970
C          2.68270       -4.03270       -3.65610
S          3.39620       -2.73260       -4.57410
C          2.89550       -4.07270       -2.24630
C          3.83140       -3.37650       -1.54270
C          3.64520       -3.43070       -0.14020
C          4.37290       -2.73840        0.84480
C          5.42710       -1.80600        0.48150
S          5.12660       -0.55140       -0.68970
C          6.71990        0.09820       -0.52340
C          7.14730        1.29930       -1.29260
C          6.83170        2.58650       -0.52750
C          7.42600       -0.61370        0.39980
Cl         9.04810       -0.26480        0.83770
C          6.69940       -1.69350        0.96980
Cl         7.40980       -2.78510        2.08340
C          3.96890       -2.91890        2.16130
C          2.83220       -3.68920        2.51380
C          2.04240       -4.29250        1.51850
C          0.71980       -4.80630        1.82110
S          0.11220       -6.26660        1.09580
C         -1.45990       -6.05760        1.78780
C         -2.53900       -7.06090        1.57830
C         -2.45380       -8.18270        2.61600
C         -1.49350       -4.92570        2.54560
C         -0.26620       -4.21070        2.56750
Cl        -0.13920       -2.71010        3.39260
Cl        -2.88490       -4.36900        3.38300
C          2.52090       -4.21520        0.21420
S          1.75670       -4.89250       -1.19720
C          2.60260       -3.67910        3.91010
C          3.46910       -2.88400        4.59790
S          4.66850       -2.14980        3.55590
C          3.42070       -2.55550        5.98420
C          4.34740       -1.88520        6.72360
C          3.92930       -1.62910        8.05360
C          4.64680       -1.00230        9.08570
C          5.98740       -0.48900        8.85660
S          6.31150        0.60840        7.54590
C          7.99410        0.70910        7.93890
C          8.92730        1.50650        7.09680
C          9.19550        0.80450        5.76330
C          8.27220       -0.06850        9.02260
Cl         9.83650       -0.23600        9.70830
C          7.13750       -0.74380        9.54980
Cl         7.25040       -1.83540       10.86540
C          4.01060       -0.88920       10.31680
C          2.69570       -1.35990       10.55230
C          1.97740       -1.98160        9.51980
C          0.61010       -2.44680        9.69460
S          0.17550       -3.56110       10.95630
C         -1.47780       -3.61930       10.44600
C         -2.46500       -4.50350       11.12420
C         -2.41270       -5.92160       10.55050
C         -1.66390       -2.81920        9.35900
C         -0.48600       -2.14870        8.93250
Cl        -0.49050       -1.02270        7.63900
Cl        -3.17250       -2.62170        8.56460
C          2.62320       -2.11940        8.29740
S          1.97350       -2.92120        6.89840
C          2.25980       -1.05960       11.87550
C          3.19030       -0.39970       12.59510
S          4.65360       -0.09740       11.72690
H         -3.28800       -0.04080        7.13420
H         -4.72440        1.99220        6.39210
H         -5.59190        6.59800        7.16740
H         -7.25460        6.97410        6.67330
H         -4.72810        7.79470        5.15430
H         -5.72060        8.86290        6.15320
H         -6.38370        8.17290        4.66830
H         -2.56660       -4.21160       -0.99090
H         -0.80350       -4.10800       -0.84170
H         -1.51060       -3.73570       -3.19270
H         -2.50600       -2.36300       -2.69110
H         -0.75030       -2.28790       -2.53160
H         -3.88650        0.49370       -0.52730
H         -4.75500        4.79110       -1.86740
H         -3.30550       10.55960       -3.77070
H         -1.90870        9.85200       -4.60600
H         -2.45750        9.66400       -1.60330
H         -1.07210        8.95020       -2.43520
H         -1.25460       10.70690       -2.36810
H         -5.84110       -3.40600       -6.54600
H         -4.18900       -4.04980       -6.45520
H         -5.60610       -4.91570       -4.59620
H         -4.27810       -3.93250       -3.97190
H         -5.91050       -3.26210       -4.05090
H         -3.01290        1.59150       -7.93630
H         -1.84990        1.73020       -9.99150
H         -3.19600       -4.22170      -11.08710
H         -4.14030       -3.12090      -12.10360
H         -5.42760       -3.84280      -10.08680
H         -5.13400       -2.10170      -10.04080
H         -4.16290       -3.18550       -9.04110
H          5.53220        4.87160       -4.24100
H          5.81320        5.20690       -5.96080
H          7.02160        2.88020       -4.38550
H          7.87750        4.34460       -4.87770
H          7.30170        3.20570       -6.09920
H          3.53820       -0.59110       -6.23250
H          1.28740       -5.62660       -4.05890
H          4.61910       -2.82340       -2.02130
H          8.22210        1.23660       -1.47460
H          6.62620        1.31290       -2.25140
H          5.76230        2.66510       -0.34840
H          7.34700        2.59340        0.42940
H          7.15190        3.45000       -1.10450
H         -3.50330       -6.55650        1.66420
H         -2.45020       -7.48450        0.57670
H         -3.24940       -8.90430        2.45190
H         -1.49710       -8.69390        2.54100
H         -2.55350       -7.77520        3.61860
H          1.83360       -4.25130        4.39600
H          5.29850       -1.58740        6.32160
H          9.86350        1.63670        7.64180
H          8.49470        2.49080        6.90530
H          9.88130        1.39480        5.16160
H          9.63660       -0.17450        5.93340
H          8.26770        0.67620        5.21040
H         -3.46430       -4.08770       10.98140
H         -2.24850       -4.53620       12.19330
H         -1.42320       -6.34960       10.69260
H         -2.63530       -5.90630        9.48660
H         -3.14190       -6.55340       11.05030
H          1.29110       -1.32790       12.25490
H          3.11800       -0.05930       13.60960
