
  xtb     03082205543D
 energy: -331.966074005485 gnorm: 0.000193304121 xtb: 6.4.1 (unknown)
185205  0     0  0            999 V2000
    8.8142   -5.8675   12.2960 C   0  0  0  0  0  0  0  0  0  0  0  0
    9.3781   -5.7765   11.0749 C   0  0  0  0  0  0  0  0  0  0  0  0
    8.5317   -5.1416   10.1171 C   0  0  0  0  0  0  0  0  0  0  0  0
    8.7737   -4.9309    8.7509 C   0  0  0  0  0  0  0  0  0  0  0  0
   10.0711   -5.2485    8.1420 C   0  0  0  0  0  0  0  0  0  0  0  0
   10.1662   -5.9916    6.9672 C   0  0  0  0  0  0  0  0  0  0  0  0
   11.3938   -6.2372    6.3905 C   0  0  0  0  0  0  0  0  0  0  0  0
   12.5739   -5.7612    6.9594 C   0  0  0  0  0  0  0  0  0  0  0  0
   14.0873   -6.1719    6.1419 S   0  0  0  0  0  0  0  0  0  0  0  0
   15.1271   -4.6761    6.3301 C   0  0  0  0  0  0  0  0  0  0  0  0
   14.4588   -3.4407    5.7615 C   0  0  0  0  0  0  0  0  0  0  0  0
   12.4656   -5.0463    8.1483 C   0  0  0  0  0  0  0  0  0  0  0  0
   13.5646   -4.5827    8.7855 F   0  0  0  0  0  0  0  0  0  0  0  0
   11.2422   -4.7772    8.7269 C   0  0  0  0  0  0  0  0  0  0  0  0
    7.7408   -4.3669    8.0156 C   0  0  0  0  0  0  0  0  0  0  0  0
    6.5150   -3.9582    8.5957 C   0  0  0  0  0  0  0  0  0  0  0  0
    6.2678   -4.1785    9.9595 C   0  0  0  0  0  0  0  0  0  0  0  0
    4.9720   -3.8468   10.5619 C   0  0  0  0  0  0  0  0  0  0  0  0
    3.7894   -4.2809    9.9685 C   0  0  0  0  0  0  0  0  0  0  0  0
    2.5601   -4.0026   10.5328 C   0  0  0  0  0  0  0  0  0  0  0  0
    2.4682   -3.2786   11.7160 C   0  0  0  0  0  0  0  0  0  0  0  0
    0.9702   -2.8360   12.5310 S   0  0  0  0  0  0  0  0  0  0  0  0
   -0.2918   -3.9115   11.7650 C   0  0  0  0  0  0  0  0  0  0  0  0
   -0.1275   -5.3665   12.1612 C   0  0  0  0  0  0  0  0  0  0  0  0
    3.6615   -2.8420   12.2949 C   0  0  0  0  0  0  0  0  0  0  0  0
    4.8934   -3.1165   11.7453 C   0  0  0  0  0  0  0  0  0  0  0  0
    3.6089   -2.1231   13.4335 F   0  0  0  0  0  0  0  0  0  0  0  0
    7.2921   -4.7662   10.6886 C   0  0  0  0  0  0  0  0  0  0  0  0
    7.2234   -5.1928   12.3795 S   0  0  0  0  0  0  0  0  0  0  0  0
    5.6749   -3.3081    7.6548 C   0  0  0  0  0  0  0  0  0  0  0  0
    6.1923   -3.2632    6.3976 C   0  0  0  0  0  0  0  0  0  0  0  0
    7.7770   -4.0106    6.3083 S   0  0  0  0  0  0  0  0  0  0  0  0
    5.5657   -2.7161    5.2207 C   0  0  0  0  0  0  0  0  0  0  0  0
    5.8383   -3.1750    3.9454 C   0  0  0  0  0  0  0  0  0  0  0  0
    5.1696   -2.7020    2.8123 C   0  0  0  0  0  0  0  0  0  0  0  0
    4.2222   -1.6993    2.8782 C   0  0  0  0  0  0  0  0  0  0  0  0
    3.9624   -1.1524    4.1581 C   0  0  0  0  0  0  0  0  0  0  0  0
    3.1063   -0.1756    4.4534 N   0  0  0  0  0  0  0  0  0  0  0  0
    3.1190    0.0646    6.0406 S   0  0  0  0  0  0  0  0  0  0  0  0
    4.1943   -1.0614    6.4387 N   0  0  0  0  0  0  0  0  0  0  0  0
    4.6042   -1.6797    5.3315 C   0  0  0  0  0  0  0  0  0  0  0  0
    3.4650   -1.2471    1.7330 C   0  0  0  0  0  0  0  0  0  0  0  0
    2.9559   -2.0138    0.7300 C   0  0  0  0  0  0  0  0  0  0  0  0
    2.1354   -1.2905   -0.1752 C   0  0  0  0  0  0  0  0  0  0  0  0
    1.3813   -1.7966   -1.2477 C   0  0  0  0  0  0  0  0  0  0  0  0
    1.4912   -3.2018   -1.6568 C   0  0  0  0  0  0  0  0  0  0  0  0
    2.7429   -3.7696   -1.8949 C   0  0  0  0  0  0  0  0  0  0  0  0
    2.8545   -5.0857   -2.2865 C   0  0  0  0  0  0  0  0  0  0  0  0
    1.7290   -5.8898   -2.4621 C   0  0  0  0  0  0  0  0  0  0  0  0
    2.0075   -7.5467   -3.0147 S   0  0  0  0  0  0  0  0  0  0  0  0
    0.7593   -8.5434   -2.1200 C   0  0  0  0  0  0  0  0  0  0  0  0
    0.8934   -8.4054   -0.6169 C   0  0  0  0  0  0  0  0  0  0  0  0
    0.4863   -5.3024   -2.2467 C   0  0  0  0  0  0  0  0  0  0  0  0
   -0.6546   -6.0053   -2.4249 F   0  0  0  0  0  0  0  0  0  0  0  0
    0.3601   -3.9891   -1.8402 C   0  0  0  0  0  0  0  0  0  0  0  0
    0.5393   -0.9012   -1.8903 C   0  0  0  0  0  0  0  0  0  0  0  0
    0.5149    0.4829   -1.5862 C   0  0  0  0  0  0  0  0  0  0  0  0
    1.3224    1.0020   -0.5611 C   0  0  0  0  0  0  0  0  0  0  0  0
    1.3801    2.4451   -0.3036 C   0  0  0  0  0  0  0  0  0  0  0  0
    1.2457    2.9793    0.9765 C   0  0  0  0  0  0  0  0  0  0  0  0
    1.3113    4.3411    1.1769 C   0  0  0  0  0  0  0  0  0  0  0  0
    1.5331    5.2280    0.1228 C   0  0  0  0  0  0  0  0  0  0  0  0
    1.6560    6.9401    0.5399 S   0  0  0  0  0  0  0  0  0  0  0  0
    0.9886    7.8407   -0.9091 C   0  0  0  0  0  0  0  0  0  0  0  0
   -0.4360    7.4388   -1.2285 C   0  0  0  0  0  0  0  0  0  0  0  0
    1.6965    4.6766   -1.1446 C   0  0  0  0  0  0  0  0  0  0  0  0
    1.6044    3.3179   -1.3647 C   0  0  0  0  0  0  0  0  0  0  0  0
    1.9606    5.4555   -2.2196 F   0  0  0  0  0  0  0  0  0  0  0  0
    2.0655    0.0835    0.1669 C   0  0  0  0  0  0  0  0  0  0  0  0
    3.0084    0.4315    1.5897 S   0  0  0  0  0  0  0  0  0  0  0  0
   -0.4498    1.1769   -2.3585 C   0  0  0  0  0  0  0  0  0  0  0  0
   -1.1431    0.3763   -3.2174 C   0  0  0  0  0  0  0  0  0  0  0  0
   -0.6023   -1.2872   -3.1527 S   0  0  0  0  0  0  0  0  0  0  0  0
   -2.2537    0.7635   -4.0298 C   0  0  0  0  0  0  0  0  0  0  0  0
   -2.6286    2.0343   -4.3530 C   0  0  0  0  0  0  0  0  0  0  0  0
   -3.8521    2.1015   -5.0645 C   0  0  0  0  0  0  0  0  0  0  0  0
   -4.5067    3.2489   -5.5417 C   0  0  0  0  0  0  0  0  0  0  0  0
   -3.9613    4.5893   -5.2926 C   0  0  0  0  0  0  0  0  0  0  0  0
   -3.6513    4.9996   -3.9968 C   0  0  0  0  0  0  0  0  0  0  0  0
   -3.1124    6.2462   -3.7642 C   0  0  0  0  0  0  0  0  0  0  0  0
   -2.8580    7.1280   -4.8124 C   0  0  0  0  0  0  0  0  0  0  0  0
   -2.1559    8.7007   -4.4176 S   0  0  0  0  0  0  0  0  0  0  0  0
   -0.9944    8.9976   -5.8121 C   0  0  0  0  0  0  0  0  0  0  0  0
    0.1594    9.8494   -5.3215 C   0  0  0  0  0  0  0  0  0  0  0  0
   -3.2129    6.7231   -6.0954 C   0  0  0  0  0  0  0  0  0  0  0  0
   -3.0378    7.5495   -7.1500 F   0  0  0  0  0  0  0  0  0  0  0  0
   -3.7496    5.4755   -6.3424 C   0  0  0  0  0  0  0  0  0  0  0  0
   -5.6955    3.0488   -6.2236 C   0  0  0  0  0  0  0  0  0  0  0  0
   -6.2613    1.7656   -6.4310 C   0  0  0  0  0  0  0  0  0  0  0  0
   -5.5988    0.6152   -5.9689 C   0  0  0  0  0  0  0  0  0  0  0  0
   -6.1635   -0.7221   -6.1777 C   0  0  0  0  0  0  0  0  0  0  0  0
   -6.2749   -1.6222   -5.1220 C   0  0  0  0  0  0  0  0  0  0  0  0
   -6.8181   -2.8785   -5.3058 C   0  0  0  0  0  0  0  0  0  0  0  0
   -7.2607   -3.2867   -6.5586 C   0  0  0  0  0  0  0  0  0  0  0  0
   -7.9883   -4.8480   -6.9265 S   0  0  0  0  0  0  0  0  0  0  0  0
   -7.5683   -5.8862   -5.4841 C   0  0  0  0  0  0  0  0  0  0  0  0
   -6.0887   -6.2136   -5.4198 C   0  0  0  0  0  0  0  0  0  0  0  0
   -7.1465   -2.3725   -7.6080 C   0  0  0  0  0  0  0  0  0  0  0  0
   -6.6127   -1.1158   -7.4376 C   0  0  0  0  0  0  0  0  0  0  0  0
   -7.5717   -2.7310   -8.8367 F   0  0  0  0  0  0  0  0  0  0  0  0
   -4.4064    0.8170   -5.2897 C   0  0  0  0  0  0  0  0  0  0  0  0
   -3.3859   -0.4326   -4.6246 S   0  0  0  0  0  0  0  0  0  0  0  0
   -7.5301    1.8453   -7.0561 C   0  0  0  0  0  0  0  0  0  0  0  0
   -7.9305    3.1175   -7.3367 C   0  0  0  0  0  0  0  0  0  0  0  0
   -6.7327    4.3045   -6.8414 S   0  0  0  0  0  0  0  0  0  0  0  0
   -9.1677    3.5397   -7.9344 C   0  0  0  0  0  0  0  0  0  0  0  0
   -9.5003    4.8746   -8.0801 C   0  0  0  0  0  0  0  0  0  0  0  0
  -10.7127    5.3011   -8.6229 C   0  0  0  0  0  0  0  0  0  0  0  0
  -11.6847    4.4282   -9.0772 C   0  0  0  0  0  0  0  0  0  0  0  0
  -11.3767    3.0456   -8.9715 C   0  0  0  0  0  0  0  0  0  0  0  0
  -12.1407    2.0131   -9.3315 N   0  0  0  0  0  0  0  0  0  0  0  0
  -11.3788    0.6415   -8.9916 S   0  0  0  0  0  0  0  0  0  0  0  0
  -10.0420    1.2742   -8.3660 N   0  0  0  0  0  0  0  0  0  0  0  0
  -10.1313    2.6032   -8.3941 C   0  0  0  0  0  0  0  0  0  0  0  0
  -12.9512    4.8983   -9.6254 C   0  0  0  0  0  0  0  0  0  0  0  0
  -13.6955    4.1430  -10.5098 C   0  0  0  0  0  0  0  0  0  0  0  0
  -14.9184    4.5778  -11.0468 C   0  0  0  0  0  0  0  0  0  0  0  0
  -15.4641    5.7884  -10.7194 C   0  0  0  0  0  0  0  0  0  0  0  0
  -14.7532    6.5968   -9.8189 C   0  0  0  0  0  0  0  0  0  0  0  0
  -15.1158    7.7973   -9.3639 N   0  0  0  0  0  0  0  0  0  0  0  0
  -13.9917    8.3249   -8.3485 S   0  0  0  0  0  0  0  0  0  0  0  0
  -12.9877    7.0716   -8.4329 N   0  0  0  0  0  0  0  0  0  0  0  0
  -13.4906    6.1654   -9.2721 C   0  0  0  0  0  0  0  0  0  0  0  0
    9.2333   -6.2985   13.1843 H   0  0  0  0  0  0  0  0  0  0  0  0
   10.3526   -6.1637   10.8391 H   0  0  0  0  0  0  0  0  0  0  0  0
    9.2723   -6.3843    6.5082 H   0  0  0  0  0  0  0  0  0  0  0  0
   11.4635   -6.8084    5.4780 H   0  0  0  0  0  0  0  0  0  0  0  0
   16.0268   -4.9296    5.7692 H   0  0  0  0  0  0  0  0  0  0  0  0
   15.3871   -4.5536    7.3791 H   0  0  0  0  0  0  0  0  0  0  0  0
   13.5578   -3.1933    6.3196 H   0  0  0  0  0  0  0  0  0  0  0  0
   15.1418   -2.5958    5.8221 H   0  0  0  0  0  0  0  0  0  0  0  0
   14.1871   -3.5978    4.7197 H   0  0  0  0  0  0  0  0  0  0  0  0
   11.2144   -4.1875    9.6303 H   0  0  0  0  0  0  0  0  0  0  0  0
    3.8329   -4.8657    9.0620 H   0  0  0  0  0  0  0  0  0  0  0  0
    1.6701   -4.3545   10.0368 H   0  0  0  0  0  0  0  0  0  0  0  0
   -1.2307   -3.5103   12.1465 H   0  0  0  0  0  0  0  0  0  0  0  0
   -0.2681   -3.7667   10.6856 H   0  0  0  0  0  0  0  0  0  0  0  0
   -0.9180   -5.9645   11.7113 H   0  0  0  0  0  0  0  0  0  0  0  0
    0.8336   -5.7563   11.8325 H   0  0  0  0  0  0  0  0  0  0  0  0
   -0.1862   -5.4690   13.2421 H   0  0  0  0  0  0  0  0  0  0  0  0
    5.7799   -2.7452   12.2342 H   0  0  0  0  0  0  0  0  0  0  0  0
    4.7239   -2.8764    7.9042 H   0  0  0  0  0  0  0  0  0  0  0  0
    6.5803   -3.9509    3.8248 H   0  0  0  0  0  0  0  0  0  0  0  0
    5.4082   -3.1315    1.8511 H   0  0  0  0  0  0  0  0  0  0  0  0
    3.0998   -3.0781    0.6744 H   0  0  0  0  0  0  0  0  0  0  0  0
    3.6304   -3.1651   -1.7859 H   0  0  0  0  0  0  0  0  0  0  0  0
    3.8244   -5.5214   -2.4704 H   0  0  0  0  0  0  0  0  0  0  0  0
   -0.2331   -8.2674   -2.4690 H   0  0  0  0  0  0  0  0  0  0  0  0
    0.9787   -9.5614   -2.4421 H   0  0  0  0  0  0  0  0  0  0  0  0
    0.1894   -9.0726   -0.1236 H   0  0  0  0  0  0  0  0  0  0  0  0
    0.6798   -7.3862   -0.3000 H   0  0  0  0  0  0  0  0  0  0  0  0
    1.9016   -8.6625   -0.2983 H   0  0  0  0  0  0  0  0  0  0  0  0
   -0.6294   -3.5965   -1.6667 H   0  0  0  0  0  0  0  0  0  0  0  0
    1.0616    2.3260    1.8147 H   0  0  0  0  0  0  0  0  0  0  0  0
    1.1926    4.7512    2.1677 H   0  0  0  0  0  0  0  0  0  0  0  0
    1.0401    8.8828   -0.5933 H   0  0  0  0  0  0  0  0  0  0  0  0
    1.6558    7.6940   -1.7554 H   0  0  0  0  0  0  0  0  0  0  0  0
   -0.4824    6.3995   -1.5489 H   0  0  0  0  0  0  0  0  0  0  0  0
   -1.0717    7.5612   -0.3538 H   0  0  0  0  0  0  0  0  0  0  0  0
   -0.8207    8.0648   -2.0314 H   0  0  0  0  0  0  0  0  0  0  0  0
    1.7512    2.9456   -2.3672 H   0  0  0  0  0  0  0  0  0  0  0  0
   -0.6615    2.2227   -2.2318 H   0  0  0  0  0  0  0  0  0  0  0  0
   -2.0428    2.9008   -4.1073 H   0  0  0  0  0  0  0  0  0  0  0  0
   -3.8471    4.3367   -3.1674 H   0  0  0  0  0  0  0  0  0  0  0  0
   -2.8740    6.5611   -2.7604 H   0  0  0  0  0  0  0  0  0  0  0  0
   -0.6466    8.0228   -6.1504 H   0  0  0  0  0  0  0  0  0  0  0  0
   -1.5411    9.4932   -6.6131 H   0  0  0  0  0  0  0  0  0  0  0  0
    0.6958    9.3427   -4.5222 H   0  0  0  0  0  0  0  0  0  0  0  0
    0.8493   10.0381   -6.1412 H   0  0  0  0  0  0  0  0  0  0  0  0
   -0.2029   10.8031   -4.9446 H   0  0  0  0  0  0  0  0  0  0  0  0
   -3.9914    5.2046   -7.3582 H   0  0  0  0  0  0  0  0  0  0  0  0
   -5.9570   -1.3289   -4.1334 H   0  0  0  0  0  0  0  0  0  0  0  0
   -6.9031   -3.5351   -4.4554 H   0  0  0  0  0  0  0  0  0  0  0  0
   -8.1588   -6.7887   -5.6421 H   0  0  0  0  0  0  0  0  0  0  0  0
   -7.9270   -5.3929   -4.5815 H   0  0  0  0  0  0  0  0  0  0  0  0
   -5.8891   -6.8590   -4.5666 H   0  0  0  0  0  0  0  0  0  0  0  0
   -5.7797   -6.7293   -6.3259 H   0  0  0  0  0  0  0  0  0  0  0  0
   -5.4904   -5.3106   -5.3191 H   0  0  0  0  0  0  0  0  0  0  0  0
   -6.5283   -0.4610   -8.2903 H   0  0  0  0  0  0  0  0  0  0  0  0
   -8.1489    0.9944   -7.2694 H   0  0  0  0  0  0  0  0  0  0  0  0
   -8.7924    5.6215   -7.7503 H   0  0  0  0  0  0  0  0  0  0  0  0
  -10.9011    6.3603   -8.6852 H   0  0  0  0  0  0  0  0  0  0  0  0
  -13.3215    3.1753  -10.8020 H   0  0  0  0  0  0  0  0  0  0  0  0
  -15.4345    3.9276  -11.7374 H   0  0  0  0  0  0  0  0  0  0  0  0
  -16.4034    6.1321  -11.1208 H   0  0  0  0  0  0  0  0  0  0  0  0
  1  2  2  0  0  0  0
  2  3  1  0  0  0  0
  3  4  2  0  0  0  0
  4  5  1  0  0  0  0
  5  6  2  0  0  0  0
  6  7  1  0  0  0  0
  7  8  2  0  0  0  0
  8  9  1  0  0  0  0
  9 10  1  0  0  0  0
 10 11  1  0  0  0  0
  8 12  1  0  0  0  0
 12 13  1  0  0  0  0
 12 14  2  0  0  0  0
  4 15  1  0  0  0  0
 15 16  2  0  0  0  0
 16 17  1  0  0  0  0
 17 18  1  0  0  0  0
 18 19  2  0  0  0  0
 19 20  1  0  0  0  0
 20 21  2  0  0  0  0
 21 22  1  0  0  0  0
 22 23  1  0  0  0  0
 23 24  1  0  0  0  0
 21 25  1  0  0  0  0
 25 26  2  0  0  0  0
 25 27  1  0  0  0  0
 17 28  2  0  0  0  0
 28 29  1  0  0  0  0
 16 30  1  0  0  0  0
 30 31  2  0  0  0  0
 31 32  1  0  0  0  0
 31 33  1  0  0  0  0
 33 34  2  0  0  0  0
 34 35  1  0  0  0  0
 35 36  2  0  0  0  0
 36 37  1  0  0  0  0
 37 38  2  0  0  0  0
 38 39  1  0  0  0  0
 39 40  1  0  0  0  0
 40 41  2  0  0  0  0
 36 42  1  0  0  0  0
 42 43  2  0  0  0  0
 43 44  1  0  0  0  0
 44 45  2  0  0  0  0
 45 46  1  0  0  0  0
 46 47  2  0  0  0  0
 47 48  1  0  0  0  0
 48 49  2  0  0  0  0
 49 50  1  0  0  0  0
 50 51  1  0  0  0  0
 51 52  1  0  0  0  0
 49 53  1  0  0  0  0
 53 54  1  0  0  0  0
 53 55  2  0  0  0  0
 45 56  1  0  0  0  0
 56 57  2  0  0  0  0
 57 58  1  0  0  0  0
 58 59  1  0  0  0  0
 59 60  2  0  0  0  0
 60 61  1  0  0  0  0
 61 62  2  0  0  0  0
 62 63  1  0  0  0  0
 63 64  1  0  0  0  0
 64 65  1  0  0  0  0
 62 66  1  0  0  0  0
 66 67  2  0  0  0  0
 66 68  1  0  0  0  0
 58 69  2  0  0  0  0
 69 70  1  0  0  0  0
 57 71  1  0  0  0  0
 71 72  2  0  0  0  0
 72 73  1  0  0  0  0
 72 74  1  0  0  0  0
 74 75  2  0  0  0  0
 75 76  1  0  0  0  0
 76 77  2  0  0  0  0
 77 78  1  0  0  0  0
 78 79  2  0  0  0  0
 79 80  1  0  0  0  0
 80 81  2  0  0  0  0
 81 82  1  0  0  0  0
 82 83  1  0  0  0  0
 83 84  1  0  0  0  0
 81 85  1  0  0  0  0
 85 86  1  0  0  0  0
 85 87  2  0  0  0  0
 77 88  1  0  0  0  0
 88 89  2  0  0  0  0
 89 90  1  0  0  0  0
 90 91  1  0  0  0  0
 91 92  2  0  0  0  0
 92 93  1  0  0  0  0
 93 94  2  0  0  0  0
 94 95  1  0  0  0  0
 95 96  1  0  0  0  0
 96 97  1  0  0  0  0
 94 98  1  0  0  0  0
 98 99  2  0  0  0  0
 98100  1  0  0  0  0
 90101  2  0  0  0  0
101102  1  0  0  0  0
 89103  1  0  0  0  0
103104  2  0  0  0  0
104105  1  0  0  0  0
104106  1  0  0  0  0
106107  2  0  0  0  0
107108  1  0  0  0  0
108109  2  0  0  0  0
109110  1  0  0  0  0
110111  2  0  0  0  0
111112  1  0  0  0  0
112113  1  0  0  0  0
113114  2  0  0  0  0
109115  1  0  0  0  0
115116  2  0  0  0  0
116117  1  0  0  0  0
117118  2  0  0  0  0
118119  1  0  0  0  0
119120  2  0  0  0  0
120121  1  0  0  0  0
121122  1  0  0  0  0
122123  2  0  0  0  0
 29  1  1  0  0  0  0
 41 33  1  0  0  0  0
 70 42  1  0  0  0  0
102 74  1  0  0  0  0
114106  1  0  0  0  0
123115  1  0  0  0  0
 28  3  1  0  0  0  0
 41 37  1  0  0  0  0
 69 44  1  0  0  0  0
101 76  1  0  0  0  0
114110  1  0  0  0  0
123119  1  0  0  0  0
 14  5  1  0  0  0  0
 32 15  1  0  0  0  0
 55 46  1  0  0  0  0
 73 56  1  0  0  0  0
 87 78  1  0  0  0  0
105 88  1  0  0  0  0
 26 18  1  0  0  0  0
 67 59  1  0  0  0  0
 99 91  1  0  0  0  0
  1124  1  0  0  0  0
  2125  1  0  0  0  0
  6126  1  0  0  0  0
  7127  1  0  0  0  0
 10128  1  0  0  0  0
 10129  1  0  0  0  0
 11130  1  0  0  0  0
 11131  1  0  0  0  0
 11132  1  0  0  0  0
 14133  1  0  0  0  0
 19134  1  0  0  0  0
 20135  1  0  0  0  0
 23136  1  0  0  0  0
 23137  1  0  0  0  0
 24138  1  0  0  0  0
 24139  1  0  0  0  0
 24140  1  0  0  0  0
 26141  1  0  0  0  0
 30142  1  0  0  0  0
 34143  1  0  0  0  0
 35144  1  0  0  0  0
 43145  1  0  0  0  0
 47146  1  0  0  0  0
 48147  1  0  0  0  0
 51148  1  0  0  0  0
 51149  1  0  0  0  0
 52150  1  0  0  0  0
 52151  1  0  0  0  0
 52152  1  0  0  0  0
 55153  1  0  0  0  0
 60154  1  0  0  0  0
 61155  1  0  0  0  0
 64156  1  0  0  0  0
 64157  1  0  0  0  0
 65158  1  0  0  0  0
 65159  1  0  0  0  0
 65160  1  0  0  0  0
 67161  1  0  0  0  0
 71162  1  0  0  0  0
 75163  1  0  0  0  0
 79164  1  0  0  0  0
 80165  1  0  0  0  0
 83166  1  0  0  0  0
 83167  1  0  0  0  0
 84168  1  0  0  0  0
 84169  1  0  0  0  0
 84170  1  0  0  0  0
 87171  1  0  0  0  0
 92172  1  0  0  0  0
 93173  1  0  0  0  0
 96174  1  0  0  0  0
 96175  1  0  0  0  0
 97176  1  0  0  0  0
 97177  1  0  0  0  0
 97178  1  0  0  0  0
 99179  1  0  0  0  0
103180  1  0  0  0  0
107181  1  0  0  0  0
108182  1  0  0  0  0
116183  1  0  0  0  0
117184  1  0  0  0  0
118185  1  0  0  0  0
M  END
