250

C        -15.86440       -6.64100        8.25420
C        -15.91130       -7.36990        7.07380
C        -15.08160       -7.06750        6.00600
O        -15.08410       -7.71200        4.79950
C        -15.91620       -8.83350        4.60030
C        -15.35950      -10.10310        5.24150
C        -14.18140       -5.99190        6.13140
C        -14.14440       -5.27320        7.31180
C        -14.97720       -5.58400        8.38510
O        -14.83380       -4.80380        9.49440
C        -15.66340       -5.05000       10.61040
C        -15.30970       -4.03110       11.68280
C        -13.26730       -5.63850        5.03130
C        -12.46690       -6.61160        4.45420
C        -11.55450       -6.31100        3.45370
O        -10.76330       -7.22090        2.82480
C        -10.69540       -8.55870        3.27140
C         -9.87110       -8.70930        4.54570
C        -11.41810       -4.97780        3.02380
C        -12.25300       -4.00720        3.58620
C        -13.17340       -4.31160        4.57240
O        -14.03940       -3.41960        5.13100
C        -13.96430       -2.05160        4.79310
C        -12.80020       -1.33520        5.47390
C        -10.40260       -4.60150        2.06750
C        -10.14060       -3.35280        1.57860
C         -8.99720       -3.28270        0.74760
C         -8.42200       -2.14510        0.15820
C         -8.92550       -0.78460        0.38280
C         -9.16660       -0.30790        1.67100
C         -9.55800        0.99760        1.87510
C         -9.70970        1.88860        0.81300
S        -10.11370        3.55990        1.22980
C        -11.16880        4.15540       -0.14220
C        -12.40920        3.30400       -0.32120
C         -9.45640        1.40230       -0.46500
F         -9.55260        2.20600       -1.54860
C         -9.09040        0.09040       -0.68590
C         -7.27480       -2.35180       -0.59110
C         -6.66000       -3.61780       -0.75920
C         -7.23530       -4.75170       -0.16180
C         -6.61130       -6.07690       -0.25200
C         -5.26270       -6.25970        0.03950
C         -4.67720       -7.50990       -0.02300
C         -5.42430       -8.62850       -0.37220
S         -4.81430      -10.27570       -0.51040
C         -3.12560      -10.19630        0.17840
C         -3.12350      -10.07010        1.69050
C         -6.77660       -8.43090       -0.65880
C         -7.37060       -7.19130       -0.60440
F         -7.53160       -9.49440       -1.00430
C         -8.40030       -4.55480        0.56820
S         -9.25890       -5.77970        1.46430
C         -5.45690       -3.52390       -1.50930
C         -5.12920       -2.24820       -1.85620
S         -6.33690       -1.08550       -1.33420
C         -3.93440       -1.73720       -2.44090
C         -3.64160       -0.41550       -2.59760
C         -2.30850       -0.16960       -3.00000
C         -1.67440        1.08030       -3.07770
C         -2.48180        2.29690       -2.91020
C         -3.58700        2.49940       -3.73570
C         -4.42350        3.57770       -3.53820
C         -4.19320        4.47550       -2.50300
S         -5.33420        5.81470       -2.25090
C         -5.92500        5.42350       -0.56110
C         -6.67890        4.10900       -0.51900
C         -3.06340        4.28840       -1.71450
F         -2.78730        5.14790       -0.71370
C         -2.21030        3.21830       -1.90580
C         -0.30530        1.06690       -3.27330
C          0.42550       -0.13050       -3.49100
C         -0.21980       -1.38110       -3.45670
C          0.51980       -2.63160       -3.66200
C          1.70800       -2.89330       -2.98280
C          2.42130       -4.05250       -3.21350
C          1.97410       -4.99470       -4.13330
S          2.81520       -6.49920       -4.50730
C          4.57270       -6.07620       -4.22980
C          5.05610       -4.99340       -5.17390
C          0.75910       -4.74310       -4.77110
C          0.03820       -3.59020       -4.55090
F          0.27740       -5.64500       -5.64720
C         -1.57870       -1.36860       -3.18190
S         -2.58250       -2.76790       -2.87300
C          1.80350        0.13100       -3.68240
C          2.13820        1.44830       -3.54950
S          0.73930        2.46240       -3.26870
C          3.46530        1.97480       -3.49510
C          4.62060        1.30360       -3.77500
C          5.79090        2.02630       -3.44160
C          7.12540        1.60990       -3.57030
C          7.48890        0.26250       -4.02430
C          6.91560       -0.86550       -3.43740
C          7.32830       -2.13050       -3.79470
C          8.31700       -2.32410       -4.75770
S          8.78880       -3.98320       -5.14040
C         10.59850       -3.84430       -5.42780
C         11.25710       -5.16620       -5.08880
C          8.84740       -1.19150       -5.36720
F          9.76910       -1.30620       -6.35010
C          8.46120        0.08160       -5.00200
C          8.09660        2.50710       -3.15630
C          7.80140        3.77400       -2.59520
C          6.46650        4.19880       -2.48660
C          6.13340        5.51510       -1.92980
C          6.75170        6.66670       -2.40850
C          6.44580        7.91080       -1.89200
C          5.51050        8.04790       -0.87240
S          5.05360        9.56200       -0.09800
C          5.65440       10.85060       -1.24410
C          4.86230       10.88370       -2.53710
C          4.90490        6.88290       -0.39630
C          5.19450        5.63850       -0.90770
F          4.01020        6.97480        0.60620
C          5.49220        3.30610       -2.90950
S          3.76960        3.57450       -2.85190
C          8.96960        4.42080       -2.11120
C         10.11030        3.70390       -2.30780
S          9.80800        2.18260       -3.12950
C         11.44490        3.99390       -1.89730
C         12.55620        3.27600       -2.21940
C         13.74010        3.74330       -1.59680
C         15.04060        3.23310       -1.73360
C         15.28540        2.04470       -2.55940
C         16.26120        2.03590       -3.55360
C         16.40970        0.94190       -4.38030
C         15.60740       -0.18780       -4.23890
S         15.85070       -1.52900       -5.36740
C         14.13780       -2.02710       -5.79320
C         13.32160       -0.86800       -6.32780
C         14.68550       -0.19230       -3.19660
F         13.91690       -1.27890       -2.95700
C         14.50930        0.90300       -2.37760
C         16.04440        3.90540       -1.05260
C         15.79850        5.03180       -0.22950
C         14.49680        5.53750       -0.08950
C         14.20630        6.70450        0.75300
C         13.20120        6.65490        1.71380
C         12.91810        7.74630        2.51190
C         13.63250        8.93110        2.37720
S         13.36760       10.40240        3.30840
C         12.28990        9.87780        4.68590
C         13.02530        9.02320        5.70080
C         14.62900        8.97060        1.39930
C         14.92300        7.88970        0.59960
F         15.33240       10.10840        1.22790
C         13.49420        4.87450       -0.78190
S         11.80430        5.32110       -0.81000
C         16.99160        5.47760        0.41430
C         18.07270        4.74240        0.08590
S         17.72980        3.45690       -1.02110
H        -16.53050       -6.91900        9.05570
H        -16.62090       -8.18000        7.01260
H        -15.95010       -8.95410        3.51340
H        -16.93520       -8.63330        4.95370
H        -15.26460       -9.98470        6.31820
H        -14.37620      -10.32360        4.83300
H        -16.02090      -10.93980        5.03440
H        -13.45380       -4.45360        7.42200
H        -15.49840       -6.06950       10.98810
H        -16.72060       -4.94890       10.32620
H        -15.93060       -4.18540       12.56070
H        -15.46900       -3.02540       11.30380
H        -14.26450       -4.13390       11.96080
H        -12.57010       -7.62060        4.81570
H        -11.70370       -8.96950        3.40180
H        -10.20820       -9.08920        2.44850
H         -8.87100       -8.31550        4.38210
H         -9.79760       -9.76000        4.81240
H        -10.32560       -8.16540        5.37040
H        -12.15890       -2.99610        3.23000
H        -14.91060       -1.63660        5.15140
H        -13.92310       -1.91890        3.70430
H        -11.84730       -1.76200        5.17040
H        -12.89090       -1.43220        6.55280
H        -12.81490       -0.28070        5.21170
H        -10.73970       -2.48680        1.79090
H         -9.01850       -0.96080        2.51760
H         -9.73790        1.36330        2.87450
H        -10.57440        4.20680       -1.05150
H        -11.42820        5.16740        0.16930
H        -12.14610        2.29340       -0.62730
H        -12.97290        3.24890        0.60800
H        -13.04330        3.74000       -1.09040
H         -8.92870       -0.23330       -1.70220
H         -4.66370       -5.41530        0.34580
H         -3.62730       -7.60070        0.20320
H         -2.58750       -9.38560       -0.31100
H         -2.68010      -11.14200       -0.13030
H         -3.62140       -9.15670        2.00900
H         -3.64280      -10.91490        2.13670
H         -2.09970      -10.05600        2.05980
H         -8.41640       -7.09900       -0.84940
H         -4.84650       -4.36940       -1.77210
H         -4.34490        0.36510       -2.36890
H         -3.78930        1.79940       -4.53230
H         -5.28430        3.72950       -4.17050
H         -6.57750        6.25940       -0.31110
H         -5.06910        5.42660        0.11140
H         -6.01910        3.27260       -0.74610
H         -7.10040        3.95740        0.47320
H         -7.48910        4.11290       -1.24480
H         -1.35740        3.10220       -1.25540
H          2.06390       -2.19310       -2.24220
H          3.33260       -4.22710       -2.66350
H          4.71400       -5.80930       -3.18320
H          5.08930       -7.01640       -4.42040
H          6.12740       -4.84480       -5.05300
H          4.54800       -4.05030       -4.98030
H          4.86320       -5.28190       -6.20440
H         -0.88040       -3.43510       -5.09440
H          2.52600       -0.63600       -3.88880
H          4.64150        0.32340       -4.21400
H          6.17390       -0.74340       -2.66280
H          6.90260       -2.99930       -3.31740
H         10.96160       -3.04600       -4.78200
H         10.75880       -3.58060       -6.47240
H         10.85810       -5.96320       -5.71230
H         12.32940       -5.09500       -5.25790
H         11.08380       -5.42340       -4.04620
H          8.90980        0.92360       -5.50560
H          7.46980        6.59050       -3.21130
H          6.95200        8.77600       -2.28840
H          5.51570       11.77350       -0.68090
H          6.72100       10.70440       -1.40970
H          3.80940       11.05590       -2.32690
H          5.22660       11.68780       -3.17370
H          4.95380        9.94360       -3.07720
H          4.70210        4.77410       -0.49160
H          8.96050        5.36950       -1.60480
H         12.52550        2.44320       -2.89860
H         16.87950        2.90710       -3.70400
H         17.14650        0.94920       -5.16810
H         13.67730       -2.48320       -4.91940
H         14.28390       -2.79060       -6.55710
H         13.82270       -0.40830       -7.17690
H         13.17500       -0.10860       -5.56160
H         12.34430       -1.22110       -6.64880
H         13.78090        0.84630       -1.58320
H         12.64080        5.74330        1.85370
H         12.12720        7.66390        3.23920
H         11.97280       10.82050        5.13190
H         11.41370        9.37880        4.27420
H         13.87440        9.56930        6.10500
H         13.39330        8.10500        5.24770
H         12.35680        8.76340        6.51940
H         15.69170        7.98350       -0.15150
H         17.01900        6.30230        1.10290
H         19.08190        4.86640        0.42690
