
  xtb     03042220053D
 energy: -444.510195593193 gnorm: 0.000658211782 xtb: 6.4.1 (unknown)
250273  0     0  0            999 V2000
  -13.0331   -0.8085   15.5232 C   0  0  0  0  0  0  0  0  0  0  0  0
  -12.0315    0.0773   15.3507 C   0  0  0  0  0  0  0  0  0  0  0  0
  -11.4008   -0.0416   14.0765 C   0  0  0  0  0  0  0  0  0  0  0  0
  -10.3278    0.7038   13.5676 C   0  0  0  0  0  0  0  0  0  0  0  0
   -9.6979    1.7705   14.3607 C   0  0  0  0  0  0  0  0  0  0  0  0
   -9.1765    1.5140   15.6264 C   0  0  0  0  0  0  0  0  0  0  0  0
   -8.6234    2.5343   16.3753 C   0  0  0  0  0  0  0  0  0  0  0  0
   -8.5814    3.8322   15.8862 C   0  0  0  0  0  0  0  0  0  0  0  0
   -7.9258    5.1458   16.9037 S   0  0  0  0  0  0  0  0  0  0  0  0
   -6.1761    5.1134   16.3609 C   0  0  0  0  0  0  0  0  0  0  0  0
   -5.9932    5.6315   14.9484 C   0  0  0  0  0  0  0  0  0  0  0  0
   -9.0997    4.0774   14.6213 C   0  0  0  0  0  0  0  0  0  0  0  0
   -9.0875    5.3228   14.1140 F   0  0  0  0  0  0  0  0  0  0  0  0
   -9.6422    3.0644   13.8541 C   0  0  0  0  0  0  0  0  0  0  0  0
   -9.9128    0.4020   12.2809 C   0  0  0  0  0  0  0  0  0  0  0  0
  -10.5162   -0.6063   11.4892 C   0  0  0  0  0  0  0  0  0  0  0  0
  -11.5822   -1.3622   12.0013 C   0  0  0  0  0  0  0  0  0  0  0  0
  -12.1985   -2.4383   11.2171 C   0  0  0  0  0  0  0  0  0  0  0  0
  -11.4153   -3.4176   10.6123 C   0  0  0  0  0  0  0  0  0  0  0  0
  -11.9837   -4.4346    9.8700 C   0  0  0  0  0  0  0  0  0  0  0  0
  -13.3623   -4.5110    9.7062 C   0  0  0  0  0  0  0  0  0  0  0  0
  -14.2251   -5.7248    8.7688 S   0  0  0  0  0  0  0  0  0  0  0  0
  -12.9469   -6.9454    8.3118 C   0  0  0  0  0  0  0  0  0  0  0  0
  -12.5405   -7.8223    9.4814 C   0  0  0  0  0  0  0  0  0  0  0  0
  -14.1355   -3.5235   10.3219 C   0  0  0  0  0  0  0  0  0  0  0  0
  -13.5822   -2.5064   11.0651 C   0  0  0  0  0  0  0  0  0  0  0  0
  -15.4752   -3.5610   10.1778 F   0  0  0  0  0  0  0  0  0  0  0  0
  -12.0046   -1.0494   13.2866 C   0  0  0  0  0  0  0  0  0  0  0  0
  -13.2929   -1.8394   14.1587 S   0  0  0  0  0  0  0  0  0  0  0  0
   -9.9200   -0.6929   10.2041 C   0  0  0  0  0  0  0  0  0  0  0  0
   -8.8731    0.1592   10.0272 C   0  0  0  0  0  0  0  0  0  0  0  0
   -8.5808    1.1568   11.4419 S   0  0  0  0  0  0  0  0  0  0  0  0
   -8.0435    0.2906    8.8741 C   0  0  0  0  0  0  0  0  0  0  0  0
   -6.8694    0.9721    8.7670 C   0  0  0  0  0  0  0  0  0  0  0  0
   -6.2722    0.8855    7.4831 C   0  0  0  0  0  0  0  0  0  0  0  0
   -5.0642    1.4560    7.0498 C   0  0  0  0  0  0  0  0  0  0  0  0
   -4.2566    2.2871    7.9500 C   0  0  0  0  0  0  0  0  0  0  0  0
   -4.8360    3.3223    8.6817 C   0  0  0  0  0  0  0  0  0  0  0  0
   -4.0895    4.0671    9.5717 C   0  0  0  0  0  0  0  0  0  0  0  0
   -2.7399    3.7981    9.7691 C   0  0  0  0  0  0  0  0  0  0  0  0
   -1.7286    4.6835   10.9162 S   0  0  0  0  0  0  0  0  0  0  0  0
   -2.8710    4.9042   12.3284 C   0  0  0  0  0  0  0  0  0  0  0  0
   -3.3358    3.5727   12.8856 C   0  0  0  0  0  0  0  0  0  0  0  0
   -2.1616    2.7899    9.0002 C   0  0  0  0  0  0  0  0  0  0  0  0
   -0.8545    2.5106    9.1522 F   0  0  0  0  0  0  0  0  0  0  0  0
   -2.8948    2.0405    8.1056 C   0  0  0  0  0  0  0  0  0  0  0  0
   -4.6724    1.1722    5.7481 C   0  0  0  0  0  0  0  0  0  0  0  0
   -5.4477    0.3806    4.8651 C   0  0  0  0  0  0  0  0  0  0  0  0
   -6.6691   -0.1706    5.2911 C   0  0  0  0  0  0  0  0  0  0  0  0
   -7.5142   -0.9501    4.3788 C   0  0  0  0  0  0  0  0  0  0  0  0
   -7.8693   -0.4397    3.1333 C   0  0  0  0  0  0  0  0  0  0  0  0
   -8.6842   -1.1528    2.2753 C   0  0  0  0  0  0  0  0  0  0  0  0
   -9.1682   -2.4075    2.6290 C   0  0  0  0  0  0  0  0  0  0  0  0
  -10.1768   -3.4351    1.6122 S   0  0  0  0  0  0  0  0  0  0  0  0
  -10.8493   -2.2933    0.3555 C   0  0  0  0  0  0  0  0  0  0  0  0
  -11.8362   -1.3048    0.9462 C   0  0  0  0  0  0  0  0  0  0  0  0
   -8.7961   -2.9094    3.8771 C   0  0  0  0  0  0  0  0  0  0  0  0
   -7.9935   -2.2052    4.7461 C   0  0  0  0  0  0  0  0  0  0  0  0
   -9.2352   -4.1287    4.2506 F   0  0  0  0  0  0  0  0  0  0  0  0
   -7.0378    0.0791    6.6023 C   0  0  0  0  0  0  0  0  0  0  0  0
   -8.4861   -0.5117    7.3790 S   0  0  0  0  0  0  0  0  0  0  0  0
   -4.8180    0.2196    3.6086 C   0  0  0  0  0  0  0  0  0  0  0  0
   -3.6255    0.8759    3.4948 C   0  0  0  0  0  0  0  0  0  0  0  0
   -3.2199    1.7297    4.9772 S   0  0  0  0  0  0  0  0  0  0  0  0
   -2.7357    0.8996    2.3562 C   0  0  0  0  0  0  0  0  0  0  0  0
   -1.4474    1.4088    2.4490 C   0  0  0  0  0  0  0  0  0  0  0  0
   -0.9891    1.9104    3.6084 F   0  0  0  0  0  0  0  0  0  0  0  0
   -0.5442    1.3938    1.3804 C   0  0  0  0  0  0  0  0  0  0  0  0
    0.7001    1.8367    1.6066 F   0  0  0  0  0  0  0  0  0  0  0  0
   -0.8858    0.8877    0.1466 C   0  0  0  0  0  0  0  0  0  0  0  0
   -2.2040    0.3990   -0.0097 C   0  0  0  0  0  0  0  0  0  0  0  0
   -2.5783   -0.0457   -1.2279 N   0  0  0  0  0  0  0  0  0  0  0  0
   -3.7752   -0.5456   -1.3692 C   0  0  0  0  0  0  0  0  0  0  0  0
   -4.1714   -1.0164   -2.5495 O   0  0  0  0  0  0  0  0  0  0  0  0
   -3.2110   -0.9610   -3.6013 C   0  0  0  0  0  0  0  0  0  0  0  0
   -3.7925   -1.6620   -4.8148 C   0  0  0  0  0  0  0  0  0  0  0  0
   -4.6967   -0.5993   -0.2724 C   0  0  0  0  0  0  0  0  0  0  0  0
   -4.3523   -0.1253    0.8881 N   0  0  0  0  0  0  0  0  0  0  0  0
   -3.1147    0.3856    1.0770 C   0  0  0  0  0  0  0  0  0  0  0  0
   -6.0559   -1.1825   -0.4476 C   0  0  0  0  0  0  0  0  0  0  0  0
    0.0780    0.8065   -0.9529 C   0  0  0  0  0  0  0  0  0  0  0  0
    0.7825    1.9024   -1.4027 C   0  0  0  0  0  0  0  0  0  0  0  0
    0.5584    3.1117   -0.8697 F   0  0  0  0  0  0  0  0  0  0  0  0
    1.7178    1.8085   -2.4395 C   0  0  0  0  0  0  0  0  0  0  0  0
    2.3385    2.9461   -2.7913 F   0  0  0  0  0  0  0  0  0  0  0  0
    1.9890    0.6149   -3.0958 C   0  0  0  0  0  0  0  0  0  0  0  0
    1.2326   -0.5172   -2.6748 C   0  0  0  0  0  0  0  0  0  0  0  0
    1.4030   -1.6957   -3.3119 N   0  0  0  0  0  0  0  0  0  0  0  0
    0.7236   -2.7389   -2.9093 C   0  0  0  0  0  0  0  0  0  0  0  0
    0.8011   -3.9179   -3.5154 O   0  0  0  0  0  0  0  0  0  0  0  0
    1.7202   -4.0751   -4.5932 C   0  0  0  0  0  0  0  0  0  0  0  0
    3.1411   -4.2742   -4.0854 C   0  0  0  0  0  0  0  0  0  0  0  0
   -0.1539   -2.6601   -1.7716 C   0  0  0  0  0  0  0  0  0  0  0  0
   -0.3258   -1.5317   -1.1558 N   0  0  0  0  0  0  0  0  0  0  0  0
    0.3166   -0.4278   -1.5999 C   0  0  0  0  0  0  0  0  0  0  0  0
   -0.8660   -3.8740   -1.2857 C   0  0  0  0  0  0  0  0  0  0  0  0
    2.9827    0.4924   -4.1333 C   0  0  0  0  0  0  0  0  0  0  0  0
    3.9059    1.4112   -4.5485 C   0  0  0  0  0  0  0  0  0  0  0  0
    4.7705    0.9388   -5.5672 C   0  0  0  0  0  0  0  0  0  0  0  0
    5.8600    1.6093   -6.1515 C   0  0  0  0  0  0  0  0  0  0  0  0
    6.1735    3.0090   -5.8445 C   0  0  0  0  0  0  0  0  0  0  0  0
    7.4650    3.3951   -5.4987 C   0  0  0  0  0  0  0  0  0  0  0  0
    7.7759    4.7192   -5.2598 C   0  0  0  0  0  0  0  0  0  0  0  0
    6.8083    5.7104   -5.3782 C   0  0  0  0  0  0  0  0  0  0  0  0
    7.0717    7.4316   -5.1207 S   0  0  0  0  0  0  0  0  0  0  0  0
    8.8883    7.6164   -5.1682 C   0  0  0  0  0  0  0  0  0  0  0  0
    9.4567    7.3903   -6.5564 C   0  0  0  0  0  0  0  0  0  0  0  0
    5.5126    5.3065   -5.7093 C   0  0  0  0  0  0  0  0  0  0  0  0
    4.5478    6.2391   -5.8288 F   0  0  0  0  0  0  0  0  0  0  0  0
    5.1859    3.9889   -5.9349 C   0  0  0  0  0  0  0  0  0  0  0  0
    6.6189    0.8824   -7.0558 C   0  0  0  0  0  0  0  0  0  0  0  0
    6.3166   -0.4529   -7.4229 C   0  0  0  0  0  0  0  0  0  0  0  0
    5.2246   -1.1194   -6.8420 C   0  0  0  0  0  0  0  0  0  0  0  0
    4.9214   -2.5132   -7.1872 C   0  0  0  0  0  0  0  0  0  0  0  0
    5.9217   -3.4863   -7.1964 C   0  0  0  0  0  0  0  0  0  0  0  0
    5.6431   -4.7835   -7.5733 C   0  0  0  0  0  0  0  0  0  0  0  0
    4.3565   -5.1662   -7.9455 C   0  0  0  0  0  0  0  0  0  0  0  0
    4.1254   -6.8189   -8.5480 S   0  0  0  0  0  0  0  0  0  0  0  0
    2.6557   -7.4109   -7.6322 C   0  0  0  0  0  0  0  0  0  0  0  0
    2.9601   -7.5993   -6.1593 C   0  0  0  0  0  0  0  0  0  0  0  0
    3.3627   -4.1936   -7.9069 C   0  0  0  0  0  0  0  0  0  0  0  0
    3.6275   -2.8924   -7.5305 C   0  0  0  0  0  0  0  0  0  0  0  0
    2.0910   -4.4950   -8.2542 F   0  0  0  0  0  0  0  0  0  0  0  0
    4.4719   -0.3977   -5.9278 C   0  0  0  0  0  0  0  0  0  0  0  0
    3.1317   -1.0175   -5.0023 S   0  0  0  0  0  0  0  0  0  0  0  0
    7.2093   -0.9437   -8.4044 C   0  0  0  0  0  0  0  0  0  0  0  0
    8.1822   -0.0539   -8.7584 C   0  0  0  0  0  0  0  0  0  0  0  0
    8.0204    1.4709   -7.9168 S   0  0  0  0  0  0  0  0  0  0  0  0
    9.2705   -0.3173   -9.6454 C   0  0  0  0  0  0  0  0  0  0  0  0
    9.4786   -1.4793  -10.3286 C   0  0  0  0  0  0  0  0  0  0  0  0
   10.6986   -1.5100  -11.0465 C   0  0  0  0  0  0  0  0  0  0  0  0
   11.2076   -2.5624  -11.8261 C   0  0  0  0  0  0  0  0  0  0  0  0
   10.4947   -3.8428  -11.8903 C   0  0  0  0  0  0  0  0  0  0  0  0
   10.2183   -4.4785  -13.0995 C   0  0  0  0  0  0  0  0  0  0  0  0
    9.4792   -5.6411  -13.1267 C   0  0  0  0  0  0  0  0  0  0  0  0
    8.9890   -6.2289  -11.9588 C   0  0  0  0  0  0  0  0  0  0  0  0
    8.0507   -7.7108  -12.1568 S   0  0  0  0  0  0  0  0  0  0  0  0
    6.8471   -7.7372  -10.7704 C   0  0  0  0  0  0  0  0  0  0  0  0
    7.2419   -8.6976   -9.6670 C   0  0  0  0  0  0  0  0  0  0  0  0
    9.3203   -5.6120  -10.7564 C   0  0  0  0  0  0  0  0  0  0  0  0
    8.9348   -6.1324   -9.5672 F   0  0  0  0  0  0  0  0  0  0  0  0
   10.0504   -4.4426  -10.7150 C   0  0  0  0  0  0  0  0  0  0  0  0
   12.4038   -2.3193  -12.4850 C   0  0  0  0  0  0  0  0  0  0  0  0
   13.1140   -1.0982  -12.3716 C   0  0  0  0  0  0  0  0  0  0  0  0
   12.6147   -0.0576  -11.5736 C   0  0  0  0  0  0  0  0  0  0  0  0
   13.3205    1.2224  -11.4333 C   0  0  0  0  0  0  0  0  0  0  0  0
   13.5831    1.7602  -10.1746 C   0  0  0  0  0  0  0  0  0  0  0  0
   14.2433    2.9632  -10.0492 C   0  0  0  0  0  0  0  0  0  0  0  0
   14.6529    3.6873  -11.1673 C   0  0  0  0  0  0  0  0  0  0  0  0
   15.4411    5.2435  -10.8755 S   0  0  0  0  0  0  0  0  0  0  0  0
   16.7571    5.3278  -12.1458 C   0  0  0  0  0  0  0  0  0  0  0  0
   17.7100    4.1532  -12.0550 C   0  0  0  0  0  0  0  0  0  0  0  0
   14.3559    3.1533  -12.4176 C   0  0  0  0  0  0  0  0  0  0  0  0
   13.7183    1.9372  -12.5582 C   0  0  0  0  0  0  0  0  0  0  0  0
   14.6809    3.8155  -13.5506 F   0  0  0  0  0  0  0  0  0  0  0  0
   11.4139   -0.2948  -10.9202 C   0  0  0  0  0  0  0  0  0  0  0  0
   10.5687    0.8320   -9.8887 S   0  0  0  0  0  0  0  0  0  0  0  0
   14.3456   -1.1423  -13.0914 C   0  0  0  0  0  0  0  0  0  0  0  0
   14.5473   -2.3183  -13.7186 C   0  0  0  0  0  0  0  0  0  0  0  0
   13.2679   -3.4594  -13.4839 S   0  0  0  0  0  0  0  0  0  0  0  0
  -13.6640   -0.9297   16.3821 H   0  0  0  0  0  0  0  0  0  0  0  0
  -11.7415    0.8044   16.0874 H   0  0  0  0  0  0  0  0  0  0  0  0
   -9.1995    0.5084   16.0186 H   0  0  0  0  0  0  0  0  0  0  0  0
   -8.2260    2.3382   17.3595 H   0  0  0  0  0  0  0  0  0  0  0  0
   -5.6701    5.7546   17.0820 H   0  0  0  0  0  0  0  0  0  0  0  0
   -5.8140    4.0907   16.4719 H   0  0  0  0  0  0  0  0  0  0  0  0
   -4.9332    5.7595   14.7355 H   0  0  0  0  0  0  0  0  0  0  0  0
   -6.4890    6.5925   14.8330 H   0  0  0  0  0  0  0  0  0  0  0  0
   -6.4127    4.9381   14.2219 H   0  0  0  0  0  0  0  0  0  0  0  0
  -10.0439    3.2987   12.8807 H   0  0  0  0  0  0  0  0  0  0  0  0
  -10.3437   -3.3976   10.7424 H   0  0  0  0  0  0  0  0  0  0  0  0
  -11.3366   -5.1657    9.4140 H   0  0  0  0  0  0  0  0  0  0  0  0
  -12.1039   -6.4176    7.8683 H   0  0  0  0  0  0  0  0  0  0  0  0
  -13.4291   -7.5389    7.5349 H   0  0  0  0  0  0  0  0  0  0  0  0
  -13.4060   -8.3550    9.8684 H   0  0  0  0  0  0  0  0  0  0  0  0
  -12.1160   -7.2298   10.2891 H   0  0  0  0  0  0  0  0  0  0  0  0
  -11.7997   -8.5507    9.1573 H   0  0  0  0  0  0  0  0  0  0  0  0
  -14.2312   -1.7640   11.5014 H   0  0  0  0  0  0  0  0  0  0  0  0
  -10.2587   -1.3605    9.4323 H   0  0  0  0  0  0  0  0  0  0  0  0
   -6.4320    1.4986    9.5963 H   0  0  0  0  0  0  0  0  0  0  0  0
   -5.8781    3.5622    8.5338 H   0  0  0  0  0  0  0  0  0  0  0  0
   -4.5625    4.8684   10.1174 H   0  0  0  0  0  0  0  0  0  0  0  0
   -2.2708    5.4480   13.0576 H   0  0  0  0  0  0  0  0  0  0  0  0
   -3.7047    5.5345   12.0216 H   0  0  0  0  0  0  0  0  0  0  0  0
   -3.9299    3.7281   13.7835 H   0  0  0  0  0  0  0  0  0  0  0  0
   -2.4790    2.9522   13.1381 H   0  0  0  0  0  0  0  0  0  0  0  0
   -3.9446    3.0409   12.1565 H   0  0  0  0  0  0  0  0  0  0  0  0
   -2.4029    1.2497    7.5623 H   0  0  0  0  0  0  0  0  0  0  0  0
   -7.5180    0.5375    2.8389 H   0  0  0  0  0  0  0  0  0  0  0  0
   -8.9417   -0.7193    1.3223 H   0  0  0  0  0  0  0  0  0  0  0  0
  -10.0204   -1.8036   -0.1545 H   0  0  0  0  0  0  0  0  0  0  0  0
  -11.3441   -2.9596   -0.3511 H   0  0  0  0  0  0  0  0  0  0  0  0
  -11.3581   -0.6713    1.6905 H   0  0  0  0  0  0  0  0  0  0  0  0
  -12.2426   -0.6719    0.1597 H   0  0  0  0  0  0  0  0  0  0  0  0
  -12.6561   -1.8350    1.4247 H   0  0  0  0  0  0  0  0  0  0  0  0
   -7.7333   -2.6472    5.6947 H   0  0  0  0  0  0  0  0  0  0  0  0
   -5.2192   -0.3792    2.8148 H   0  0  0  0  0  0  0  0  0  0  0  0
   -2.9797    0.0882   -3.8180 H   0  0  0  0  0  0  0  0  0  0  0  0
   -2.2881   -1.4440   -3.2618 H   0  0  0  0  0  0  0  0  0  0  0  0
   -3.0803   -1.6244   -5.6337 H   0  0  0  0  0  0  0  0  0  0  0  0
   -4.7138   -1.1754   -5.1227 H   0  0  0  0  0  0  0  0  0  0  0  0
   -4.0104   -2.7006   -4.5806 H   0  0  0  0  0  0  0  0  0  0  0  0
   -6.6216   -0.5880   -1.1636 H   0  0  0  0  0  0  0  0  0  0  0  0
   -6.5735   -1.2036    0.5071 H   0  0  0  0  0  0  0  0  0  0  0  0
   -5.9755   -2.1907   -0.8496 H   0  0  0  0  0  0  0  0  0  0  0  0
    1.6682   -3.2014   -5.2466 H   0  0  0  0  0  0  0  0  0  0  0  0
    1.3652   -4.9594   -5.1275 H   0  0  0  0  0  0  0  0  0  0  0  0
    3.8218   -4.3786   -4.9256 H   0  0  0  0  0  0  0  0  0  0  0  0
    3.1988   -5.1614   -3.4589 H   0  0  0  0  0  0  0  0  0  0  0  0
    3.4484   -3.4101   -3.5033 H   0  0  0  0  0  0  0  0  0  0  0  0
   -0.1454   -4.6411   -1.0076 H   0  0  0  0  0  0  0  0  0  0  0  0
   -1.4793   -3.6151   -0.4278 H   0  0  0  0  0  0  0  0  0  0  0  0
   -1.4885   -4.2820   -2.0804 H   0  0  0  0  0  0  0  0  0  0  0  0
    4.0092    2.3927   -4.1273 H   0  0  0  0  0  0  0  0  0  0  0  0
    8.2361    2.6474   -5.3930 H   0  0  0  0  0  0  0  0  0  0  0  0
    8.7844    4.9720   -4.9765 H   0  0  0  0  0  0  0  0  0  0  0  0
    9.3277    6.9538   -4.4236 H   0  0  0  0  0  0  0  0  0  0  0  0
    9.0448    8.6467   -4.8486 H   0  0  0  0  0  0  0  0  0  0  0  0
    9.2525    6.3801   -6.9050 H   0  0  0  0  0  0  0  0  0  0  0  0
    9.0150    8.0912   -7.2608 H   0  0  0  0  0  0  0  0  0  0  0  0
   10.5344    7.5422   -6.5441 H   0  0  0  0  0  0  0  0  0  0  0  0
    4.1741    3.7379   -6.2121 H   0  0  0  0  0  0  0  0  0  0  0  0
    6.9221   -3.2259   -6.8869 H   0  0  0  0  0  0  0  0  0  0  0  0
    6.4260   -5.5262   -7.5931 H   0  0  0  0  0  0  0  0  0  0  0  0
    1.8353   -6.7170   -7.7972 H   0  0  0  0  0  0  0  0  0  0  0  0
    2.4178   -8.3606   -8.1109 H   0  0  0  0  0  0  0  0  0  0  0  0
    3.2620   -6.6575   -5.7061 H   0  0  0  0  0  0  0  0  0  0  0  0
    3.7655   -8.3187   -6.0273 H   0  0  0  0  0  0  0  0  0  0  0  0
    2.0759   -7.9678   -5.6429 H   0  0  0  0  0  0  0  0  0  0  0  0
    2.8255   -2.1719   -7.5497 H   0  0  0  0  0  0  0  0  0  0  0  0
    7.1241   -1.9230   -8.8363 H   0  0  0  0  0  0  0  0  0  0  0  0
    8.7727   -2.2882  -10.3375 H   0  0  0  0  0  0  0  0  0  0  0  0
   10.5550   -4.0392  -14.0254 H   0  0  0  0  0  0  0  0  0  0  0  0
    9.2506   -6.1180  -14.0669 H   0  0  0  0  0  0  0  0  0  0  0  0
    5.9127   -8.0510  -11.2356 H   0  0  0  0  0  0  0  0  0  0  0  0
    6.7282   -6.7199  -10.4066 H   0  0  0  0  0  0  0  0  0  0  0  0
    8.1787   -8.3983   -9.2056 H   0  0  0  0  0  0  0  0  0  0  0  0
    7.3540   -9.7043  -10.0630 H   0  0  0  0  0  0  0  0  0  0  0  0
    6.4640   -8.7024   -8.9067 H   0  0  0  0  0  0  0  0  0  0  0  0
   10.2923   -4.0207   -9.7514 H   0  0  0  0  0  0  0  0  0  0  0  0
   13.2914    1.2173   -9.2892 H   0  0  0  0  0  0  0  0  0  0  0  0
   14.4567    3.3695   -9.0730 H   0  0  0  0  0  0  0  0  0  0  0  0
   17.2648    6.2642  -11.9142 H   0  0  0  0  0  0  0  0  0  0  0  0
   16.2982    5.4075  -13.1288 H   0  0  0  0  0  0  0  0  0  0  0  0
   18.1288    4.0778  -11.0536 H   0  0  0  0  0  0  0  0  0  0  0  0
   17.1995    3.2202  -12.2867 H   0  0  0  0  0  0  0  0  0  0  0  0
   18.5230    4.2850  -12.7658 H   0  0  0  0  0  0  0  0  0  0  0  0
   13.5015    1.5763  -13.5520 H   0  0  0  0  0  0  0  0  0  0  0  0
   15.0467   -0.3281  -13.1130 H   0  0  0  0  0  0  0  0  0  0  0  0
   15.3854   -2.6076  -14.3223 H   0  0  0  0  0  0  0  0  0  0  0  0
  1  2  2  0  0  0  0
  2  3  1  0  0  0  0
  3  4  2  0  0  0  0
  4  5  1  0  0  0  0
  5  6  2  0  0  0  0
  6  7  1  0  0  0  0
  7  8  2  0  0  0  0
  8  9  1  0  0  0  0
  9 10  1  0  0  0  0
 10 11  1  0  0  0  0
  8 12  1  0  0  0  0
 12 13  1  0  0  0  0
 12 14  2  0  0  0  0
  4 15  1  0  0  0  0
 15 16  2  0  0  0  0
 16 17  1  0  0  0  0
 17 18  1  0  0  0  0
 18 19  2  0  0  0  0
 19 20  1  0  0  0  0
 20 21  2  0  0  0  0
 21 22  1  0  0  0  0
 22 23  1  0  0  0  0
 23 24  1  0  0  0  0
 21 25  1  0  0  0  0
 25 26  2  0  0  0  0
 25 27  1  0  0  0  0
 17 28  2  0  0  0  0
 28 29  1  0  0  0  0
 16 30  1  0  0  0  0
 30 31  2  0  0  0  0
 31 32  1  0  0  0  0
 31 33  1  0  0  0  0
 33 34  2  0  0  0  0
 34 35  1  0  0  0  0
 35 36  2  0  0  0  0
 36 37  1  0  0  0  0
 37 38  2  0  0  0  0
 38 39  1  0  0  0  0
 39 40  2  0  0  0  0
 40 41  1  0  0  0  0
 41 42  1  0  0  0  0
 42 43  1  0  0  0  0
 40 44  1  0  0  0  0
 44 45  1  0  0  0  0
 44 46  2  0  0  0  0
 36 47  1  0  0  0  0
 47 48  2  0  0  0  0
 48 49  1  0  0  0  0
 49 50  1  0  0  0  0
 50 51  2  0  0  0  0
 51 52  1  0  0  0  0
 52 53  2  0  0  0  0
 53 54  1  0  0  0  0
 54 55  1  0  0  0  0
 55 56  1  0  0  0  0
 53 57  1  0  0  0  0
 57 58  2  0  0  0  0
 57 59  1  0  0  0  0
 49 60  2  0  0  0  0
 60 61  1  0  0  0  0
 48 62  1  0  0  0  0
 62 63  2  0  0  0  0
 63 64  1  0  0  0  0
 63 65  1  0  0  0  0
 65 66  2  0  0  0  0
 66 67  1  0  0  0  0
 66 68  1  0  0  0  0
 68 69  1  0  0  0  0
 68 70  2  0  0  0  0
 70 71  1  0  0  0  0
 71 72  2  0  0  0  0
 72 73  1  0  0  0  0
 73 74  1  0  0  0  0
 74 75  1  0  0  0  0
 75 76  1  0  0  0  0
 73 77  2  0  0  0  0
 77 78  1  0  0  0  0
 78 79  2  0  0  0  0
 77 80  1  0  0  0  0
 70 81  1  0  0  0  0
 81 82  2  0  0  0  0
 82 83  1  0  0  0  0
 82 84  1  0  0  0  0
 84 85  1  0  0  0  0
 84 86  2  0  0  0  0
 86 87  1  0  0  0  0
 87 88  2  0  0  0  0
 88 89  1  0  0  0  0
 89 90  1  0  0  0  0
 90 91  1  0  0  0  0
 91 92  1  0  0  0  0
 89 93  2  0  0  0  0
 93 94  1  0  0  0  0
 94 95  2  0  0  0  0
 93 96  1  0  0  0  0
 86 97  1  0  0  0  0
 97 98  2  0  0  0  0
 98 99  1  0  0  0  0
 99100  2  0  0  0  0
100101  1  0  0  0  0
101102  2  0  0  0  0
102103  1  0  0  0  0
103104  2  0  0  0  0
104105  1  0  0  0  0
105106  1  0  0  0  0
106107  1  0  0  0  0
104108  1  0  0  0  0
108109  1  0  0  0  0
108110  2  0  0  0  0
100111  1  0  0  0  0
111112  2  0  0  0  0
112113  1  0  0  0  0
113114  1  0  0  0  0
114115  2  0  0  0  0
115116  1  0  0  0  0
116117  2  0  0  0  0
117118  1  0  0  0  0
118119  1  0  0  0  0
119120  1  0  0  0  0
117121  1  0  0  0  0
121122  2  0  0  0  0
121123  1  0  0  0  0
113124  2  0  0  0  0
124125  1  0  0  0  0
112126  1  0  0  0  0
126127  2  0  0  0  0
127128  1  0  0  0  0
127129  1  0  0  0  0
129130  2  0  0  0  0
130131  1  0  0  0  0
131132  2  0  0  0  0
132133  1  0  0  0  0
133134  2  0  0  0  0
134135  1  0  0  0  0
135136  2  0  0  0  0
136137  1  0  0  0  0
137138  1  0  0  0  0
138139  1  0  0  0  0
136140  1  0  0  0  0
140141  1  0  0  0  0
140142  2  0  0  0  0
132143  1  0  0  0  0
143144  2  0  0  0  0
144145  1  0  0  0  0
145146  1  0  0  0  0
146147  2  0  0  0  0
147148  1  0  0  0  0
148149  2  0  0  0  0
149150  1  0  0  0  0
150151  1  0  0  0  0
151152  1  0  0  0  0
149153  1  0  0  0  0
153154  2  0  0  0  0
153155  1  0  0  0  0
145156  2  0  0  0  0
156157  1  0  0  0  0
144158  1  0  0  0  0
158159  2  0  0  0  0
159160  1  0  0  0  0
 29  1  1  0  0  0  0
 61 33  1  0  0  0  0
 79 65  1  0  0  0  0
 95 81  1  0  0  0  0
125 97  1  0  0  0  0
157129  1  0  0  0  0
 28  3  1  0  0  0  0
 60 35  1  0  0  0  0
 79 71  1  0  0  0  0
 95 87  1  0  0  0  0
124 99  1  0  0  0  0
156131  1  0  0  0  0
 14  5  1  0  0  0  0
 32 15  1  0  0  0  0
 46 37  1  0  0  0  0
 64 47  1  0  0  0  0
110101  1  0  0  0  0
128111  1  0  0  0  0
142133  1  0  0  0  0
160143  1  0  0  0  0
 26 18  1  0  0  0  0
 58 50  1  0  0  0  0
122114  1  0  0  0  0
154146  1  0  0  0  0
  1161  1  0  0  0  0
  2162  1  0  0  0  0
  6163  1  0  0  0  0
  7164  1  0  0  0  0
 10165  1  0  0  0  0
 10166  1  0  0  0  0
 11167  1  0  0  0  0
 11168  1  0  0  0  0
 11169  1  0  0  0  0
 14170  1  0  0  0  0
 19171  1  0  0  0  0
 20172  1  0  0  0  0
 23173  1  0  0  0  0
 23174  1  0  0  0  0
 24175  1  0  0  0  0
 24176  1  0  0  0  0
 24177  1  0  0  0  0
 26178  1  0  0  0  0
 30179  1  0  0  0  0
 34180  1  0  0  0  0
 38181  1  0  0  0  0
 39182  1  0  0  0  0
 42183  1  0  0  0  0
 42184  1  0  0  0  0
 43185  1  0  0  0  0
 43186  1  0  0  0  0
 43187  1  0  0  0  0
 46188  1  0  0  0  0
 51189  1  0  0  0  0
 52190  1  0  0  0  0
 55191  1  0  0  0  0
 55192  1  0  0  0  0
 56193  1  0  0  0  0
 56194  1  0  0  0  0
 56195  1  0  0  0  0
 58196  1  0  0  0  0
 62197  1  0  0  0  0
 75198  1  0  0  0  0
 75199  1  0  0  0  0
 76200  1  0  0  0  0
 76201  1  0  0  0  0
 76202  1  0  0  0  0
 80203  1  0  0  0  0
 80204  1  0  0  0  0
 80205  1  0  0  0  0
 91206  1  0  0  0  0
 91207  1  0  0  0  0
 92208  1  0  0  0  0
 92209  1  0  0  0  0
 92210  1  0  0  0  0
 96211  1  0  0  0  0
 96212  1  0  0  0  0
 96213  1  0  0  0  0
 98214  1  0  0  0  0
102215  1  0  0  0  0
103216  1  0  0  0  0
106217  1  0  0  0  0
106218  1  0  0  0  0
107219  1  0  0  0  0
107220  1  0  0  0  0
107221  1  0  0  0  0
110222  1  0  0  0  0
115223  1  0  0  0  0
116224  1  0  0  0  0
119225  1  0  0  0  0
119226  1  0  0  0  0
120227  1  0  0  0  0
120228  1  0  0  0  0
120229  1  0  0  0  0
122230  1  0  0  0  0
126231  1  0  0  0  0
130232  1  0  0  0  0
134233  1  0  0  0  0
135234  1  0  0  0  0
138235  1  0  0  0  0
138236  1  0  0  0  0
139237  1  0  0  0  0
139238  1  0  0  0  0
139239  1  0  0  0  0
142240  1  0  0  0  0
147241  1  0  0  0  0
148242  1  0  0  0  0
151243  1  0  0  0  0
151244  1  0  0  0  0
152245  1  0  0  0  0
152246  1  0  0  0  0
152247  1  0  0  0  0
154248  1  0  0  0  0
158249  1  0  0  0  0
159250  1  0  0  0  0
M  END
