
  xtb     03012214323D
 energy: -502.353331436163 gnorm: 0.000159496303 xtb: 6.4.1 (unknown)
262291  0     0  0            999 V2000
   -8.2248    1.1527    1.4766 C   0  0  0  0  0  0  0  0  0  0  0  0
   -7.1984    0.6560    0.7572 C   0  0  0  0  0  0  0  0  0  0  0  0
   -6.0373    0.4089    1.5460 C   0  0  0  0  0  0  0  0  0  0  0  0
   -4.7870   -0.0811    1.1283 C   0  0  0  0  0  0  0  0  0  0  0  0
   -4.6293   -0.6701   -0.1882 C   0  0  0  0  0  0  0  0  0  0  0  0
   -3.2737   -0.3305   -1.2182 S   0  0  0  0  0  0  0  0  0  0  0  0
   -3.8457   -1.3833   -2.4626 C   0  0  0  0  0  0  0  0  0  0  0  0
   -3.0798   -1.5905   -3.7220 C   0  0  0  0  0  0  0  0  0  0  0  0
   -2.1519   -2.8016   -3.6039 C   0  0  0  0  0  0  0  0  0  0  0  0
   -5.0077   -1.9828   -2.0760 C   0  0  0  0  0  0  0  0  0  0  0  0
   -5.8668   -3.1085   -3.0450 Cl  0  0  0  0  0  0  0  0  0  0  0  0
   -5.4549   -1.5850   -0.7894 C   0  0  0  0  0  0  0  0  0  0  0  0
   -6.8387   -2.2845   -0.0529 Cl  0  0  0  0  0  0  0  0  0  0  0  0
   -3.7541   -0.0265    2.0578 C   0  0  0  0  0  0  0  0  0  0  0  0
   -3.9615    0.3411    3.4105 C   0  0  0  0  0  0  0  0  0  0  0  0
   -5.2391    0.7180    3.8549 C   0  0  0  0  0  0  0  0  0  0  0  0
   -5.5009    1.0206    5.2534 C   0  0  0  0  0  0  0  0  0  0  0  0
   -6.7345    0.1516    6.1199 S   0  0  0  0  0  0  0  0  0  0  0  0
   -6.4055    0.9937    7.5938 C   0  0  0  0  0  0  0  0  0  0  0  0
   -7.1268    0.6681    8.8551 C   0  0  0  0  0  0  0  0  0  0  0  0
   -6.3460   -0.3583    9.6797 C   0  0  0  0  0  0  0  0  0  0  0  0
   -5.3957    1.8904    7.4114 C   0  0  0  0  0  0  0  0  0  0  0  0
   -4.8850    1.9126    6.0861 C   0  0  0  0  0  0  0  0  0  0  0  0
   -3.6729    3.0228    5.5993 Cl  0  0  0  0  0  0  0  0  0  0  0  0
   -4.7849    2.9071    8.6534 Cl  0  0  0  0  0  0  0  0  0  0  0  0
   -6.2424    0.7738    2.8963 C   0  0  0  0  0  0  0  0  0  0  0  0
   -7.8635    1.3505    3.1566 S   0  0  0  0  0  0  0  0  0  0  0  0
   -2.7729    0.2441    4.1745 C   0  0  0  0  0  0  0  0  0  0  0  0
   -1.6837   -0.1218    3.4427 C   0  0  0  0  0  0  0  0  0  0  0  0
   -2.0857   -0.4357    1.7665 S   0  0  0  0  0  0  0  0  0  0  0  0
   -0.3423   -0.2545    3.9166 C   0  0  0  0  0  0  0  0  0  0  0  0
    0.0627   -0.3629    5.2144 C   0  0  0  0  0  0  0  0  0  0  0  0
    1.4588   -0.5528    5.3594 C   0  0  0  0  0  0  0  0  0  0  0  0
    2.1887   -0.8137    6.5388 C   0  0  0  0  0  0  0  0  0  0  0  0
    1.6013   -0.7408    7.8619 C   0  0  0  0  0  0  0  0  0  0  0  0
    0.0289   -1.3751    8.2499 S   0  0  0  0  0  0  0  0  0  0  0  0
    0.1346   -0.8687    9.9002 C   0  0  0  0  0  0  0  0  0  0  0  0
   -0.9983   -1.0886   10.8403 C   0  0  0  0  0  0  0  0  0  0  0  0
   -2.1832   -0.1831   10.4973 C   0  0  0  0  0  0  0  0  0  0  0  0
    1.3231   -0.2403   10.1258 C   0  0  0  0  0  0  0  0  0  0  0  0
    1.7935    0.4125   11.6424 Cl  0  0  0  0  0  0  0  0  0  0  0  0
    2.1568   -0.1690    8.9788 C   0  0  0  0  0  0  0  0  0  0  0  0
    3.6565    0.6611    9.0052 Cl  0  0  0  0  0  0  0  0  0  0  0  0
    3.5201   -1.1866    6.3652 C   0  0  0  0  0  0  0  0  0  0  0  0
    4.1818   -1.1030    5.1197 C   0  0  0  0  0  0  0  0  0  0  0  0
    3.4892   -0.6908    3.9665 C   0  0  0  0  0  0  0  0  0  0  0  0
    4.1729   -0.5582    2.6979 C   0  0  0  0  0  0  0  0  0  0  0  0
    3.5035   -1.2059    1.2314 S   0  0  0  0  0  0  0  0  0  0  0  0
    4.8465   -0.6661    0.2862 C   0  0  0  0  0  0  0  0  0  0  0  0
    4.8678   -0.8754   -1.1869 C   0  0  0  0  0  0  0  0  0  0  0  0
    4.0670    0.2176   -1.8992 C   0  0  0  0  0  0  0  0  0  0  0  0
    5.7498   -0.0135    1.0716 C   0  0  0  0  0  0  0  0  0  0  0  0
    5.3758    0.0466    2.4399 C   0  0  0  0  0  0  0  0  0  0  0  0
    6.3132    0.8799    3.6111 Cl  0  0  0  0  0  0  0  0  0  0  0  0
    7.2091    0.6706    0.4841 Cl  0  0  0  0  0  0  0  0  0  0  0  0
    2.1172   -0.5248    4.1047 C   0  0  0  0  0  0  0  0  0  0  0  0
    0.9974   -0.2938    2.7949 S   0  0  0  0  0  0  0  0  0  0  0  0
    5.4467   -1.7366    5.1439 C   0  0  0  0  0  0  0  0  0  0  0  0
    5.7129   -2.3808    6.3172 C   0  0  0  0  0  0  0  0  0  0  0  0
    4.5039   -2.0433    7.5353 S   0  0  0  0  0  0  0  0  0  0  0  0
    6.5511   -3.5529    6.3112 C   0  0  0  0  0  0  0  0  0  0  0  0
    6.0465   -4.8048    6.5182 C   0  0  0  0  0  0  0  0  0  0  0  0
    6.6099   -5.7774    5.6498 C   0  0  0  0  0  0  0  0  0  0  0  0
    5.9470   -6.9580    5.2393 C   0  0  0  0  0  0  0  0  0  0  0  0
    4.9414   -7.5532    6.0870 C   0  0  0  0  0  0  0  0  0  0  0  0
    3.4332   -8.1791    5.4780 S   0  0  0  0  0  0  0  0  0  0  0  0
    2.8883   -8.6329    7.0562 C   0  0  0  0  0  0  0  0  0  0  0  0
    1.5610   -9.2762    7.2603 C   0  0  0  0  0  0  0  0  0  0  0  0
    0.4932   -8.2557    7.6603 C   0  0  0  0  0  0  0  0  0  0  0  0
    3.8218   -8.3013    7.9939 C   0  0  0  0  0  0  0  0  0  0  0  0
    3.6325   -8.5996    9.6739 Cl  0  0  0  0  0  0  0  0  0  0  0  0
    4.9842   -7.6942    7.4530 C   0  0  0  0  0  0  0  0  0  0  0  0
    6.3306   -7.2742    8.4301 Cl  0  0  0  0  0  0  0  0  0  0  0  0
    6.1627   -7.3151    3.9121 C   0  0  0  0  0  0  0  0  0  0  0  0
    7.1728   -6.7435    3.0951 C   0  0  0  0  0  0  0  0  0  0  0  0
    8.0605   -5.7974    3.6476 C   0  0  0  0  0  0  0  0  0  0  0  0
    9.2119   -5.2395    2.9712 C   0  0  0  0  0  0  0  0  0  0  0  0
    9.2514   -4.7776    1.2941 S   0  0  0  0  0  0  0  0  0  0  0  0
   10.8745   -4.1919    1.4007 C   0  0  0  0  0  0  0  0  0  0  0  0
   11.5850   -3.6664    0.2036 C   0  0  0  0  0  0  0  0  0  0  0  0
   12.2306   -4.8048   -0.5905 C   0  0  0  0  0  0  0  0  0  0  0  0
   11.3548   -4.3630    2.6647 C   0  0  0  0  0  0  0  0  0  0  0  0
   10.4158   -4.9402    3.5585 C   0  0  0  0  0  0  0  0  0  0  0  0
   10.8087   -5.2934    5.1881 Cl  0  0  0  0  0  0  0  0  0  0  0  0
   12.9389   -3.9209    3.1528 Cl  0  0  0  0  0  0  0  0  0  0  0  0
    7.6512   -5.2453    4.8630 C   0  0  0  0  0  0  0  0  0  0  0  0
    7.9839   -3.5838    5.3004 S   0  0  0  0  0  0  0  0  0  0  0  0
    6.9026   -6.9240    1.7102 C   0  0  0  0  0  0  0  0  0  0  0  0
    5.6822   -7.4897    1.4775 C   0  0  0  0  0  0  0  0  0  0  0  0
    5.0082   -8.1979    2.9432 S   0  0  0  0  0  0  0  0  0  0  0  0
    4.7499   -7.0007    0.4926 C   0  0  0  0  0  0  0  0  0  0  0  0
    3.6223   -6.3769    0.9434 C   0  0  0  0  0  0  0  0  0  0  0  0
    3.1028   -5.4175    0.0469 C   0  0  0  0  0  0  0  0  0  0  0  0
    2.1921   -4.3978    0.3673 C   0  0  0  0  0  0  0  0  0  0  0  0
    1.7916   -4.1841    1.7631 C   0  0  0  0  0  0  0  0  0  0  0  0
    2.7794   -4.1904    2.7487 C   0  0  0  0  0  0  0  0  0  0  0  0
    2.4610   -4.0730    4.0847 C   0  0  0  0  0  0  0  0  0  0  0  0
    1.1327   -3.9326    4.4657 C   0  0  0  0  0  0  0  0  0  0  0  0
    0.6072   -3.8744    6.1479 S   0  0  0  0  0  0  0  0  0  0  0  0
    2.0105   -4.6363    7.0482 C   0  0  0  0  0  0  0  0  0  0  0  0
    1.6636   -4.7699    8.5176 C   0  0  0  0  0  0  0  0  0  0  0  0
    0.1486   -3.8320    3.4848 C   0  0  0  0  0  0  0  0  0  0  0  0
    0.4732   -3.9571    2.1500 C   0  0  0  0  0  0  0  0  0  0  0  0
    1.8537   -3.5421   -0.6654 C   0  0  0  0  0  0  0  0  0  0  0  0
    2.4186   -3.6342   -1.9645 C   0  0  0  0  0  0  0  0  0  0  0  0
    3.4149   -4.5922   -2.2438 C   0  0  0  0  0  0  0  0  0  0  0  0
    4.0823   -4.6563   -3.5488 C   0  0  0  0  0  0  0  0  0  0  0  0
    4.2180   -5.8819   -4.2014 C   0  0  0  0  0  0  0  0  0  0  0  0
    4.8062   -5.9562   -5.4446 C   0  0  0  0  0  0  0  0  0  0  0  0
    5.2898   -4.8068   -6.0654 C   0  0  0  0  0  0  0  0  0  0  0  0
    6.0334   -5.0144   -7.6538 S   0  0  0  0  0  0  0  0  0  0  0  0
    5.9091   -3.3636   -8.4291 C   0  0  0  0  0  0  0  0  0  0  0  0
    4.4702   -2.9463   -8.6642 C   0  0  0  0  0  0  0  0  0  0  0  0
    5.1967   -3.5883   -5.4059 C   0  0  0  0  0  0  0  0  0  0  0  0
    4.5923   -3.5172   -4.1663 C   0  0  0  0  0  0  0  0  0  0  0  0
    3.7514   -5.4548   -1.2089 C   0  0  0  0  0  0  0  0  0  0  0  0
    5.1056   -6.5753   -1.1690 S   0  0  0  0  0  0  0  0  0  0  0  0
    1.9184   -2.6128   -2.8151 C   0  0  0  0  0  0  0  0  0  0  0  0
    1.0718   -1.7486   -2.1867 C   0  0  0  0  0  0  0  0  0  0  0  0
    0.7785   -2.1832   -0.5150 S   0  0  0  0  0  0  0  0  0  0  0  0
    0.4325   -0.5821   -2.6977 C   0  0  0  0  0  0  0  0  0  0  0  0
   -0.2794    0.3263   -1.9736 C   0  0  0  0  0  0  0  0  0  0  0  0
   -0.8405    1.3630   -2.7577 C   0  0  0  0  0  0  0  0  0  0  0  0
   -1.6511    2.4298   -2.3286 C   0  0  0  0  0  0  0  0  0  0  0  0
   -1.9129    2.6445   -0.9158 C   0  0  0  0  0  0  0  0  0  0  0  0
   -0.5920    2.6893    0.2168 S   0  0  0  0  0  0  0  0  0  0  0  0
   -1.6359    3.0182    1.5526 C   0  0  0  0  0  0  0  0  0  0  0  0
   -1.0877    3.2454    2.9171 C   0  0  0  0  0  0  0  0  0  0  0  0
   -0.8231    4.7330    3.1601 C   0  0  0  0  0  0  0  0  0  0  0  0
   -2.9305    3.0893    1.1322 C   0  0  0  0  0  0  0  0  0  0  0  0
   -4.2600    3.4091    2.1683 Cl  0  0  0  0  0  0  0  0  0  0  0  0
   -3.0932    2.8727   -0.2619 C   0  0  0  0  0  0  0  0  0  0  0  0
   -4.6429    2.8102   -0.9869 Cl  0  0  0  0  0  0  0  0  0  0  0  0
   -2.1399    3.2792   -3.3138 C   0  0  0  0  0  0  0  0  0  0  0  0
   -1.8277    3.1239   -4.6890 C   0  0  0  0  0  0  0  0  0  0  0  0
   -0.9826    2.0820   -5.1099 C   0  0  0  0  0  0  0  0  0  0  0  0
   -0.5886    1.9324   -6.5003 C   0  0  0  0  0  0  0  0  0  0  0  0
   -0.7350    0.4004   -7.3115 S   0  0  0  0  0  0  0  0  0  0  0  0
   -0.0753    1.0256   -8.7829 C   0  0  0  0  0  0  0  0  0  0  0  0
    0.1520    0.1451   -9.9616 C   0  0  0  0  0  0  0  0  0  0  0  0
    1.5006   -0.5704   -9.8490 C   0  0  0  0  0  0  0  0  0  0  0  0
    0.2424    2.3430   -8.6371 C   0  0  0  0  0  0  0  0  0  0  0  0
   -0.0527    2.8629   -7.3481 C   0  0  0  0  0  0  0  0  0  0  0  0
    0.3248    4.4793   -6.9056 Cl  0  0  0  0  0  0  0  0  0  0  0  0
    0.9376    3.3007   -9.8798 Cl  0  0  0  0  0  0  0  0  0  0  0  0
   -0.5328    1.2070   -4.1306 C   0  0  0  0  0  0  0  0  0  0  0  0
    0.4834   -0.1843   -4.4018 S   0  0  0  0  0  0  0  0  0  0  0  0
   -2.4549    4.1096   -5.4878 C   0  0  0  0  0  0  0  0  0  0  0  0
   -3.1786    5.0125   -4.7661 C   0  0  0  0  0  0  0  0  0  0  0  0
   -3.1487    4.6707   -3.0530 S   0  0  0  0  0  0  0  0  0  0  0  0
   -3.8866    6.1459   -5.2744 C   0  0  0  0  0  0  0  0  0  0  0  0
   -3.6695    6.7720   -6.4654 C   0  0  0  0  0  0  0  0  0  0  0  0
   -4.5130    7.8908   -6.6766 C   0  0  0  0  0  0  0  0  0  0  0  0
   -4.5536    8.7466   -7.7905 C   0  0  0  0  0  0  0  0  0  0  0  0
   -3.6304    8.5793   -8.9003 C   0  0  0  0  0  0  0  0  0  0  0  0
   -1.9133    8.4955   -8.6293 S   0  0  0  0  0  0  0  0  0  0  0  0
   -1.5726    8.3299  -10.3179 C   0  0  0  0  0  0  0  0  0  0  0  0
   -0.1778    8.1376  -10.8005 C   0  0  0  0  0  0  0  0  0  0  0  0
    0.2922    6.7042  -10.5441 C   0  0  0  0  0  0  0  0  0  0  0  0
   -2.7311    8.3341  -11.0351 C   0  0  0  0  0  0  0  0  0  0  0  0
   -2.8020    8.1795  -12.7427 Cl  0  0  0  0  0  0  0  0  0  0  0  0
   -3.8985    8.4827  -10.2374 C   0  0  0  0  0  0  0  0  0  0  0  0
   -5.4759    8.4470  -10.9054 Cl  0  0  0  0  0  0  0  0  0  0  0  0
   -5.4910    9.7727   -7.7614 C   0  0  0  0  0  0  0  0  0  0  0  0
   -6.3968    9.9575   -6.6886 C   0  0  0  0  0  0  0  0  0  0  0  0
   -6.3829    9.0765   -5.5961 C   0  0  0  0  0  0  0  0  0  0  0  0
   -7.3512    9.1867   -4.5182 C   0  0  0  0  0  0  0  0  0  0  0  0
   -6.8645    9.2167   -2.8501 S   0  0  0  0  0  0  0  0  0  0  0  0
   -8.5004    9.3038   -2.2939 C   0  0  0  0  0  0  0  0  0  0  0  0
   -8.8200    9.2969   -0.8401 C   0  0  0  0  0  0  0  0  0  0  0  0
   -8.8465    7.8650   -0.2996 C   0  0  0  0  0  0  0  0  0  0  0  0
   -9.3620    9.2986   -3.3502 C   0  0  0  0  0  0  0  0  0  0  0  0
   -8.7148    9.2375   -4.6132 C   0  0  0  0  0  0  0  0  0  0  0  0
   -9.5829    9.1475   -6.0914 Cl  0  0  0  0  0  0  0  0  0  0  0  0
  -11.0701    9.3609   -3.1936 Cl  0  0  0  0  0  0  0  0  0  0  0  0
   -5.4140    8.0807   -5.6015 C   0  0  0  0  0  0  0  0  0  0  0  0
   -5.1686    6.8962   -4.3503 S   0  0  0  0  0  0  0  0  0  0  0  0
   -7.1942   11.1249   -6.8710 C   0  0  0  0  0  0  0  0  0  0  0  0
   -6.9117   11.7774   -8.0168 C   0  0  0  0  0  0  0  0  0  0  0  0
   -5.6681   11.0273   -8.9541 S   0  0  0  0  0  0  0  0  0  0  0  0
   -9.1993    1.4325    1.1271 H   0  0  0  0  0  0  0  0  0  0  0  0
   -7.2371    0.5010   -0.3052 H   0  0  0  0  0  0  0  0  0  0  0  0
   -3.7827   -1.7513   -4.5419 H   0  0  0  0  0  0  0  0  0  0  0  0
   -2.4952   -0.6959   -3.9391 H   0  0  0  0  0  0  0  0  0  0  0  0
   -2.7342   -3.7089   -3.4673 H   0  0  0  0  0  0  0  0  0  0  0  0
   -1.4867   -2.6862   -2.7519 H   0  0  0  0  0  0  0  0  0  0  0  0
   -1.5526   -2.9008   -4.5050 H   0  0  0  0  0  0  0  0  0  0  0  0
   -8.1139    0.2715    8.6142 H   0  0  0  0  0  0  0  0  0  0  0  0
   -7.2491    1.5834    9.4380 H   0  0  0  0  0  0  0  0  0  0  0  0
   -6.8846   -0.5886   10.5949 H   0  0  0  0  0  0  0  0  0  0  0  0
   -5.3673    0.0365    9.9395 H   0  0  0  0  0  0  0  0  0  0  0  0
   -6.2121   -1.2760    9.1121 H   0  0  0  0  0  0  0  0  0  0  0  0
   -2.7260    0.4595    5.2248 H   0  0  0  0  0  0  0  0  0  0  0  0
   -0.6255   -0.3603    6.0372 H   0  0  0  0  0  0  0  0  0  0  0  0
   -0.6539   -0.8800   11.8543 H   0  0  0  0  0  0  0  0  0  0  0  0
   -1.3176   -2.1319   10.7880 H   0  0  0  0  0  0  0  0  0  0  0  0
   -2.9940   -0.3502   11.2015 H   0  0  0  0  0  0  0  0  0  0  0  0
   -2.5409   -0.3959    9.4923 H   0  0  0  0  0  0  0  0  0  0  0  0
   -1.8887    0.8623   10.5473 H   0  0  0  0  0  0  0  0  0  0  0  0
    5.9031   -0.8614   -1.5329 H   0  0  0  0  0  0  0  0  0  0  0  0
    4.4347   -1.8524   -1.4103 H   0  0  0  0  0  0  0  0  0  0  0  0
    4.0442    0.0338   -2.9704 H   0  0  0  0  0  0  0  0  0  0  0  0
    3.0449    0.2388   -1.5282 H   0  0  0  0  0  0  0  0  0  0  0  0
    4.5185    1.1904   -1.7227 H   0  0  0  0  0  0  0  0  0  0  0  0
    6.0633   -1.8531    4.2716 H   0  0  0  0  0  0  0  0  0  0  0  0
    5.1658   -4.9833    7.1089 H   0  0  0  0  0  0  0  0  0  0  0  0
    1.2624   -9.7750    6.3372 H   0  0  0  0  0  0  0  0  0  0  0  0
    1.6543  -10.0257    8.0493 H   0  0  0  0  0  0  0  0  0  0  0  0
    0.3774   -7.5010    6.8864 H   0  0  0  0  0  0  0  0  0  0  0  0
    0.7722   -7.7681    8.5903 H   0  0  0  0  0  0  0  0  0  0  0  0
   -0.4612   -8.7554    7.8021 H   0  0  0  0  0  0  0  0  0  0  0  0
   10.8776   -3.1333   -0.4339 H   0  0  0  0  0  0  0  0  0  0  0  0
   12.3561   -2.9679    0.5338 H   0  0  0  0  0  0  0  0  0  0  0  0
   11.4720   -5.5064   -0.9295 H   0  0  0  0  0  0  0  0  0  0  0  0
   12.9461   -5.3382    0.0301 H   0  0  0  0  0  0  0  0  0  0  0  0
   12.7503   -4.4065   -1.4576 H   0  0  0  0  0  0  0  0  0  0  0  0
    7.4765   -6.4607    0.9292 H   0  0  0  0  0  0  0  0  0  0  0  0
    3.2271   -6.5283    1.9309 H   0  0  0  0  0  0  0  0  0  0  0  0
    3.8183   -4.2789    2.4649 H   0  0  0  0  0  0  0  0  0  0  0  0
    3.2556   -4.0969    4.8138 H   0  0  0  0  0  0  0  0  0  0  0  0
    2.8808   -3.9941    6.9249 H   0  0  0  0  0  0  0  0  0  0  0  0
    2.1951   -5.6087    6.5899 H   0  0  0  0  0  0  0  0  0  0  0  0
    0.7161   -5.2880    8.6418 H   0  0  0  0  0  0  0  0  0  0  0  0
    2.4430   -5.3321    9.0275 H   0  0  0  0  0  0  0  0  0  0  0  0
    1.5843   -3.7891    8.9800 H   0  0  0  0  0  0  0  0  0  0  0  0
   -0.8765   -3.6803    3.7874 H   0  0  0  0  0  0  0  0  0  0  0  0
   -0.3071   -3.9153    1.4052 H   0  0  0  0  0  0  0  0  0  0  0  0
    3.8295   -6.7775   -3.7405 H   0  0  0  0  0  0  0  0  0  0  0  0
    4.8937   -6.9034   -5.9540 H   0  0  0  0  0  0  0  0  0  0  0  0
    6.4533   -2.6464   -7.8156 H   0  0  0  0  0  0  0  0  0  0  0  0
    6.4395   -3.4844   -9.3735 H   0  0  0  0  0  0  0  0  0  0  0  0
    3.9639   -3.6795   -9.2875 H   0  0  0  0  0  0  0  0  0  0  0  0
    4.4412   -1.9815   -9.1668 H   0  0  0  0  0  0  0  0  0  0  0  0
    3.9305   -2.8644   -7.7228 H   0  0  0  0  0  0  0  0  0  0  0  0
    5.5993   -2.6878   -5.8430 H   0  0  0  0  0  0  0  0  0  0  0  0
    4.5442   -2.5647   -3.6606 H   0  0  0  0  0  0  0  0  0  0  0  0
    2.1785   -2.5146   -3.8537 H   0  0  0  0  0  0  0  0  0  0  0  0
   -0.4079    0.2387   -0.9105 H   0  0  0  0  0  0  0  0  0  0  0  0
   -0.1582    2.6847    3.0297 H   0  0  0  0  0  0  0  0  0  0  0  0
   -1.8062    2.8798    3.6523 H   0  0  0  0  0  0  0  0  0  0  0  0
   -0.4280    4.8802    4.1616 H   0  0  0  0  0  0  0  0  0  0  0  0
   -1.7453    5.3000    3.0626 H   0  0  0  0  0  0  0  0  0  0  0  0
   -0.1026    5.1127    2.4396 H   0  0  0  0  0  0  0  0  0  0  0  0
   -0.6475   -0.5948  -10.0222 H   0  0  0  0  0  0  0  0  0  0  0  0
    0.1355    0.7556  -10.8661 H   0  0  0  0  0  0  0  0  0  0  0  0
    1.5294   -1.1806   -8.9494 H   0  0  0  0  0  0  0  0  0  0  0  0
    1.6564   -1.2116  -10.7122 H   0  0  0  0  0  0  0  0  0  0  0  0
    2.3077    0.1566   -9.8034 H   0  0  0  0  0  0  0  0  0  0  0  0
   -2.3974    4.1303   -6.5595 H   0  0  0  0  0  0  0  0  0  0  0  0
   -2.9160    6.4553   -7.1616 H   0  0  0  0  0  0  0  0  0  0  0  0
    0.4861    8.8333  -10.2835 H   0  0  0  0  0  0  0  0  0  0  0  0
   -0.1453    8.3517  -11.8699 H   0  0  0  0  0  0  0  0  0  0  0  0
    0.2673    6.4832   -9.4796 H   0  0  0  0  0  0  0  0  0  0  0  0
   -0.3522    5.9975  -11.0614 H   0  0  0  0  0  0  0  0  0  0  0  0
    1.3098    6.5736  -10.9028 H   0  0  0  0  0  0  0  0  0  0  0  0
   -8.0684    9.8749   -0.2999 H   0  0  0  0  0  0  0  0  0  0  0  0
   -9.7956    9.7634   -0.6920 H   0  0  0  0  0  0  0  0  0  0  0  0
   -9.0779    7.8706    0.7620 H   0  0  0  0  0  0  0  0  0  0  0  0
   -7.8796    7.3890   -0.4449 H   0  0  0  0  0  0  0  0  0  0  0  0
   -9.6025    7.2808   -0.8183 H   0  0  0  0  0  0  0  0  0  0  0  0
   -7.9262   11.4594   -6.1597 H   0  0  0  0  0  0  0  0  0  0  0  0
   -7.3608   12.6771   -8.3898 H   0  0  0  0  0  0  0  0  0  0  0  0
  1  2  2  0  0  0  0
  2  3  1  0  0  0  0
  3  4  2  0  0  0  0
  4  5  1  0  0  0  0
  5  6  1  0  0  0  0
  6  7  1  0  0  0  0
  7  8  1  0  0  0  0
  8  9  1  0  0  0  0
  7 10  2  0  0  0  0
 10 11  1  0  0  0  0
 10 12  1  0  0  0  0
 12 13  1  0  0  0  0
  4 14  1  0  0  0  0
 14 15  2  0  0  0  0
 15 16  1  0  0  0  0
 16 17  1  0  0  0  0
 17 18  1  0  0  0  0
 18 19  1  0  0  0  0
 19 20  1  0  0  0  0
 20 21  1  0  0  0  0
 19 22  2  0  0  0  0
 22 23  1  0  0  0  0
 23 24  1  0  0  0  0
 22 25  1  0  0  0  0
 16 26  2  0  0  0  0
 26 27  1  0  0  0  0
 15 28  1  0  0  0  0
 28 29  2  0  0  0  0
 29 30  1  0  0  0  0
 29 31  1  0  0  0  0
 31 32  2  0  0  0  0
 32 33  1  0  0  0  0
 33 34  2  0  0  0  0
 34 35  1  0  0  0  0
 35 36  1  0  0  0  0
 36 37  1  0  0  0  0
 37 38  1  0  0  0  0
 38 39  1  0  0  0  0
 37 40  2  0  0  0  0
 40 41  1  0  0  0  0
 40 42  1  0  0  0  0
 42 43  1  0  0  0  0
 34 44  1  0  0  0  0
 44 45  2  0  0  0  0
 45 46  1  0  0  0  0
 46 47  1  0  0  0  0
 47 48  1  0  0  0  0
 48 49  1  0  0  0  0
 49 50  1  0  0  0  0
 50 51  1  0  0  0  0
 49 52  2  0  0  0  0
 52 53  1  0  0  0  0
 53 54  1  0  0  0  0
 52 55  1  0  0  0  0
 46 56  2  0  0  0  0
 56 57  1  0  0  0  0
 45 58  1  0  0  0  0
 58 59  2  0  0  0  0
 59 60  1  0  0  0  0
 59 61  1  0  0  0  0
 61 62  2  0  0  0  0
 62 63  1  0  0  0  0
 63 64  2  0  0  0  0
 64 65  1  0  0  0  0
 65 66  1  0  0  0  0
 66 67  1  0  0  0  0
 67 68  1  0  0  0  0
 68 69  1  0  0  0  0
 67 70  2  0  0  0  0
 70 71  1  0  0  0  0
 70 72  1  0  0  0  0
 72 73  1  0  0  0  0
 64 74  1  0  0  0  0
 74 75  2  0  0  0  0
 75 76  1  0  0  0  0
 76 77  1  0  0  0  0
 77 78  1  0  0  0  0
 78 79  1  0  0  0  0
 79 80  1  0  0  0  0
 80 81  1  0  0  0  0
 79 82  2  0  0  0  0
 82 83  1  0  0  0  0
 83 84  1  0  0  0  0
 82 85  1  0  0  0  0
 76 86  2  0  0  0  0
 86 87  1  0  0  0  0
 75 88  1  0  0  0  0
 88 89  2  0  0  0  0
 89 90  1  0  0  0  0
 89 91  1  0  0  0  0
 91 92  2  0  0  0  0
 92 93  1  0  0  0  0
 93 94  2  0  0  0  0
 94 95  1  0  0  0  0
 95 96  2  0  0  0  0
 96 97  1  0  0  0  0
 97 98  2  0  0  0  0
 98 99  1  0  0  0  0
 99100  1  0  0  0  0
100101  1  0  0  0  0
 98102  1  0  0  0  0
102103  2  0  0  0  0
 94104  1  0  0  0  0
104105  2  0  0  0  0
105106  1  0  0  0  0
106107  1  0  0  0  0
107108  2  0  0  0  0
108109  1  0  0  0  0
109110  2  0  0  0  0
110111  1  0  0  0  0
111112  1  0  0  0  0
112113  1  0  0  0  0
110114  1  0  0  0  0
114115  2  0  0  0  0
106116  2  0  0  0  0
116117  1  0  0  0  0
105118  1  0  0  0  0
118119  2  0  0  0  0
119120  1  0  0  0  0
119121  1  0  0  0  0
121122  2  0  0  0  0
122123  1  0  0  0  0
123124  2  0  0  0  0
124125  1  0  0  0  0
125126  1  0  0  0  0
126127  1  0  0  0  0
127128  1  0  0  0  0
128129  1  0  0  0  0
127130  2  0  0  0  0
130131  1  0  0  0  0
130132  1  0  0  0  0
132133  1  0  0  0  0
124134  1  0  0  0  0
134135  2  0  0  0  0
135136  1  0  0  0  0
136137  1  0  0  0  0
137138  1  0  0  0  0
138139  1  0  0  0  0
139140  1  0  0  0  0
140141  1  0  0  0  0
139142  2  0  0  0  0
142143  1  0  0  0  0
143144  1  0  0  0  0
142145  1  0  0  0  0
136146  2  0  0  0  0
146147  1  0  0  0  0
135148  1  0  0  0  0
148149  2  0  0  0  0
149150  1  0  0  0  0
149151  1  0  0  0  0
151152  2  0  0  0  0
152153  1  0  0  0  0
153154  2  0  0  0  0
154155  1  0  0  0  0
155156  1  0  0  0  0
156157  1  0  0  0  0
157158  1  0  0  0  0
158159  1  0  0  0  0
157160  2  0  0  0  0
160161  1  0  0  0  0
160162  1  0  0  0  0
162163  1  0  0  0  0
154164  1  0  0  0  0
164165  2  0  0  0  0
165166  1  0  0  0  0
166167  1  0  0  0  0
167168  1  0  0  0  0
168169  1  0  0  0  0
169170  1  0  0  0  0
170171  1  0  0  0  0
169172  2  0  0  0  0
172173  1  0  0  0  0
173174  1  0  0  0  0
172175  1  0  0  0  0
166176  2  0  0  0  0
176177  1  0  0  0  0
165178  1  0  0  0  0
178179  2  0  0  0  0
179180  1  0  0  0  0
 27  1  1  0  0  0  0
 57 31  1  0  0  0  0
 87 61  1  0  0  0  0
117 91  1  0  0  0  0
147121  1  0  0  0  0
177151  1  0  0  0  0
 26  3  1  0  0  0  0
 56 33  1  0  0  0  0
 86 63  1  0  0  0  0
116 93  1  0  0  0  0
146123  1  0  0  0  0
176153  1  0  0  0  0
 12  5  2  0  0  0  0
 30 14  1  0  0  0  0
 42 35  2  0  0  0  0
 60 44  1  0  0  0  0
 72 65  2  0  0  0  0
 90 74  1  0  0  0  0
103 95  1  0  0  0  0
120104  1  0  0  0  0
132125  2  0  0  0  0
150134  1  0  0  0  0
162155  2  0  0  0  0
180164  1  0  0  0  0
 23 17  2  0  0  0  0
 53 47  2  0  0  0  0
 83 77  2  0  0  0  0
115107  1  0  0  0  0
143137  2  0  0  0  0
173167  2  0  0  0  0
  1181  1  0  0  0  0
  2182  1  0  0  0  0
  8183  1  0  0  0  0
  8184  1  0  0  0  0
  9185  1  0  0  0  0
  9186  1  0  0  0  0
  9187  1  0  0  0  0
 20188  1  0  0  0  0
 20189  1  0  0  0  0
 21190  1  0  0  0  0
 21191  1  0  0  0  0
 21192  1  0  0  0  0
 28193  1  0  0  0  0
 32194  1  0  0  0  0
 38195  1  0  0  0  0
 38196  1  0  0  0  0
 39197  1  0  0  0  0
 39198  1  0  0  0  0
 39199  1  0  0  0  0
 50200  1  0  0  0  0
 50201  1  0  0  0  0
 51202  1  0  0  0  0
 51203  1  0  0  0  0
 51204  1  0  0  0  0
 58205  1  0  0  0  0
 62206  1  0  0  0  0
 68207  1  0  0  0  0
 68208  1  0  0  0  0
 69209  1  0  0  0  0
 69210  1  0  0  0  0
 69211  1  0  0  0  0
 80212  1  0  0  0  0
 80213  1  0  0  0  0
 81214  1  0  0  0  0
 81215  1  0  0  0  0
 81216  1  0  0  0  0
 88217  1  0  0  0  0
 92218  1  0  0  0  0
 96219  1  0  0  0  0
 97220  1  0  0  0  0
100221  1  0  0  0  0
100222  1  0  0  0  0
101223  1  0  0  0  0
101224  1  0  0  0  0
101225  1  0  0  0  0
102226  1  0  0  0  0
103227  1  0  0  0  0
108228  1  0  0  0  0
109229  1  0  0  0  0
112230  1  0  0  0  0
112231  1  0  0  0  0
113232  1  0  0  0  0
113233  1  0  0  0  0
113234  1  0  0  0  0
114235  1  0  0  0  0
115236  1  0  0  0  0
118237  1  0  0  0  0
122238  1  0  0  0  0
128239  1  0  0  0  0
128240  1  0  0  0  0
129241  1  0  0  0  0
129242  1  0  0  0  0
129243  1  0  0  0  0
140244  1  0  0  0  0
140245  1  0  0  0  0
141246  1  0  0  0  0
141247  1  0  0  0  0
141248  1  0  0  0  0
148249  1  0  0  0  0
152250  1  0  0  0  0
158251  1  0  0  0  0
158252  1  0  0  0  0
159253  1  0  0  0  0
159254  1  0  0  0  0
159255  1  0  0  0  0
170256  1  0  0  0  0
170257  1  0  0  0  0
171258  1  0  0  0  0
171259  1  0  0  0  0
171260  1  0  0  0  0
178261  1  0  0  0  0
179262  1  0  0  0  0
M  END
