
  xtb     03012208113D
 energy: -496.767849199745 gnorm: 0.000219334432 xtb: 6.4.1 (unknown)
270299  0     0  0            999 V2000
   16.7030  -14.4433   -0.7328 C   0  0  0  0  0  0  0  0  0  0  0  0
   16.9137  -13.2550   -0.1316 C   0  0  0  0  0  0  0  0  0  0  0  0
   16.0142  -12.2417   -0.5759 C   0  0  0  0  0  0  0  0  0  0  0  0
   15.9728  -10.8900   -0.1966 C   0  0  0  0  0  0  0  0  0  0  0  0
   16.8930  -10.3397    0.7863 C   0  0  0  0  0  0  0  0  0  0  0  0
   17.0351  -11.0222    2.3793 S   0  0  0  0  0  0  0  0  0  0  0  0
   18.1953   -9.8353    2.8709 C   0  0  0  0  0  0  0  0  0  0  0  0
   18.7339   -9.8114    4.2585 C   0  0  0  0  0  0  0  0  0  0  0  0
   17.7667   -9.0985    5.2066 C   0  0  0  0  0  0  0  0  0  0  0  0
   18.4436   -8.9669    1.8508 C   0  0  0  0  0  0  0  0  0  0  0  0
   19.5433   -7.6542    1.9574 Cl  0  0  0  0  0  0  0  0  0  0  0  0
   17.7092   -9.2498    0.6673 C   0  0  0  0  0  0  0  0  0  0  0  0
   17.9073   -8.3481   -0.7765 Cl  0  0  0  0  0  0  0  0  0  0  0  0
   14.9983  -10.0969   -0.7904 C   0  0  0  0  0  0  0  0  0  0  0  0
   14.0837  -10.6043   -1.7444 C   0  0  0  0  0  0  0  0  0  0  0  0
   14.1595  -11.9419   -2.1686 C   0  0  0  0  0  0  0  0  0  0  0  0
   13.2599  -12.4317   -3.1981 C   0  0  0  0  0  0  0  0  0  0  0  0
   12.3201  -13.8783   -2.9763 S   0  0  0  0  0  0  0  0  0  0  0  0
   11.5286  -13.6939   -4.5037 C   0  0  0  0  0  0  0  0  0  0  0  0
   10.4651  -14.6372   -4.9464 C   0  0  0  0  0  0  0  0  0  0  0  0
    9.0872  -14.1678   -4.4723 C   0  0  0  0  0  0  0  0  0  0  0  0
   11.9774  -12.5735   -5.1375 C   0  0  0  0  0  0  0  0  0  0  0  0
   12.9649  -11.8605   -4.4077 C   0  0  0  0  0  0  0  0  0  0  0  0
   13.7456  -10.4704   -5.0502 Cl  0  0  0  0  0  0  0  0  0  0  0  0
   11.4110  -12.0479   -6.6698 Cl  0  0  0  0  0  0  0  0  0  0  0  0
   15.1161  -12.7376   -1.5516 C   0  0  0  0  0  0  0  0  0  0  0  0
   15.4100  -14.4213   -1.8819 S   0  0  0  0  0  0  0  0  0  0  0  0
   13.1348   -9.6322   -2.1323 C   0  0  0  0  0  0  0  0  0  0  0  0
   13.3241   -8.4150   -1.5453 C   0  0  0  0  0  0  0  0  0  0  0  0
   14.6757   -8.4216   -0.4370 S   0  0  0  0  0  0  0  0  0  0  0  0
   12.5412   -7.2518   -1.8172 C   0  0  0  0  0  0  0  0  0  0  0  0
   11.6493   -7.1410   -2.8441 C   0  0  0  0  0  0  0  0  0  0  0  0
   10.9905   -5.8934   -2.8906 C   0  0  0  0  0  0  0  0  0  0  0  0
   10.0388   -5.4703   -3.8341 C   0  0  0  0  0  0  0  0  0  0  0  0
    9.7233   -6.3196   -4.9704 C   0  0  0  0  0  0  0  0  0  0  0  0
    8.0986   -6.8210   -5.3300 S   0  0  0  0  0  0  0  0  0  0  0  0
    8.6152   -7.8128   -6.6505 C   0  0  0  0  0  0  0  0  0  0  0  0
    7.6570   -8.6598   -7.4130 C   0  0  0  0  0  0  0  0  0  0  0  0
    7.6308  -10.0849   -6.8533 C   0  0  0  0  0  0  0  0  0  0  0  0
    9.9688   -7.7418   -6.7985 C   0  0  0  0  0  0  0  0  0  0  0  0
   10.8450   -8.5943   -8.0020 Cl  0  0  0  0  0  0  0  0  0  0  0  0
   10.6000   -6.8940   -5.8507 C   0  0  0  0  0  0  0  0  0  0  0  0
   12.2895   -6.5873   -5.8706 Cl  0  0  0  0  0  0  0  0  0  0  0  0
    9.4396   -4.2417   -3.6071 C   0  0  0  0  0  0  0  0  0  0  0  0
    9.7947   -3.4057   -2.5189 C   0  0  0  0  0  0  0  0  0  0  0  0
   10.7969   -3.8031   -1.6136 C   0  0  0  0  0  0  0  0  0  0  0  0
   11.1980   -2.9406   -0.5139 C   0  0  0  0  0  0  0  0  0  0  0  0
   11.7166   -1.3046   -0.8026 S   0  0  0  0  0  0  0  0  0  0  0  0
   12.0089   -1.0145    0.8790 C   0  0  0  0  0  0  0  0  0  0  0  0
   12.5542    0.2870    1.3532 C   0  0  0  0  0  0  0  0  0  0  0  0
   14.0692    0.3548    1.1475 C   0  0  0  0  0  0  0  0  0  0  0  0
   11.7221   -2.1302    1.6063 C   0  0  0  0  0  0  0  0  0  0  0  0
   11.2582   -3.2217    0.8225 C   0  0  0  0  0  0  0  0  0  0  0  0
   10.7438   -4.6978    1.5240 Cl  0  0  0  0  0  0  0  0  0  0  0  0
   11.8828   -2.2294    3.3118 Cl  0  0  0  0  0  0  0  0  0  0  0  0
   11.3711   -5.0514   -1.8169 C   0  0  0  0  0  0  0  0  0  0  0  0
   12.6111   -5.7989   -0.8471 S   0  0  0  0  0  0  0  0  0  0  0  0
    8.9937   -2.2392   -2.4723 C   0  0  0  0  0  0  0  0  0  0  0  0
    8.0729   -2.1683   -3.4779 C   0  0  0  0  0  0  0  0  0  0  0  0
    8.1750   -3.5350   -4.5676 S   0  0  0  0  0  0  0  0  0  0  0  0
    7.0411   -1.1950   -3.6427 C   0  0  0  0  0  0  0  0  0  0  0  0
    6.7027   -0.1949   -2.7778 C   0  0  0  0  0  0  0  0  0  0  0  0
    5.5327    0.5053   -3.1580 C   0  0  0  0  0  0  0  0  0  0  0  0
    4.8805    1.5240   -2.4519 C   0  0  0  0  0  0  0  0  0  0  0  0
    5.3697    2.0895   -1.1844 C   0  0  0  0  0  0  0  0  0  0  0  0
    4.5564    2.0300   -0.0546 C   0  0  0  0  0  0  0  0  0  0  0  0
    4.9302    2.6621    1.1134 C   0  0  0  0  0  0  0  0  0  0  0  0
    6.1231    3.3676    1.1635 C   0  0  0  0  0  0  0  0  0  0  0  0
    6.5367    4.2523    2.6531 S   0  0  0  0  0  0  0  0  0  0  0  0
    6.6063    5.9545    1.9806 C   0  0  0  0  0  0  0  0  0  0  0  0
    5.2594    6.4133    1.4585 C   0  0  0  0  0  0  0  0  0  0  0  0
    6.9693    3.3826    0.0642 C   0  0  0  0  0  0  0  0  0  0  0  0
    6.5931    2.7470   -1.1042 C   0  0  0  0  0  0  0  0  0  0  0  0
    3.6811    1.9676   -2.9786 C   0  0  0  0  0  0  0  0  0  0  0  0
    3.1091    1.4737   -4.1757 C   0  0  0  0  0  0  0  0  0  0  0  0
    3.7864    0.4834   -4.9085 C   0  0  0  0  0  0  0  0  0  0  0  0
    3.2505   -0.0136   -6.1809 C   0  0  0  0  0  0  0  0  0  0  0  0
    2.8552    0.8862   -7.1714 C   0  0  0  0  0  0  0  0  0  0  0  0
    2.3539    0.4333   -8.3716 C   0  0  0  0  0  0  0  0  0  0  0  0
    2.2330   -0.9334   -8.6138 C   0  0  0  0  0  0  0  0  0  0  0  0
    1.6072   -1.3976  -10.1993 S   0  0  0  0  0  0  0  0  0  0  0  0
    0.9941   -3.1034   -9.9689 C   0  0  0  0  0  0  0  0  0  0  0  0
   -0.1964   -3.1609   -9.0313 C   0  0  0  0  0  0  0  0  0  0  0  0
    2.6343   -1.8360   -7.6382 C   0  0  0  0  0  0  0  0  0  0  0  0
    3.1344   -1.3765   -6.4353 C   0  0  0  0  0  0  0  0  0  0  0  0
    4.9707    0.0065   -4.3613 C   0  0  0  0  0  0  0  0  0  0  0  0
    5.9482   -1.2862   -5.0085 S   0  0  0  0  0  0  0  0  0  0  0  0
    1.8142    2.0174   -4.4006 C   0  0  0  0  0  0  0  0  0  0  0  0
    1.4203    2.8973   -3.4379 C   0  0  0  0  0  0  0  0  0  0  0  0
    2.6648    3.1604   -2.2249 S   0  0  0  0  0  0  0  0  0  0  0  0
    0.1482    3.4851   -3.1728 C   0  0  0  0  0  0  0  0  0  0  0  0
   -0.1483    4.1690   -2.0320 C   0  0  0  0  0  0  0  0  0  0  0  0
   -1.5236    4.4452   -1.8690 C   0  0  0  0  0  0  0  0  0  0  0  0
   -2.1281    5.0072   -0.7330 C   0  0  0  0  0  0  0  0  0  0  0  0
   -1.2688    5.4694    0.3657 C   0  0  0  0  0  0  0  0  0  0  0  0
   -0.2403    6.3756    0.1050 C   0  0  0  0  0  0  0  0  0  0  0  0
    0.6818    6.6919    1.0782 C   0  0  0  0  0  0  0  0  0  0  0  0
    0.5980    6.1014    2.3356 C   0  0  0  0  0  0  0  0  0  0  0  0
    1.8755    6.4800    3.4970 S   0  0  0  0  0  0  0  0  0  0  0  0
    1.9847    4.9357    4.4859 C   0  0  0  0  0  0  0  0  0  0  0  0
    3.3832    4.7970    5.0566 C   0  0  0  0  0  0  0  0  0  0  0  0
   -0.4638    5.2552    2.6278 C   0  0  0  0  0  0  0  0  0  0  0  0
   -1.3871    4.9425    1.6474 C   0  0  0  0  0  0  0  0  0  0  0  0
   -3.5099    4.9936   -0.7100 C   0  0  0  0  0  0  0  0  0  0  0  0
   -4.2941    4.5298   -1.7979 C   0  0  0  0  0  0  0  0  0  0  0  0
   -3.6823    4.0298   -2.9631 C   0  0  0  0  0  0  0  0  0  0  0  0
   -4.4853    3.5873   -4.1089 C   0  0  0  0  0  0  0  0  0  0  0  0
   -5.4736    4.4161   -4.6336 C   0  0  0  0  0  0  0  0  0  0  0  0
   -6.2300    4.0253   -5.7213 C   0  0  0  0  0  0  0  0  0  0  0  0
   -6.0069    2.7884   -6.3118 C   0  0  0  0  0  0  0  0  0  0  0  0
   -6.9209    2.1580   -7.6852 S   0  0  0  0  0  0  0  0  0  0  0  0
   -7.6958    3.6267   -8.4467 C   0  0  0  0  0  0  0  0  0  0  0  0
   -6.6744    4.5474   -9.0865 C   0  0  0  0  0  0  0  0  0  0  0  0
   -5.0268    1.9487   -5.7871 C   0  0  0  0  0  0  0  0  0  0  0  0
   -4.2763    2.3428   -4.7015 C   0  0  0  0  0  0  0  0  0  0  0  0
   -2.2970    3.9546   -2.9479 C   0  0  0  0  0  0  0  0  0  0  0  0
   -1.2725    3.2174   -4.1644 S   0  0  0  0  0  0  0  0  0  0  0  0
   -5.6768    4.5333   -1.4813 C   0  0  0  0  0  0  0  0  0  0  0  0
   -5.9485    4.9692   -0.2185 C   0  0  0  0  0  0  0  0  0  0  0  0
   -4.5032    5.4702    0.6405 S   0  0  0  0  0  0  0  0  0  0  0  0
   -7.1908    4.9289    0.4783 C   0  0  0  0  0  0  0  0  0  0  0  0
   -7.3799    5.1220    1.8149 C   0  0  0  0  0  0  0  0  0  0  0  0
   -8.6964    4.8392    2.2485 C   0  0  0  0  0  0  0  0  0  0  0  0
   -9.2071    4.9060    3.5561 C   0  0  0  0  0  0  0  0  0  0  0  0
   -8.3674    5.2949    4.6768 C   0  0  0  0  0  0  0  0  0  0  0  0
   -6.8506    4.5011    4.9851 S   0  0  0  0  0  0  0  0  0  0  0  0
   -6.5380    5.4653    6.3885 C   0  0  0  0  0  0  0  0  0  0  0  0
   -5.2731    5.3077    7.1576 C   0  0  0  0  0  0  0  0  0  0  0  0
   -4.0808    5.8649    6.3771 C   0  0  0  0  0  0  0  0  0  0  0  0
   -7.5559    6.3480    6.5897 C   0  0  0  0  0  0  0  0  0  0  0  0
   -7.6035    7.4822    7.8766 Cl  0  0  0  0  0  0  0  0  0  0  0  0
   -8.5977    6.2499    5.6274 C   0  0  0  0  0  0  0  0  0  0  0  0
   -9.9522    7.2992    5.6319 Cl  0  0  0  0  0  0  0  0  0  0  0  0
  -10.5378    4.5481    3.7306 C   0  0  0  0  0  0  0  0  0  0  0  0
  -11.3741    4.1570    2.6560 C   0  0  0  0  0  0  0  0  0  0  0  0
  -10.8682    4.1091    1.3439 C   0  0  0  0  0  0  0  0  0  0  0  0
  -11.7182    3.7142    0.2325 C   0  0  0  0  0  0  0  0  0  0  0  0
  -13.2319    4.5227   -0.0578 S   0  0  0  0  0  0  0  0  0  0  0  0
  -13.5830    3.5440   -1.4421 C   0  0  0  0  0  0  0  0  0  0  0  0
  -14.8616    3.7009   -2.1883 C   0  0  0  0  0  0  0  0  0  0  0  0
  -16.0310    3.1058   -1.4014 C   0  0  0  0  0  0  0  0  0  0  0  0
  -12.5807    2.6449   -1.6490 C   0  0  0  0  0  0  0  0  0  0  0  0
  -11.5205    2.7402   -0.7058 C   0  0  0  0  0  0  0  0  0  0  0  0
  -10.1893    1.6613   -0.7179 Cl  0  0  0  0  0  0  0  0  0  0  0  0
  -12.5703    1.4952   -2.9231 Cl  0  0  0  0  0  0  0  0  0  0  0  0
   -9.5317    4.4419    1.1736 C   0  0  0  0  0  0  0  0  0  0  0  0
   -8.6628    4.4427   -0.3352 S   0  0  0  0  0  0  0  0  0  0  0  0
  -12.6565    3.7616    3.1037 C   0  0  0  0  0  0  0  0  0  0  0  0
  -12.8067    3.8327    4.4587 C   0  0  0  0  0  0  0  0  0  0  0  0
  -11.3643    4.4167    5.2548 S   0  0  0  0  0  0  0  0  0  0  0  0
  -13.9616    3.4551    5.2095 C   0  0  0  0  0  0  0  0  0  0  0  0
  -15.1870    3.1222    4.7099 C   0  0  0  0  0  0  0  0  0  0  0  0
  -16.1136    2.7275    5.7045 C   0  0  0  0  0  0  0  0  0  0  0  0
  -17.4519    2.3368    5.5319 C   0  0  0  0  0  0  0  0  0  0  0  0
  -18.0165    2.1839    4.2019 C   0  0  0  0  0  0  0  0  0  0  0  0
  -19.5001    2.9624    3.7395 S   0  0  0  0  0  0  0  0  0  0  0  0
  -19.4390    2.3032    2.1415 C   0  0  0  0  0  0  0  0  0  0  0  0
  -20.4640    2.6467    1.1178 C   0  0  0  0  0  0  0  0  0  0  0  0
  -20.0247    3.8600    0.2941 C   0  0  0  0  0  0  0  0  0  0  0  0
  -18.3269    1.5296    1.9895 C   0  0  0  0  0  0  0  0  0  0  0  0
  -17.9341    0.6980    0.5414 Cl  0  0  0  0  0  0  0  0  0  0  0  0
  -17.5187    1.4574    3.1544 C   0  0  0  0  0  0  0  0  0  0  0  0
  -16.1051    0.4847    3.2354 Cl  0  0  0  0  0  0  0  0  0  0  0  0
  -18.1879    2.0892    6.6838 C   0  0  0  0  0  0  0  0  0  0  0  0
  -17.6333    2.1664    7.9834 C   0  0  0  0  0  0  0  0  0  0  0  0
  -16.2820    2.5061    8.1525 C   0  0  0  0  0  0  0  0  0  0  0  0
  -15.6632    2.5546    9.4684 C   0  0  0  0  0  0  0  0  0  0  0  0
  -16.3019    3.5502   10.7425 S   0  0  0  0  0  0  0  0  0  0  0  0
  -15.0606    3.0696   11.8485 C   0  0  0  0  0  0  0  0  0  0  0  0
  -14.9829    3.6388   13.2220 C   0  0  0  0  0  0  0  0  0  0  0  0
  -14.1554    4.9264   13.2333 C   0  0  0  0  0  0  0  0  0  0  0  0
  -14.2057    2.1947   11.2481 C   0  0  0  0  0  0  0  0  0  0  0  0
  -14.5442    1.8987    9.9002 C   0  0  0  0  0  0  0  0  0  0  0  0
  -13.6687    0.7658    8.9586 Cl  0  0  0  0  0  0  0  0  0  0  0  0
  -12.8511    1.4926   12.0326 Cl  0  0  0  0  0  0  0  0  0  0  0  0
  -15.5540    2.7926    7.0042 C   0  0  0  0  0  0  0  0  0  0  0  0
  -13.8982    3.3221    6.9522 S   0  0  0  0  0  0  0  0  0  0  0  0
  -18.5883    1.8141    8.9820 C   0  0  0  0  0  0  0  0  0  0  0  0
  -19.7924    1.4958    8.4656 C   0  0  0  0  0  0  0  0  0  0  0  0
  -19.8559    1.5923    6.7396 S   0  0  0  0  0  0  0  0  0  0  0  0
   17.2344  -15.3620   -0.5795 H   0  0  0  0  0  0  0  0  0  0  0  0
   17.6795  -13.0864    0.6027 H   0  0  0  0  0  0  0  0  0  0  0  0
   18.8938  -10.8341    4.6048 H   0  0  0  0  0  0  0  0  0  0  0  0
   19.6924   -9.2892    4.2517 H   0  0  0  0  0  0  0  0  0  0  0  0
   16.8095   -9.6142    5.2266 H   0  0  0  0  0  0  0  0  0  0  0  0
   17.6032   -8.0753    4.8782 H   0  0  0  0  0  0  0  0  0  0  0  0
   18.1756   -9.0807    6.2132 H   0  0  0  0  0  0  0  0  0  0  0  0
   10.4749  -14.6918   -6.0367 H   0  0  0  0  0  0  0  0  0  0  0  0
   10.6716  -15.6295   -4.5428 H   0  0  0  0  0  0  0  0  0  0  0  0
    9.0624  -14.1070   -3.3869 H   0  0  0  0  0  0  0  0  0  0  0  0
    8.3220  -14.8658   -4.8007 H   0  0  0  0  0  0  0  0  0  0  0  0
    8.8623  -13.1861   -4.8817 H   0  0  0  0  0  0  0  0  0  0  0  0
   12.3205   -9.8400   -2.7990 H   0  0  0  0  0  0  0  0  0  0  0  0
   11.4605   -7.9302   -3.5459 H   0  0  0  0  0  0  0  0  0  0  0  0
    6.6597   -8.2222   -7.3532 H   0  0  0  0  0  0  0  0  0  0  0  0
    7.9666   -8.6885   -8.4599 H   0  0  0  0  0  0  0  0  0  0  0  0
    7.3193  -10.0757   -5.8113 H   0  0  0  0  0  0  0  0  0  0  0  0
    6.9349  -10.6966   -7.4211 H   0  0  0  0  0  0  0  0  0  0  0  0
    8.6196  -10.5318   -6.9176 H   0  0  0  0  0  0  0  0  0  0  0  0
   12.3218    0.3959    2.4140 H   0  0  0  0  0  0  0  0  0  0  0  0
   12.0774    1.1019    0.8051 H   0  0  0  0  0  0  0  0  0  0  0  0
   14.5601   -0.4457    1.6951 H   0  0  0  0  0  0  0  0  0  0  0  0
   14.3115    0.2535    0.0921 H   0  0  0  0  0  0  0  0  0  0  0  0
   14.4520    1.3071    1.5044 H   0  0  0  0  0  0  0  0  0  0  0  0
    9.0830   -1.4930   -1.7053 H   0  0  0  0  0  0  0  0  0  0  0  0
    7.2407    0.0191   -1.8724 H   0  0  0  0  0  0  0  0  0  0  0  0
    3.6228    1.4893   -0.0974 H   0  0  0  0  0  0  0  0  0  0  0  0
    4.2950    2.6296    1.9852 H   0  0  0  0  0  0  0  0  0  0  0  0
    7.3681    5.9772    1.2017 H   0  0  0  0  0  0  0  0  0  0  0  0
    6.9347    6.5646    2.8211 H   0  0  0  0  0  0  0  0  0  0  0  0
    4.9216    5.7694    0.6474 H   0  0  0  0  0  0  0  0  0  0  0  0
    4.5127    6.3963    2.2491 H   0  0  0  0  0  0  0  0  0  0  0  0
    5.3397    7.4314    1.0824 H   0  0  0  0  0  0  0  0  0  0  0  0
    7.9156    3.9006    0.1171 H   0  0  0  0  0  0  0  0  0  0  0  0
    7.2386    2.7812   -1.9700 H   0  0  0  0  0  0  0  0  0  0  0  0
    2.9604    1.9475   -7.0003 H   0  0  0  0  0  0  0  0  0  0  0  0
    2.0517    1.1302   -9.1384 H   0  0  0  0  0  0  0  0  0  0  0  0
    1.8198   -3.7287   -9.6311 H   0  0  0  0  0  0  0  0  0  0  0  0
    0.7136   -3.4134  -10.9755 H   0  0  0  0  0  0  0  0  0  0  0  0
   -1.0032   -2.5382   -9.4107 H   0  0  0  0  0  0  0  0  0  0  0  0
    0.0731   -2.8061   -8.0385 H   0  0  0  0  0  0  0  0  0  0  0  0
   -0.5547   -4.1854   -8.9496 H   0  0  0  0  0  0  0  0  0  0  0  0
    2.5695   -2.8999   -7.8022 H   0  0  0  0  0  0  0  0  0  0  0  0
    3.4215   -2.0906   -5.6780 H   0  0  0  0  0  0  0  0  0  0  0  0
    1.1767    1.7225   -5.2154 H   0  0  0  0  0  0  0  0  0  0  0  0
    0.5927    4.4118   -1.2916 H   0  0  0  0  0  0  0  0  0  0  0  0
   -0.1613    6.8218   -0.8756 H   0  0  0  0  0  0  0  0  0  0  0  0
    1.4903    7.3760    0.8701 H   0  0  0  0  0  0  0  0  0  0  0  0
    1.7493    4.1115    3.8130 H   0  0  0  0  0  0  0  0  0  0  0  0
    1.2421    4.9889    5.2831 H   0  0  0  0  0  0  0  0  0  0  0  0
    3.4425    3.9017    5.6720 H   0  0  0  0  0  0  0  0  0  0  0  0
    4.1210    4.7185    4.2616 H   0  0  0  0  0  0  0  0  0  0  0  0
    3.6303    5.6587    5.6722 H   0  0  0  0  0  0  0  0  0  0  0  0
   -0.5695    4.8255    3.6120 H   0  0  0  0  0  0  0  0  0  0  0  0
   -2.1892    4.2549    1.8716 H   0  0  0  0  0  0  0  0  0  0  0  0
   -5.6406    5.3896   -4.1952 H   0  0  0  0  0  0  0  0  0  0  0  0
   -6.9916    4.6926   -6.0931 H   0  0  0  0  0  0  0  0  0  0  0  0
   -8.3635    3.2041   -9.1976 H   0  0  0  0  0  0  0  0  0  0  0  0
   -8.2986    4.1327   -7.6935 H   0  0  0  0  0  0  0  0  0  0  0  0
   -7.1781    5.3907   -9.5555 H   0  0  0  0  0  0  0  0  0  0  0  0
   -5.9743    4.9277   -8.3454 H   0  0  0  0  0  0  0  0  0  0  0  0
   -6.1107    4.0113   -9.8464 H   0  0  0  0  0  0  0  0  0  0  0  0
   -4.8663    0.9833   -6.2423 H   0  0  0  0  0  0  0  0  0  0  0  0
   -3.5332    1.6732   -4.2961 H   0  0  0  0  0  0  0  0  0  0  0  0
   -6.4411    4.1666   -2.1436 H   0  0  0  0  0  0  0  0  0  0  0  0
   -6.5856    5.4330    2.4684 H   0  0  0  0  0  0  0  0  0  0  0  0
   -5.1043    4.2490    7.3665 H   0  0  0  0  0  0  0  0  0  0  0  0
   -5.3757    5.8374    8.1060 H   0  0  0  0  0  0  0  0  0  0  0  0
   -4.2241    6.9229    6.1720 H   0  0  0  0  0  0  0  0  0  0  0  0
   -3.9704    5.3404    5.4307 H   0  0  0  0  0  0  0  0  0  0  0  0
   -3.1679    5.7435    6.9540 H   0  0  0  0  0  0  0  0  0  0  0  0
  -14.7669    3.1928   -3.1492 H   0  0  0  0  0  0  0  0  0  0  0  0
  -15.0507    4.7610   -2.3700 H   0  0  0  0  0  0  0  0  0  0  0  0
  -15.8592    2.0497   -1.2109 H   0  0  0  0  0  0  0  0  0  0  0  0
  -16.9532    3.2106   -1.9669 H   0  0  0  0  0  0  0  0  0  0  0  0
  -16.1438    3.6170   -0.4477 H   0  0  0  0  0  0  0  0  0  0  0  0
  -13.4267    3.4030    2.4474 H   0  0  0  0  0  0  0  0  0  0  0  0
  -15.4298    3.1788    3.6658 H   0  0  0  0  0  0  0  0  0  0  0  0
  -20.6017    1.7894    0.4557 H   0  0  0  0  0  0  0  0  0  0  0  0
  -21.4112    2.8636    1.6131 H   0  0  0  0  0  0  0  0  0  0  0  0
  -20.7788    4.0980   -0.4510 H   0  0  0  0  0  0  0  0  0  0  0  0
  -19.0864    3.6492   -0.2126 H   0  0  0  0  0  0  0  0  0  0  0  0
  -19.8857    4.7239    0.9394 H   0  0  0  0  0  0  0  0  0  0  0  0
  -14.5189    2.9019   13.8806 H   0  0  0  0  0  0  0  0  0  0  0  0
  -15.9901    3.8495   13.5850 H   0  0  0  0  0  0  0  0  0  0  0  0
  -13.1453    4.7274   12.8848 H   0  0  0  0  0  0  0  0  0  0  0  0
  -14.1039    5.3279   14.2417 H   0  0  0  0  0  0  0  0  0  0  0  0
  -14.6071    5.6714   12.5826 H   0  0  0  0  0  0  0  0  0  0  0  0
  -18.3683    1.8014   10.0334 H   0  0  0  0  0  0  0  0  0  0  0  0
  -20.6773    1.1987    8.9936 H   0  0  0  0  0  0  0  0  0  0  0  0
  1  2  2  0  0  0  0
  2  3  1  0  0  0  0
  3  4  2  0  0  0  0
  4  5  1  0  0  0  0
  5  6  1  0  0  0  0
  6  7  1  0  0  0  0
  7  8  1  0  0  0  0
  8  9  1  0  0  0  0
  7 10  2  0  0  0  0
 10 11  1  0  0  0  0
 10 12  1  0  0  0  0
 12 13  1  0  0  0  0
  4 14  1  0  0  0  0
 14 15  2  0  0  0  0
 15 16  1  0  0  0  0
 16 17  1  0  0  0  0
 17 18  1  0  0  0  0
 18 19  1  0  0  0  0
 19 20  1  0  0  0  0
 20 21  1  0  0  0  0
 19 22  2  0  0  0  0
 22 23  1  0  0  0  0
 23 24  1  0  0  0  0
 22 25  1  0  0  0  0
 16 26  2  0  0  0  0
 26 27  1  0  0  0  0
 15 28  1  0  0  0  0
 28 29  2  0  0  0  0
 29 30  1  0  0  0  0
 29 31  1  0  0  0  0
 31 32  2  0  0  0  0
 32 33  1  0  0  0  0
 33 34  2  0  0  0  0
 34 35  1  0  0  0  0
 35 36  1  0  0  0  0
 36 37  1  0  0  0  0
 37 38  1  0  0  0  0
 38 39  1  0  0  0  0
 37 40  2  0  0  0  0
 40 41  1  0  0  0  0
 40 42  1  0  0  0  0
 42 43  1  0  0  0  0
 34 44  1  0  0  0  0
 44 45  2  0  0  0  0
 45 46  1  0  0  0  0
 46 47  1  0  0  0  0
 47 48  1  0  0  0  0
 48 49  1  0  0  0  0
 49 50  1  0  0  0  0
 50 51  1  0  0  0  0
 49 52  2  0  0  0  0
 52 53  1  0  0  0  0
 53 54  1  0  0  0  0
 52 55  1  0  0  0  0
 46 56  2  0  0  0  0
 56 57  1  0  0  0  0
 45 58  1  0  0  0  0
 58 59  2  0  0  0  0
 59 60  1  0  0  0  0
 59 61  1  0  0  0  0
 61 62  2  0  0  0  0
 62 63  1  0  0  0  0
 63 64  2  0  0  0  0
 64 65  1  0  0  0  0
 65 66  2  0  0  0  0
 66 67  1  0  0  0  0
 67 68  2  0  0  0  0
 68 69  1  0  0  0  0
 69 70  1  0  0  0  0
 70 71  1  0  0  0  0
 68 72  1  0  0  0  0
 72 73  2  0  0  0  0
 64 74  1  0  0  0  0
 74 75  2  0  0  0  0
 75 76  1  0  0  0  0
 76 77  1  0  0  0  0
 77 78  2  0  0  0  0
 78 79  1  0  0  0  0
 79 80  2  0  0  0  0
 80 81  1  0  0  0  0
 81 82  1  0  0  0  0
 82 83  1  0  0  0  0
 80 84  1  0  0  0  0
 84 85  2  0  0  0  0
 76 86  2  0  0  0  0
 86 87  1  0  0  0  0
 75 88  1  0  0  0  0
 88 89  2  0  0  0  0
 89 90  1  0  0  0  0
 89 91  1  0  0  0  0
 91 92  2  0  0  0  0
 92 93  1  0  0  0  0
 93 94  2  0  0  0  0
 94 95  1  0  0  0  0
 95 96  2  0  0  0  0
 96 97  1  0  0  0  0
 97 98  2  0  0  0  0
 98 99  1  0  0  0  0
 99100  1  0  0  0  0
100101  1  0  0  0  0
 98102  1  0  0  0  0
102103  2  0  0  0  0
 94104  1  0  0  0  0
104105  2  0  0  0  0
105106  1  0  0  0  0
106107  1  0  0  0  0
107108  2  0  0  0  0
108109  1  0  0  0  0
109110  2  0  0  0  0
110111  1  0  0  0  0
111112  1  0  0  0  0
112113  1  0  0  0  0
110114  1  0  0  0  0
114115  2  0  0  0  0
106116  2  0  0  0  0
116117  1  0  0  0  0
105118  1  0  0  0  0
118119  2  0  0  0  0
119120  1  0  0  0  0
119121  1  0  0  0  0
121122  2  0  0  0  0
122123  1  0  0  0  0
123124  2  0  0  0  0
124125  1  0  0  0  0
125126  1  0  0  0  0
126127  1  0  0  0  0
127128  1  0  0  0  0
128129  1  0  0  0  0
127130  2  0  0  0  0
130131  1  0  0  0  0
130132  1  0  0  0  0
132133  1  0  0  0  0
124134  1  0  0  0  0
134135  2  0  0  0  0
135136  1  0  0  0  0
136137  1  0  0  0  0
137138  1  0  0  0  0
138139  1  0  0  0  0
139140  1  0  0  0  0
140141  1  0  0  0  0
139142  2  0  0  0  0
142143  1  0  0  0  0
143144  1  0  0  0  0
142145  1  0  0  0  0
136146  2  0  0  0  0
146147  1  0  0  0  0
135148  1  0  0  0  0
148149  2  0  0  0  0
149150  1  0  0  0  0
149151  1  0  0  0  0
151152  2  0  0  0  0
152153  1  0  0  0  0
153154  2  0  0  0  0
154155  1  0  0  0  0
155156  1  0  0  0  0
156157  1  0  0  0  0
157158  1  0  0  0  0
158159  1  0  0  0  0
157160  2  0  0  0  0
160161  1  0  0  0  0
160162  1  0  0  0  0
162163  1  0  0  0  0
154164  1  0  0  0  0
164165  2  0  0  0  0
165166  1  0  0  0  0
166167  1  0  0  0  0
167168  1  0  0  0  0
168169  1  0  0  0  0
169170  1  0  0  0  0
170171  1  0  0  0  0
169172  2  0  0  0  0
172173  1  0  0  0  0
173174  1  0  0  0  0
172175  1  0  0  0  0
166176  2  0  0  0  0
176177  1  0  0  0  0
165178  1  0  0  0  0
178179  2  0  0  0  0
179180  1  0  0  0  0
 27  1  1  0  0  0  0
 57 31  1  0  0  0  0
 87 61  1  0  0  0  0
117 91  1  0  0  0  0
147121  1  0  0  0  0
177151  1  0  0  0  0
 26  3  1  0  0  0  0
 56 33  1  0  0  0  0
 86 63  1  0  0  0  0
116 93  1  0  0  0  0
146123  1  0  0  0  0
176153  1  0  0  0  0
 12  5  2  0  0  0  0
 30 14  1  0  0  0  0
 42 35  2  0  0  0  0
 60 44  1  0  0  0  0
 73 65  1  0  0  0  0
 90 74  1  0  0  0  0
103 95  1  0  0  0  0
120104  1  0  0  0  0
132125  2  0  0  0  0
150134  1  0  0  0  0
162155  2  0  0  0  0
180164  1  0  0  0  0
 23 17  2  0  0  0  0
 53 47  2  0  0  0  0
 85 77  1  0  0  0  0
115107  1  0  0  0  0
143137  2  0  0  0  0
173167  2  0  0  0  0
  1181  1  0  0  0  0
  2182  1  0  0  0  0
  8183  1  0  0  0  0
  8184  1  0  0  0  0
  9185  1  0  0  0  0
  9186  1  0  0  0  0
  9187  1  0  0  0  0
 20188  1  0  0  0  0
 20189  1  0  0  0  0
 21190  1  0  0  0  0
 21191  1  0  0  0  0
 21192  1  0  0  0  0
 28193  1  0  0  0  0
 32194  1  0  0  0  0
 38195  1  0  0  0  0
 38196  1  0  0  0  0
 39197  1  0  0  0  0
 39198  1  0  0  0  0
 39199  1  0  0  0  0
 50200  1  0  0  0  0
 50201  1  0  0  0  0
 51202  1  0  0  0  0
 51203  1  0  0  0  0
 51204  1  0  0  0  0
 58205  1  0  0  0  0
 62206  1  0  0  0  0
 66207  1  0  0  0  0
 67208  1  0  0  0  0
 70209  1  0  0  0  0
 70210  1  0  0  0  0
 71211  1  0  0  0  0
 71212  1  0  0  0  0
 71213  1  0  0  0  0
 72214  1  0  0  0  0
 73215  1  0  0  0  0
 78216  1  0  0  0  0
 79217  1  0  0  0  0
 82218  1  0  0  0  0
 82219  1  0  0  0  0
 83220  1  0  0  0  0
 83221  1  0  0  0  0
 83222  1  0  0  0  0
 84223  1  0  0  0  0
 85224  1  0  0  0  0
 88225  1  0  0  0  0
 92226  1  0  0  0  0
 96227  1  0  0  0  0
 97228  1  0  0  0  0
100229  1  0  0  0  0
100230  1  0  0  0  0
101231  1  0  0  0  0
101232  1  0  0  0  0
101233  1  0  0  0  0
102234  1  0  0  0  0
103235  1  0  0  0  0
108236  1  0  0  0  0
109237  1  0  0  0  0
112238  1  0  0  0  0
112239  1  0  0  0  0
113240  1  0  0  0  0
113241  1  0  0  0  0
113242  1  0  0  0  0
114243  1  0  0  0  0
115244  1  0  0  0  0
118245  1  0  0  0  0
122246  1  0  0  0  0
128247  1  0  0  0  0
128248  1  0  0  0  0
129249  1  0  0  0  0
129250  1  0  0  0  0
129251  1  0  0  0  0
140252  1  0  0  0  0
140253  1  0  0  0  0
141254  1  0  0  0  0
141255  1  0  0  0  0
141256  1  0  0  0  0
148257  1  0  0  0  0
152258  1  0  0  0  0
158259  1  0  0  0  0
158260  1  0  0  0  0
159261  1  0  0  0  0
159262  1  0  0  0  0
159263  1  0  0  0  0
170264  1  0  0  0  0
170265  1  0  0  0  0
171266  1  0  0  0  0
171267  1  0  0  0  0
171268  1  0  0  0  0
178269  1  0  0  0  0
179270  1  0  0  0  0
M  END
