262

C         -8.22480        1.15270        1.47660
C         -7.19840        0.65600        0.75720
C         -6.03730        0.40890        1.54600
C         -4.78700       -0.08110        1.12830
C         -4.62930       -0.67010       -0.18820
S         -3.27370       -0.33050       -1.21820
C         -3.84570       -1.38330       -2.46260
C         -3.07980       -1.59050       -3.72200
C         -2.15190       -2.80160       -3.60390
C         -5.00770       -1.98280       -2.07600
Cl        -5.86680       -3.10850       -3.04500
C         -5.45490       -1.58500       -0.78940
Cl        -6.83870       -2.28450       -0.05290
C         -3.75410       -0.02650        2.05780
C         -3.96150        0.34110        3.41050
C         -5.23910        0.71800        3.85490
C         -5.50090        1.02060        5.25340
S         -6.73450        0.15160        6.11990
C         -6.40550        0.99370        7.59380
C         -7.12680        0.66810        8.85510
C         -6.34600       -0.35830        9.67970
C         -5.39570        1.89040        7.41140
C         -4.88500        1.91260        6.08610
Cl        -3.67290        3.02280        5.59930
Cl        -4.78490        2.90710        8.65340
C         -6.24240        0.77380        2.89630
S         -7.86350        1.35050        3.15660
C         -2.77290        0.24410        4.17450
C         -1.68370       -0.12180        3.44270
S         -2.08570       -0.43570        1.76650
C         -0.34230       -0.25450        3.91660
C          0.06270       -0.36290        5.21440
C          1.45880       -0.55280        5.35940
C          2.18870       -0.81370        6.53880
C          1.60130       -0.74080        7.86190
S          0.02890       -1.37510        8.24990
C          0.13460       -0.86870        9.90020
C         -0.99830       -1.08860       10.84030
C         -2.18320       -0.18310       10.49730
C          1.32310       -0.24030       10.12580
Cl         1.79350        0.41250       11.64240
C          2.15680       -0.16900        8.97880
Cl         3.65650        0.66110        9.00520
C          3.52010       -1.18660        6.36520
C          4.18180       -1.10300        5.11970
C          3.48920       -0.69080        3.96650
C          4.17290       -0.55820        2.69790
S          3.50350       -1.20590        1.23140
C          4.84650       -0.66610        0.28620
C          4.86780       -0.87540       -1.18690
C          4.06700        0.21760       -1.89920
C          5.74980       -0.01350        1.07160
C          5.37580        0.04660        2.43990
Cl         6.31320        0.87990        3.61110
Cl         7.20910        0.67060        0.48410
C          2.11720       -0.52480        4.10470
S          0.99740       -0.29380        2.79490
C          5.44670       -1.73660        5.14390
C          5.71290       -2.38080        6.31720
S          4.50390       -2.04330        7.53530
C          6.55110       -3.55290        6.31120
C          6.04650       -4.80480        6.51820
C          6.60990       -5.77740        5.64980
C          5.94700       -6.95800        5.23930
C          4.94140       -7.55320        6.08700
S          3.43320       -8.17910        5.47800
C          2.88830       -8.63290        7.05620
C          1.56100       -9.27620        7.26030
C          0.49320       -8.25570        7.66030
C          3.82180       -8.30130        7.99390
Cl         3.63250       -8.59960        9.67390
C          4.98420       -7.69420        7.45300
Cl         6.33060       -7.27420        8.43010
C          6.16270       -7.31510        3.91210
C          7.17280       -6.74350        3.09510
C          8.06050       -5.79740        3.64760
C          9.21190       -5.23950        2.97120
S          9.25140       -4.77760        1.29410
C         10.87450       -4.19190        1.40070
C         11.58500       -3.66640        0.20360
C         12.23060       -4.80480       -0.59050
C         11.35480       -4.36300        2.66470
C         10.41580       -4.94020        3.55850
Cl        10.80870       -5.29340        5.18810
Cl        12.93890       -3.92090        3.15280
C          7.65120       -5.24530        4.86300
S          7.98390       -3.58380        5.30040
C          6.90260       -6.92400        1.71020
C          5.68220       -7.48970        1.47750
S          5.00820       -8.19790        2.94320
C          4.74990       -7.00070        0.49260
C          3.62230       -6.37690        0.94340
C          3.10280       -5.41750        0.04690
C          2.19210       -4.39780        0.36730
C          1.79160       -4.18410        1.76310
C          2.77940       -4.19040        2.74870
C          2.46100       -4.07300        4.08470
C          1.13270       -3.93260        4.46570
S          0.60720       -3.87440        6.14790
C          2.01050       -4.63630        7.04820
C          1.66360       -4.76990        8.51760
C          0.14860       -3.83200        3.48480
C          0.47320       -3.95710        2.15000
C          1.85370       -3.54210       -0.66540
C          2.41860       -3.63420       -1.96450
C          3.41490       -4.59220       -2.24380
C          4.08230       -4.65630       -3.54880
C          4.21800       -5.88190       -4.20140
C          4.80620       -5.95620       -5.44460
C          5.28980       -4.80680       -6.06540
S          6.03340       -5.01440       -7.65380
C          5.90910       -3.36360       -8.42910
C          4.47020       -2.94630       -8.66420
C          5.19670       -3.58830       -5.40590
C          4.59230       -3.51720       -4.16630
C          3.75140       -5.45480       -1.20890
S          5.10560       -6.57530       -1.16900
C          1.91840       -2.61280       -2.81510
C          1.07180       -1.74860       -2.18670
S          0.77850       -2.18320       -0.51500
C          0.43250       -0.58210       -2.69770
C         -0.27940        0.32630       -1.97360
C         -0.84050        1.36300       -2.75770
C         -1.65110        2.42980       -2.32860
C         -1.91290        2.64450       -0.91580
S         -0.59200        2.68930        0.21680
C         -1.63590        3.01820        1.55260
C         -1.08770        3.24540        2.91710
C         -0.82310        4.73300        3.16010
C         -2.93050        3.08930        1.13220
Cl        -4.26000        3.40910        2.16830
C         -3.09320        2.87270       -0.26190
Cl        -4.64290        2.81020       -0.98690
C         -2.13990        3.27920       -3.31380
C         -1.82770        3.12390       -4.68900
C         -0.98260        2.08200       -5.10990
C         -0.58860        1.93240       -6.50030
S         -0.73500        0.40040       -7.31150
C         -0.07530        1.02560       -8.78290
C          0.15200        0.14510       -9.96160
C          1.50060       -0.57040       -9.84900
C          0.24240        2.34300       -8.63710
C         -0.05270        2.86290       -7.34810
Cl         0.32480        4.47930       -6.90560
Cl         0.93760        3.30070       -9.87980
C         -0.53280        1.20700       -4.13060
S          0.48340       -0.18430       -4.40180
C         -2.45490        4.10960       -5.48780
C         -3.17860        5.01250       -4.76610
S         -3.14870        4.67070       -3.05300
C         -3.88660        6.14590       -5.27440
C         -3.66950        6.77200       -6.46540
C         -4.51300        7.89080       -6.67660
C         -4.55360        8.74660       -7.79050
C         -3.63040        8.57930       -8.90030
S         -1.91330        8.49550       -8.62930
C         -1.57260        8.32990      -10.31790
C         -0.17780        8.13760      -10.80050
C          0.29220        6.70420      -10.54410
C         -2.73110        8.33410      -11.03510
Cl        -2.80200        8.17950      -12.74270
C         -3.89850        8.48270      -10.23740
Cl        -5.47590        8.44700      -10.90540
C         -5.49100        9.77270       -7.76140
C         -6.39680        9.95750       -6.68860
C         -6.38290        9.07650       -5.59610
C         -7.35120        9.18670       -4.51820
S         -6.86450        9.21670       -2.85010
C         -8.50040        9.30380       -2.29390
C         -8.82000        9.29690       -0.84010
C         -8.84650        7.86500       -0.29960
C         -9.36200        9.29860       -3.35020
C         -8.71480        9.23750       -4.61320
Cl        -9.58290        9.14750       -6.09140
Cl       -11.07010        9.36090       -3.19360
C         -5.41400        8.08070       -5.60150
S         -5.16860        6.89620       -4.35030
C         -7.19420       11.12490       -6.87100
C         -6.91170       11.77740       -8.01680
S         -5.66810       11.02730       -8.95410
H         -9.19930        1.43250        1.12710
H         -7.23710        0.50100       -0.30520
H         -3.78270       -1.75130       -4.54190
H         -2.49520       -0.69590       -3.93910
H         -2.73420       -3.70890       -3.46730
H         -1.48670       -2.68620       -2.75190
H         -1.55260       -2.90080       -4.50500
H         -8.11390        0.27150        8.61420
H         -7.24910        1.58340        9.43800
H         -6.88460       -0.58860       10.59490
H         -5.36730        0.03650        9.93950
H         -6.21210       -1.27600        9.11210
H         -2.72600        0.45950        5.22480
H         -0.62550       -0.36030        6.03720
H         -0.65390       -0.88000       11.85430
H         -1.31760       -2.13190       10.78800
H         -2.99400       -0.35020       11.20150
H         -2.54090       -0.39590        9.49230
H         -1.88870        0.86230       10.54730
H          5.90310       -0.86140       -1.53290
H          4.43470       -1.85240       -1.41030
H          4.04420        0.03380       -2.97040
H          3.04490        0.23880       -1.52820
H          4.51850        1.19040       -1.72270
H          6.06330       -1.85310        4.27160
H          5.16580       -4.98330        7.10890
H          1.26240       -9.77500        6.33720
H          1.65430      -10.02570        8.04930
H          0.37740       -7.50100        6.88640
H          0.77220       -7.76810        8.59030
H         -0.46120       -8.75540        7.80210
H         10.87760       -3.13330       -0.43390
H         12.35610       -2.96790        0.53380
H         11.47200       -5.50640       -0.92950
H         12.94610       -5.33820        0.03010
H         12.75030       -4.40650       -1.45760
H          7.47650       -6.46070        0.92920
H          3.22710       -6.52830        1.93090
H          3.81830       -4.27890        2.46490
H          3.25560       -4.09690        4.81380
H          2.88080       -3.99410        6.92490
H          2.19510       -5.60870        6.58990
H          0.71610       -5.28800        8.64180
H          2.44300       -5.33210        9.02750
H          1.58430       -3.78910        8.98000
H         -0.87650       -3.68030        3.78740
H         -0.30710       -3.91530        1.40520
H          3.82950       -6.77750       -3.74050
H          4.89370       -6.90340       -5.95400
H          6.45330       -2.64640       -7.81560
H          6.43950       -3.48440       -9.37350
H          3.96390       -3.67950       -9.28750
H          4.44120       -1.98150       -9.16680
H          3.93050       -2.86440       -7.72280
H          5.59930       -2.68780       -5.84300
H          4.54420       -2.56470       -3.66060
H          2.17850       -2.51460       -3.85370
H         -0.40790        0.23870       -0.91050
H         -0.15820        2.68470        3.02970
H         -1.80620        2.87980        3.65230
H         -0.42800        4.88020        4.16160
H         -1.74530        5.30000        3.06260
H         -0.10260        5.11270        2.43960
H         -0.64750       -0.59480      -10.02220
H          0.13550        0.75560      -10.86610
H          1.52940       -1.18060       -8.94940
H          1.65640       -1.21160      -10.71220
H          2.30770        0.15660       -9.80340
H         -2.39740        4.13030       -6.55950
H         -2.91600        6.45530       -7.16160
H          0.48610        8.83330      -10.28350
H         -0.14530        8.35170      -11.86990
H          0.26730        6.48320       -9.47960
H         -0.35220        5.99750      -11.06140
H          1.30980        6.57360      -10.90280
H         -8.06840        9.87490       -0.29990
H         -9.79560        9.76340       -0.69200
H         -9.07790        7.87060        0.76200
H         -7.87960        7.38900       -0.44490
H         -9.60250        7.28080       -0.81830
H         -7.92620       11.45940       -6.15970
H         -7.36080       12.67710       -8.38980
