225

C          4.62870        4.73420       12.52820
C          4.42970        5.80040       11.72690
C          3.93160        5.44010       10.44110
C          3.66450        6.27890        9.34790
C          3.96670        7.70060        9.38730
S          2.77670        8.89650        8.97100
C          3.88580       10.20000        9.22360
C          3.48760       11.61070        8.96430
C          3.61030       11.94250        7.47500
C          5.10570        9.71980        9.59670
Cl         6.46690       10.71240        9.92480
C          5.15470        8.30350        9.69510
Cl         6.59650        7.45420       10.07860
C          3.14050        5.68230        8.20860
C          2.91690        4.28850        8.11000
C          3.22290        3.43940        9.18800
C          3.05380        2.00050        9.06870
S          3.75450        1.13450        7.72970
C          3.14540       -0.38510        8.28440
C          3.37160       -1.65010        7.52950
C          4.52340       -1.54500        6.53990
C          2.44280       -0.21450        9.44080
C          2.38900        1.13200        9.88950
Cl         1.49030        1.59970       11.27130
Cl         1.68030       -1.50090       10.28430
C          3.72060        4.04270       10.33680
S          4.21160        3.22660       11.79320
C          2.40000        3.92780        6.84390
C          2.26410        4.98120        5.98680
S          2.74230        6.49570        6.72070
C          1.86450        4.89430        4.61900
C          1.51080        3.74950        3.96430
C          1.32060        3.92560        2.57560
C          1.08990        2.93930        1.60000
C          0.99940        1.52880        1.93540
S         -0.30050        0.57100        1.27460
C          0.19110       -0.84600        2.13360
C         -0.56320       -2.12060        1.99960
C         -1.90670       -2.07020        2.72750
C          1.29260       -0.57990        2.88910
Cl         2.02870       -1.73130        3.92380
C          1.76810        0.75510        2.76470
Cl         3.24010        1.25390        3.50540
C          0.90110        3.39070        0.29830
C          0.90670        4.75940       -0.06500
C          1.19230        5.73660        0.90500
C          1.26070        7.14680        0.56110
S          2.27740        7.70570       -0.73550
C          1.84450        9.35960       -0.46960
C          2.37040       10.44500       -1.34210
C          1.54430       10.56240       -2.62540
C          0.95320        9.45510        0.55690
C          0.62420        8.20540        1.14800
Cl        -0.52890        8.06470        2.40720
Cl         0.28300       10.93560        1.10700
C          1.42330        5.29000        2.20050
S          1.88450        6.28090        3.55570
C          0.57600        4.94720       -1.43500
C          0.39930        3.78080       -2.10960
S          0.61480        2.37600       -1.08050
C         -0.05390        3.49760       -3.43870
C          0.22070        2.35340       -4.12380
C         -0.61620        2.14530       -5.24540
C         -0.67070        1.01510       -6.07870
C          0.21760       -0.12030       -5.89620
S          0.46450       -0.82590       -4.32370
C          1.40500       -2.12920       -4.96160
C          1.94380       -3.19810       -4.07470
C          0.88050       -3.73520       -3.11950
C          1.52830       -2.00130       -6.31320
Cl         2.40500       -3.09400       -7.30600
C          0.85400       -0.87030       -6.84650
Cl         0.91120       -0.46770       -8.51120
C         -1.73900        0.94770       -6.96580
C         -2.74590        1.94030       -7.03680
C         -2.62790        3.11600       -6.27810
C         -3.65670        4.14410       -6.34110
S         -4.00900        4.96050       -7.83470
C         -5.24520        5.92690       -7.10380
C         -5.97540        6.96690       -7.87950
C         -5.22230        8.29910       -7.85090
C         -5.36410        5.62210       -5.78100
C         -4.47050        4.60600       -5.34580
Cl        -4.49140        3.98030       -3.75270
Cl        -6.48980        6.37170       -4.72460
C         -1.55950        3.19180       -5.39390
S         -1.29660        4.45390       -4.21870
C         -3.91960        1.46270       -7.68660
C         -3.82210        0.17420       -8.10500
S         -2.19400       -0.47000       -7.86600
C         -4.83790       -0.84690       -8.17980
C         -4.87310       -2.04720       -8.83580
C         -5.55780       -3.07240       -8.14490
C         -5.61210       -4.46940       -8.67810
C         -4.26930       -5.18270       -8.49710
C         -6.00920       -2.65740       -6.90310
S         -5.81000       -0.92700       -6.73120
C         -6.10110       -3.37870       -5.66790
C         -5.84590       -4.69500       -5.38980
C         -5.30660       -4.90830       -4.09180
C         -4.70280       -6.07510       -3.58330
C         -4.90020       -7.35210       -4.23930
S         -3.57960       -8.43720       -4.56310
C         -4.61600       -9.60250       -5.31500
C         -4.06970      -10.89070       -5.82340
C         -3.55590      -11.76260       -4.67640
C         -5.90690       -9.16540       -5.30380
Cl        -7.22890      -10.05110       -5.94890
C         -6.07190       -7.88890       -4.70270
Cl        -7.61320       -7.15790       -4.51290
C         -3.85300       -5.91700       -2.48980
C         -3.60990       -4.66370       -1.87830
C         -4.30050       -3.52330       -2.31560
C         -3.96350       -2.18300       -1.84650
S         -4.27310       -1.60940       -0.23840
C         -3.62920       -0.04010       -0.58950
C         -3.68400        1.07290        0.39710
C         -4.93900        1.92300        0.18260
C         -3.18820        0.01160       -1.87770
C         -3.37290       -1.20050       -2.59190
Cl        -2.85920       -1.39270       -4.21650
Cl        -2.47650        1.39400       -2.59380
C         -5.15810       -3.68820       -3.38660
S         -5.94960       -2.38560       -4.21540
C         -2.53840       -4.71140       -0.95680
C         -1.98400       -5.94980       -0.83440
S         -2.81790       -7.14610       -1.80990
C         -0.76580       -6.28130       -0.17040
C         -0.21710       -7.50750        0.04790
C          1.10700       -7.45270        0.55550
C          1.96080       -8.52080        0.87480
C          1.53320       -9.90410        0.74920
S          0.86340      -10.51690       -0.73510
C          0.68030      -12.11120       -0.08870
C          0.15870      -13.22710       -0.92460
C          1.27770      -13.85520       -1.75880
C          1.12350      -12.15250        1.19920
Cl         1.10000      -13.56410        2.17410
C          1.60530      -10.90450        1.67870
Cl         2.13540      -10.68430        3.29290
C          3.25290       -8.19500        1.27410
C          3.72040       -6.86210        1.37480
C          2.84310       -5.79030        1.13140
C          3.28490       -4.41000        1.23050
S          2.95180       -3.27710       -0.05020
C          3.82730       -2.00820        0.73200
C          3.97080       -0.65740        0.11910
C          2.90050       -0.37220       -0.92520
C          4.34080       -2.44880        1.91570
C          4.02200       -3.80160        2.21000
Cl         4.43600       -4.52980        3.70790
Cl         5.30430       -1.47850        2.95170
C          1.55880       -6.12050        0.71490
S          0.31550       -4.97990        0.29090
C          5.11800       -6.82070        1.65240
C          5.66430       -8.04690        1.78100
S          4.53300       -9.33560        1.57250
H          4.99630        4.72750       13.53570
H          4.61500        6.81500       12.02720
H          4.13670       12.27080        9.54240
H          2.45600       11.76250        9.28610
H          2.96660       11.29060        6.88940
H          3.31940       12.97430        7.29710
H          4.63640       11.80710        7.14230
H          2.45260       -1.90650        6.99110
H          3.55820       -2.45300        8.24770
H          5.45300       -1.31450        7.05480
H          4.32830       -0.75800        5.81480
H          4.64500       -2.48310        6.00500
H          2.14890        2.91950        6.57710
H          1.38380        2.80910        4.46270
H          0.04660       -2.92960        2.40440
H         -0.73450       -2.31800        0.93920
H         -2.52740       -1.27710        2.31880
H         -1.75670       -1.88660        3.78820
H         -2.42970       -3.01470        2.60700
H          3.41030       10.23420       -1.59800
H          2.32840       11.38660       -0.79190
H          1.58010        9.63010       -3.18400
H          0.50750       10.78580       -2.38690
H          1.93750       11.35940       -3.25060
H          0.46890        5.91120       -1.89770
H          0.97090        1.65710       -3.79710
H          2.78020       -2.80440       -3.48960
H          2.32620       -4.00270       -4.70510
H          0.03270       -4.12980       -3.67450
H          1.29870       -4.52900       -2.50740
H          0.52720       -2.94400       -2.46250
H         -6.96650        7.09910       -7.44120
H         -6.08960        6.63550       -8.91280
H         -4.23430        8.18380       -8.29020
H         -5.77010        9.04950       -8.41430
H         -5.10920        8.64530       -6.82670
H         -4.83240        2.02890       -7.73830
H         -4.35210       -2.22070       -9.76120
H         -6.40720       -5.02750       -8.18320
H         -5.84870       -4.42500       -9.74380
H         -3.49030       -4.66890       -9.05460
H         -4.33600       -6.20680       -8.85640
H         -3.97900       -5.19880       -7.44900
H         -5.91010       -5.48260       -6.11530
H         -3.24900      -10.68930       -6.51580
H         -4.85960      -11.41330       -6.36480
H         -3.15890      -12.69610       -5.06600
H         -4.36240      -11.98900       -3.98350
H         -2.76780      -11.24380       -4.13530
H         -3.68640        0.66810        1.40990
H         -2.79630        1.69610        0.27240
H         -5.83380        1.31660        0.30140
H         -4.96720        2.73360        0.90550
H         -4.93880        2.34860       -0.81750
H         -2.16960       -3.84700       -0.43460
H         -0.73950       -8.42070       -0.17090
H         -0.27500      -13.98250       -0.26690
H         -0.62130      -12.84940       -1.58810
H          1.71450      -13.11340       -2.42320
H          2.05830      -14.24340       -1.10970
H          0.88360      -14.67210       -2.35700
H          3.93030        0.08890        0.91610
H          4.96110       -0.58120       -0.34250
H          1.90700       -0.44730       -0.49050
H          3.02550        0.62980       -1.32510
H          2.96780       -1.08360       -1.74470
H          5.68480       -5.91170        1.72440
H          6.68770       -8.29180        1.98840
