298

C         -1.65550       -4.85390        7.19330
C         -1.07570       -3.70220        6.80560
C         -1.95440       -2.86890        6.05420
C         -1.66850       -1.63420        5.46770
C         -0.32380       -1.03950        5.44090
C          0.39340       -0.71370        6.58740
C          1.63880       -0.12920        6.48920
C          2.22160        0.14330        5.25200
S          3.78400        0.96850        5.26090
C          4.61410        0.40490        3.72430
C          6.10530        0.63600        3.85980
C          1.49590       -0.19640        4.11570
F          1.98500        0.03750        2.87260
C          0.24730       -0.77450        4.20070
C         -2.72110       -0.99870        4.82800
C         -4.00300       -1.56920        4.65190
C         -4.25920       -2.85480        5.15940
C         -5.51600       -3.55640        4.88170
C         -6.22590       -4.22200        5.87960
C         -7.34840       -4.95670        5.56860
C         -7.82260       -5.04930        4.25950
S         -9.25910       -6.05220        4.02450
C         -9.19620       -6.63130        2.28960
C         -7.95990       -7.45660        1.99550
C         -7.14000       -4.32820        3.28560
C         -5.99910       -3.61000        3.57870
F         -7.56650       -4.30280        2.00300
C         -3.23680       -3.44810        5.89260
S         -3.30080       -5.00790        6.67180
C         -4.89350       -0.67040        3.99100
C         -4.33540        0.53590        3.71850
S         -2.64580        0.61900        4.20300
C         -4.81770        1.74860        3.11070
C         -4.47080        2.98620        3.55500
C         -4.76890        4.02670        2.64290
C         -4.38450        5.37000        2.73130
C         -3.60550        5.90420        3.85960
C         -3.98090        7.08000        4.49770
C         -3.17310        7.60320        5.48940
F         -3.56560        8.74500        6.09050
C         -1.97620        7.01960        5.88600
C         -1.10430        7.59720        6.96050
C         -1.31550        6.86670        8.28800
C         -1.63910        5.84520        5.22260
F         -0.48420        5.22840        5.54950
C         -2.41670        5.28280        4.23220
C         -4.57840        6.14070        1.59950
C         -5.09150        5.63750        0.37670
C         -5.56730        4.31540        0.32830
C         -6.12980        3.71750       -0.89270
C         -5.41490        3.69690       -2.08520
C         -5.97040        3.09830       -3.19910
C         -7.23020        2.51020       -3.20150
C         -7.79610        1.83220       -4.41360
C         -7.42180        0.34800       -4.41810
C         -7.90720        2.54450       -1.98750
C         -7.38770        3.12530       -0.84800
F         -9.13400        1.99030       -1.91870
F         -5.25200        3.08730       -4.33930
C         -5.39530        3.54110        1.46960
S         -5.65240        1.81120        1.56880
C         -4.83780        6.53490       -0.70060
C         -4.12190        7.63840       -0.33470
S         -3.92210        7.73940        1.41490
C         -3.19290        8.40800       -1.10360
C         -2.18310        9.12520       -0.52660
C         -1.00800        9.18360       -1.30850
C          0.27840        9.45550       -0.81990
C          0.53770        9.74530        0.60020
C          0.05160        8.87210        1.57070
C          0.39240        9.06760        2.89180
F         -0.08750        8.19710        3.80580
C          1.21200       10.10370        3.32640
C          1.61130       10.23540        4.76610
C          2.65700        9.17830        5.13200
C          1.67010       10.95620        2.32810
F          2.46190       11.98940        2.67400
C          1.35680       10.79690        0.99050
C          1.33320        9.12680       -1.65200
C          1.15900        8.60610       -2.95700
C         -0.13690        8.40120       -3.47260
C         -0.28850        7.83360       -4.81980
C          0.38030        8.43230       -5.88480
C          0.28150        7.88500       -7.14790
C         -0.45580        6.73900       -7.42550
C         -0.49570        6.11970       -8.79080
C          0.61610        5.07710       -8.93630
C         -1.10820        6.17260       -6.33590
C         -1.04610        6.69210       -5.05800
F         -1.83180        5.05320       -6.53280
F          0.93590        8.49170       -8.15860
C         -1.19220        8.62490       -2.60010
S         -2.83560        8.04070       -2.78700
C          2.35210        8.00080       -3.43820
C          3.35730        7.97830       -2.51490
S          2.97580        8.93720       -1.09440
C          4.37630        6.97930       -2.41370
C          4.74240        6.40230       -1.23140
C          5.28640        5.10280       -1.37780
C          5.41380        4.13870       -0.36120
C          5.16270        4.48760        1.04340
C          4.21040        3.79890        1.78960
C          3.93520        4.14340        3.09870
C          4.60800        5.19470        3.71290
S          4.34620        5.73990        5.36040
C          2.91200        4.74730        5.91930
C          2.51730        5.20730        7.30940
C          5.56670        5.87230        2.95400
F          6.24040        6.89690        3.51730
C          5.84520        5.54250        1.64740
C          5.63530        2.83650       -0.77810
C          5.81470        2.48130       -2.13840
C          5.69760        3.44670       -3.15310
C          5.72070        3.06170       -4.56980
C          4.91300        2.02620       -5.03400
C          4.93980        1.63040       -6.35630
C          5.77320        2.26580       -7.27040
S          5.94520        1.83500       -8.96670
C          4.65960        0.57000       -9.25390
C          3.27000        1.17170       -9.34820
C          6.55490        3.32320       -6.79710
C          6.53760        3.72670       -5.48070
F          7.36830        3.96850       -7.65700
C          5.40790        4.73660       -2.74160
S          4.86810        6.02200       -3.79770
C          5.92730        1.08110       -2.30630
C          5.73780        0.37510       -1.15450
S          5.59140        1.41990        0.24440
C          5.38420       -1.00470       -1.09400
C          4.74600       -1.67050       -0.08960
C          4.19700       -2.91540       -0.49550
C          3.38210       -3.78780        0.24730
C          3.18350       -3.60740        1.68970
C          4.27370       -3.35200        2.52220
C          4.11440       -3.27620        3.89160
C          2.86760       -3.46230        4.47490
S          2.70890       -3.45190        6.24450
C          2.17160       -5.19870        6.47970
C          2.15660       -5.52910        7.95830
C          1.78040       -3.67400        3.63580
F          0.54820       -3.84050        4.15600
C          1.92310       -3.74380        2.26570
C          2.79690       -4.83600       -0.45350
C          3.04160       -5.08870       -1.82720
C          3.89300       -4.24450       -2.55650
C          4.14790       -4.43350       -3.99060
C          4.59380       -5.64720       -4.50250
C          4.86260       -5.79960       -5.85010
C          4.70010       -4.73990       -6.73590
S          4.99610       -4.78850       -8.47080
C          5.89360       -6.35510       -8.73580
C          7.31640       -6.30050       -8.21250
C          4.23490       -3.53370       -6.20900
C          3.95750       -3.37030       -4.87260
F          4.04960       -2.48220       -7.03690
C          4.43310       -3.17000       -1.86910
S          5.42640       -1.92960       -2.58360
C          2.27820       -6.18000       -2.31590
C          1.47610       -6.74800       -1.37430
S          1.65800       -5.98910        0.19520
C          0.50240       -7.77740       -1.54820
C         -0.53890       -8.06910       -0.72100
C         -1.38410       -9.09790       -1.21070
C         -2.54250       -9.61830       -0.61280
C         -3.11150       -9.00380        0.59180
C         -3.46610       -9.75400        1.70750
C         -4.00570       -9.15530        2.83120
C         -4.22050       -7.78300        2.87200
S         -4.88060       -6.85720        4.21400
C         -5.18950       -8.07490        5.53380
C         -6.48860       -8.83260        5.33940
C         -3.87280       -7.04510        1.73730
F         -4.08170       -5.71160        1.74170
C         -3.32620       -7.62510        0.61830
C         -3.14390      -10.69020       -1.25660
C         -2.66730      -11.22730       -2.47710
C         -1.53400      -10.67820       -3.09500
C         -1.02040      -11.19160       -4.37180
C         -0.79280      -10.33250       -5.44510
C         -0.29140      -10.81410       -6.63500
C          0.00020      -12.16590       -6.80540
S          0.59580      -12.67340       -8.39260
C          1.90370      -13.89470       -8.00370
C          2.99240      -13.29950       -7.13370
C         -0.25380      -13.01520       -5.73280
C         -0.74310      -12.54490       -4.53070
F         -0.02820      -14.34440       -5.83160
C         -0.92100       -9.61880       -2.44280
S          0.51330       -8.78300       -2.98510
C         -3.51340      -12.27280       -2.95460
C         -4.55850      -12.51680       -2.13910
S         -4.59960      -11.50070       -0.73880
H         -1.22940       -5.65100        7.77150
H         -0.06460       -3.41730        7.02980
H         -0.03410       -0.90510        7.55970
H          2.19080        0.13000        7.37890
H          4.38210       -0.65370        3.60960
H          4.21390        0.97040        2.88480
H          6.31250        1.69500        3.99640
H          6.50410        0.09060        4.71210
H          6.60910        0.30060        2.95590
H         -0.27210       -1.02220        3.28770
H         -5.89620       -4.16220        6.90540
H         -7.88580       -5.48420        6.34210
H        -10.10060       -7.23450        2.20170
H         -9.27980       -5.77170        1.62920
H         -7.98710       -7.79960        0.96310
H         -7.91500       -8.32410        2.64980
H         -7.05650       -6.86800        2.13550
H         -5.47720       -3.12340        2.77010
H         -5.92200       -0.90180        3.77930
H         -3.98180        3.14700        4.49860
H         -4.89440        7.58930        4.23430
H         -1.33700        8.65520        7.08490
H         -0.06110        7.49990        6.65560
H         -2.34880        6.96300        8.61430
H         -0.66960        7.28940        9.05320
H         -1.08140        5.80990        8.18250
H         -2.07580        4.38820        3.73520
H         -4.42120        4.11060       -2.14850
H         -8.88280        1.93140       -4.40930
H         -7.40210        2.30860       -5.31260
H         -7.83820       -0.13830       -5.29630
H         -7.81190       -0.14440       -3.53020
H         -6.34070        0.22990       -4.43510
H         -7.96780        3.12230        0.06110
H         -5.08340        6.32030       -1.72500
H         -2.23230        9.48800        0.48400
H         -0.55880        8.02340        1.30560
H          0.72820       10.10140        5.39530
H          2.01840       11.23120        4.94260
H          3.54840        9.29160        4.51990
H          2.94250        9.28090        6.17560
H          2.26100        8.17770        4.97780
H          1.75390       11.49080        0.26680
H          0.96960        9.32340       -5.73680
H         -0.36610        6.89650       -9.54570
H         -1.46380        5.63920       -8.94160
H          1.59140        5.53860       -8.79760
H          0.58090        4.63160       -9.92690
H          0.49550        4.28850       -8.19680
H         -1.56300        6.18480       -4.26010
H          2.40730        7.45980       -4.36620
H          4.50530        6.83550       -0.27610
H          3.64840        2.99970        1.33080
H          3.18700        3.58890        3.63980
H          3.20490        3.69740        5.92670
H          2.09620        4.91070        5.21640
H          1.63620        4.65890        7.63320
H          2.28600        6.26990        7.30830
H          3.32420        5.03010        8.01640
H          6.59850        6.09810        1.11080
H          4.23430        1.53450       -4.35340
H          4.31040        0.81230       -6.66550
H          4.73430       -0.19330       -8.48110
H          4.95090        0.12470      -10.20510
H          3.22500        1.88960      -10.16400
H          2.54280        0.38410       -9.53410
H          2.99890        1.68480       -8.42820
H          7.17390        4.54030       -5.16950
H          6.07580        0.60570       -3.25890
H          4.59080       -1.23720        0.88240
H          5.25990       -3.25300        2.09470
H          4.96380       -3.09980        4.53410
H          1.18160       -5.31030        6.03900
H          2.88800       -5.82220        5.94390
H          3.14480       -5.38860        8.39010
H          1.45550       -4.88800        8.48790
H          1.85780       -6.56580        8.09900
H          1.04220       -3.89100        1.66190
H          4.75410       -6.48060       -3.83490
H          5.20230       -6.75920       -6.20410
H          5.88440       -6.47200       -9.81960
H          5.31530       -7.16670       -8.29600
H          7.86260       -5.49430       -8.69640
H          7.82390       -7.23990       -8.42300
H          7.33400       -6.12830       -7.13840
H          3.58000       -2.42050       -4.52960
H          2.28880       -6.50120       -3.34220
H         -0.69630       -7.56320        0.21490
H         -3.29980      -10.82030        1.70820
H         -4.25320       -9.77110        3.68020
H         -4.32430       -8.73290        5.60140
H         -5.23120       -7.45850        6.43210
H         -6.65670       -9.49900        6.18330
H         -7.32140       -8.13620        5.27620
H         -6.46390       -9.42670        4.42830
H         -3.09250       -7.00880       -0.23570
H         -1.02010       -9.28230       -5.34690
H         -0.11650      -10.14630       -7.46400
H          1.44850      -14.77050       -7.54700
H          2.28960      -14.16700       -8.98610
H          3.78770      -14.02860       -6.99220
H          3.41090      -12.41060       -7.60130
H          2.60090      -13.02350       -6.15620
H         -0.89600      -13.24340       -3.72220
H         -3.34360      -12.79580       -3.87800
H         -5.33570      -13.24520       -2.26430
