
  xtb     03072222133D
 energy: -529.035361800705 gnorm: 0.000293873022 xtb: 6.4.1 (unknown)
298327  0     0  0            999 V2000
   -1.6555   -4.8539    7.1933 C   0  0  0  0  0  0  0  0  0  0  0  0
   -1.0757   -3.7022    6.8056 C   0  0  0  0  0  0  0  0  0  0  0  0
   -1.9544   -2.8689    6.0542 C   0  0  0  0  0  0  0  0  0  0  0  0
   -1.6685   -1.6342    5.4677 C   0  0  0  0  0  0  0  0  0  0  0  0
   -0.3238   -1.0395    5.4409 C   0  0  0  0  0  0  0  0  0  0  0  0
    0.3934   -0.7137    6.5874 C   0  0  0  0  0  0  0  0  0  0  0  0
    1.6388   -0.1292    6.4892 C   0  0  0  0  0  0  0  0  0  0  0  0
    2.2216    0.1433    5.2520 C   0  0  0  0  0  0  0  0  0  0  0  0
    3.7840    0.9685    5.2609 S   0  0  0  0  0  0  0  0  0  0  0  0
    4.6141    0.4049    3.7243 C   0  0  0  0  0  0  0  0  0  0  0  0
    6.1053    0.6360    3.8598 C   0  0  0  0  0  0  0  0  0  0  0  0
    1.4959   -0.1964    4.1157 C   0  0  0  0  0  0  0  0  0  0  0  0
    1.9850    0.0375    2.8726 F   0  0  0  0  0  0  0  0  0  0  0  0
    0.2473   -0.7745    4.2007 C   0  0  0  0  0  0  0  0  0  0  0  0
   -2.7211   -0.9987    4.8280 C   0  0  0  0  0  0  0  0  0  0  0  0
   -4.0030   -1.5692    4.6519 C   0  0  0  0  0  0  0  0  0  0  0  0
   -4.2592   -2.8548    5.1594 C   0  0  0  0  0  0  0  0  0  0  0  0
   -5.5160   -3.5564    4.8817 C   0  0  0  0  0  0  0  0  0  0  0  0
   -6.2259   -4.2220    5.8796 C   0  0  0  0  0  0  0  0  0  0  0  0
   -7.3484   -4.9567    5.5686 C   0  0  0  0  0  0  0  0  0  0  0  0
   -7.8226   -5.0493    4.2595 C   0  0  0  0  0  0  0  0  0  0  0  0
   -9.2591   -6.0522    4.0245 S   0  0  0  0  0  0  0  0  0  0  0  0
   -9.1962   -6.6313    2.2896 C   0  0  0  0  0  0  0  0  0  0  0  0
   -7.9599   -7.4566    1.9955 C   0  0  0  0  0  0  0  0  0  0  0  0
   -7.1400   -4.3282    3.2856 C   0  0  0  0  0  0  0  0  0  0  0  0
   -5.9991   -3.6100    3.5787 C   0  0  0  0  0  0  0  0  0  0  0  0
   -7.5665   -4.3028    2.0030 F   0  0  0  0  0  0  0  0  0  0  0  0
   -3.2368   -3.4481    5.8926 C   0  0  0  0  0  0  0  0  0  0  0  0
   -3.3008   -5.0079    6.6718 S   0  0  0  0  0  0  0  0  0  0  0  0
   -4.8935   -0.6704    3.9910 C   0  0  0  0  0  0  0  0  0  0  0  0
   -4.3354    0.5359    3.7185 C   0  0  0  0  0  0  0  0  0  0  0  0
   -2.6458    0.6190    4.2030 S   0  0  0  0  0  0  0  0  0  0  0  0
   -4.8177    1.7486    3.1107 C   0  0  0  0  0  0  0  0  0  0  0  0
   -4.4708    2.9862    3.5550 C   0  0  0  0  0  0  0  0  0  0  0  0
   -4.7689    4.0267    2.6429 C   0  0  0  0  0  0  0  0  0  0  0  0
   -4.3845    5.3700    2.7313 C   0  0  0  0  0  0  0  0  0  0  0  0
   -3.6055    5.9042    3.8596 C   0  0  0  0  0  0  0  0  0  0  0  0
   -3.9809    7.0800    4.4977 C   0  0  0  0  0  0  0  0  0  0  0  0
   -3.1731    7.6032    5.4894 C   0  0  0  0  0  0  0  0  0  0  0  0
   -3.5656    8.7450    6.0905 F   0  0  0  0  0  0  0  0  0  0  0  0
   -1.9762    7.0196    5.8860 C   0  0  0  0  0  0  0  0  0  0  0  0
   -1.1043    7.5972    6.9605 C   0  0  0  0  0  0  0  0  0  0  0  0
   -1.3155    6.8667    8.2880 C   0  0  0  0  0  0  0  0  0  0  0  0
   -1.6391    5.8452    5.2226 C   0  0  0  0  0  0  0  0  0  0  0  0
   -0.4842    5.2284    5.5495 F   0  0  0  0  0  0  0  0  0  0  0  0
   -2.4167    5.2828    4.2322 C   0  0  0  0  0  0  0  0  0  0  0  0
   -4.5784    6.1407    1.5995 C   0  0  0  0  0  0  0  0  0  0  0  0
   -5.0915    5.6375    0.3767 C   0  0  0  0  0  0  0  0  0  0  0  0
   -5.5673    4.3154    0.3283 C   0  0  0  0  0  0  0  0  0  0  0  0
   -6.1298    3.7175   -0.8927 C   0  0  0  0  0  0  0  0  0  0  0  0
   -5.4149    3.6969   -2.0852 C   0  0  0  0  0  0  0  0  0  0  0  0
   -5.9704    3.0983   -3.1991 C   0  0  0  0  0  0  0  0  0  0  0  0
   -7.2302    2.5102   -3.2015 C   0  0  0  0  0  0  0  0  0  0  0  0
   -7.7961    1.8322   -4.4136 C   0  0  0  0  0  0  0  0  0  0  0  0
   -7.4218    0.3480   -4.4181 C   0  0  0  0  0  0  0  0  0  0  0  0
   -7.9072    2.5445   -1.9875 C   0  0  0  0  0  0  0  0  0  0  0  0
   -7.3877    3.1253   -0.8480 C   0  0  0  0  0  0  0  0  0  0  0  0
   -9.1340    1.9903   -1.9187 F   0  0  0  0  0  0  0  0  0  0  0  0
   -5.2520    3.0873   -4.3393 F   0  0  0  0  0  0  0  0  0  0  0  0
   -5.3953    3.5411    1.4696 C   0  0  0  0  0  0  0  0  0  0  0  0
   -5.6524    1.8112    1.5688 S   0  0  0  0  0  0  0  0  0  0  0  0
   -4.8378    6.5349   -0.7006 C   0  0  0  0  0  0  0  0  0  0  0  0
   -4.1219    7.6384   -0.3347 C   0  0  0  0  0  0  0  0  0  0  0  0
   -3.9221    7.7394    1.4149 S   0  0  0  0  0  0  0  0  0  0  0  0
   -3.1929    8.4080   -1.1036 C   0  0  0  0  0  0  0  0  0  0  0  0
   -2.1831    9.1252   -0.5266 C   0  0  0  0  0  0  0  0  0  0  0  0
   -1.0080    9.1836   -1.3085 C   0  0  0  0  0  0  0  0  0  0  0  0
    0.2784    9.4555   -0.8199 C   0  0  0  0  0  0  0  0  0  0  0  0
    0.5377    9.7453    0.6002 C   0  0  0  0  0  0  0  0  0  0  0  0
    0.0516    8.8721    1.5707 C   0  0  0  0  0  0  0  0  0  0  0  0
    0.3924    9.0676    2.8918 C   0  0  0  0  0  0  0  0  0  0  0  0
   -0.0875    8.1971    3.8058 F   0  0  0  0  0  0  0  0  0  0  0  0
    1.2120   10.1037    3.3264 C   0  0  0  0  0  0  0  0  0  0  0  0
    1.6113   10.2354    4.7661 C   0  0  0  0  0  0  0  0  0  0  0  0
    2.6570    9.1783    5.1320 C   0  0  0  0  0  0  0  0  0  0  0  0
    1.6701   10.9562    2.3281 C   0  0  0  0  0  0  0  0  0  0  0  0
    2.4619   11.9894    2.6740 F   0  0  0  0  0  0  0  0  0  0  0  0
    1.3568   10.7969    0.9905 C   0  0  0  0  0  0  0  0  0  0  0  0
    1.3332    9.1268   -1.6520 C   0  0  0  0  0  0  0  0  0  0  0  0
    1.1590    8.6061   -2.9570 C   0  0  0  0  0  0  0  0  0  0  0  0
   -0.1369    8.4012   -3.4726 C   0  0  0  0  0  0  0  0  0  0  0  0
   -0.2885    7.8336   -4.8198 C   0  0  0  0  0  0  0  0  0  0  0  0
    0.3803    8.4323   -5.8848 C   0  0  0  0  0  0  0  0  0  0  0  0
    0.2815    7.8850   -7.1479 C   0  0  0  0  0  0  0  0  0  0  0  0
   -0.4558    6.7390   -7.4255 C   0  0  0  0  0  0  0  0  0  0  0  0
   -0.4957    6.1197   -8.7908 C   0  0  0  0  0  0  0  0  0  0  0  0
    0.6161    5.0771   -8.9363 C   0  0  0  0  0  0  0  0  0  0  0  0
   -1.1082    6.1726   -6.3359 C   0  0  0  0  0  0  0  0  0  0  0  0
   -1.0461    6.6921   -5.0580 C   0  0  0  0  0  0  0  0  0  0  0  0
   -1.8318    5.0532   -6.5328 F   0  0  0  0  0  0  0  0  0  0  0  0
    0.9359    8.4917   -8.1586 F   0  0  0  0  0  0  0  0  0  0  0  0
   -1.1922    8.6249   -2.6001 C   0  0  0  0  0  0  0  0  0  0  0  0
   -2.8356    8.0407   -2.7870 S   0  0  0  0  0  0  0  0  0  0  0  0
    2.3521    8.0008   -3.4382 C   0  0  0  0  0  0  0  0  0  0  0  0
    3.3573    7.9783   -2.5149 C   0  0  0  0  0  0  0  0  0  0  0  0
    2.9758    8.9372   -1.0944 S   0  0  0  0  0  0  0  0  0  0  0  0
    4.3763    6.9793   -2.4137 C   0  0  0  0  0  0  0  0  0  0  0  0
    4.7424    6.4023   -1.2314 C   0  0  0  0  0  0  0  0  0  0  0  0
    5.2864    5.1028   -1.3778 C   0  0  0  0  0  0  0  0  0  0  0  0
    5.4138    4.1387   -0.3612 C   0  0  0  0  0  0  0  0  0  0  0  0
    5.1627    4.4876    1.0434 C   0  0  0  0  0  0  0  0  0  0  0  0
    4.2104    3.7989    1.7896 C   0  0  0  0  0  0  0  0  0  0  0  0
    3.9352    4.1434    3.0987 C   0  0  0  0  0  0  0  0  0  0  0  0
    4.6080    5.1947    3.7129 C   0  0  0  0  0  0  0  0  0  0  0  0
    4.3462    5.7399    5.3604 S   0  0  0  0  0  0  0  0  0  0  0  0
    2.9120    4.7473    5.9193 C   0  0  0  0  0  0  0  0  0  0  0  0
    2.5173    5.2073    7.3094 C   0  0  0  0  0  0  0  0  0  0  0  0
    5.5667    5.8723    2.9540 C   0  0  0  0  0  0  0  0  0  0  0  0
    6.2404    6.8969    3.5173 F   0  0  0  0  0  0  0  0  0  0  0  0
    5.8452    5.5425    1.6474 C   0  0  0  0  0  0  0  0  0  0  0  0
    5.6353    2.8365   -0.7781 C   0  0  0  0  0  0  0  0  0  0  0  0
    5.8147    2.4813   -2.1384 C   0  0  0  0  0  0  0  0  0  0  0  0
    5.6976    3.4467   -3.1531 C   0  0  0  0  0  0  0  0  0  0  0  0
    5.7207    3.0617   -4.5698 C   0  0  0  0  0  0  0  0  0  0  0  0
    4.9130    2.0262   -5.0340 C   0  0  0  0  0  0  0  0  0  0  0  0
    4.9398    1.6304   -6.3563 C   0  0  0  0  0  0  0  0  0  0  0  0
    5.7732    2.2658   -7.2704 C   0  0  0  0  0  0  0  0  0  0  0  0
    5.9452    1.8350   -8.9667 S   0  0  0  0  0  0  0  0  0  0  0  0
    4.6596    0.5700   -9.2539 C   0  0  0  0  0  0  0  0  0  0  0  0
    3.2700    1.1717   -9.3482 C   0  0  0  0  0  0  0  0  0  0  0  0
    6.5549    3.3232   -6.7971 C   0  0  0  0  0  0  0  0  0  0  0  0
    6.5376    3.7267   -5.4807 C   0  0  0  0  0  0  0  0  0  0  0  0
    7.3683    3.9685   -7.6570 F   0  0  0  0  0  0  0  0  0  0  0  0
    5.4079    4.7366   -2.7416 C   0  0  0  0  0  0  0  0  0  0  0  0
    4.8681    6.0220   -3.7977 S   0  0  0  0  0  0  0  0  0  0  0  0
    5.9273    1.0811   -2.3063 C   0  0  0  0  0  0  0  0  0  0  0  0
    5.7378    0.3751   -1.1545 C   0  0  0  0  0  0  0  0  0  0  0  0
    5.5914    1.4199    0.2444 S   0  0  0  0  0  0  0  0  0  0  0  0
    5.3842   -1.0047   -1.0940 C   0  0  0  0  0  0  0  0  0  0  0  0
    4.7460   -1.6705   -0.0896 C   0  0  0  0  0  0  0  0  0  0  0  0
    4.1970   -2.9154   -0.4955 C   0  0  0  0  0  0  0  0  0  0  0  0
    3.3821   -3.7878    0.2473 C   0  0  0  0  0  0  0  0  0  0  0  0
    3.1835   -3.6074    1.6897 C   0  0  0  0  0  0  0  0  0  0  0  0
    4.2737   -3.3520    2.5222 C   0  0  0  0  0  0  0  0  0  0  0  0
    4.1144   -3.2762    3.8916 C   0  0  0  0  0  0  0  0  0  0  0  0
    2.8676   -3.4623    4.4749 C   0  0  0  0  0  0  0  0  0  0  0  0
    2.7089   -3.4519    6.2445 S   0  0  0  0  0  0  0  0  0  0  0  0
    2.1716   -5.1987    6.4797 C   0  0  0  0  0  0  0  0  0  0  0  0
    2.1566   -5.5291    7.9583 C   0  0  0  0  0  0  0  0  0  0  0  0
    1.7804   -3.6740    3.6358 C   0  0  0  0  0  0  0  0  0  0  0  0
    0.5482   -3.8405    4.1560 F   0  0  0  0  0  0  0  0  0  0  0  0
    1.9231   -3.7438    2.2657 C   0  0  0  0  0  0  0  0  0  0  0  0
    2.7969   -4.8360   -0.4535 C   0  0  0  0  0  0  0  0  0  0  0  0
    3.0416   -5.0887   -1.8272 C   0  0  0  0  0  0  0  0  0  0  0  0
    3.8930   -4.2445   -2.5565 C   0  0  0  0  0  0  0  0  0  0  0  0
    4.1479   -4.4335   -3.9906 C   0  0  0  0  0  0  0  0  0  0  0  0
    4.5938   -5.6472   -4.5025 C   0  0  0  0  0  0  0  0  0  0  0  0
    4.8626   -5.7996   -5.8501 C   0  0  0  0  0  0  0  0  0  0  0  0
    4.7001   -4.7399   -6.7359 C   0  0  0  0  0  0  0  0  0  0  0  0
    4.9961   -4.7885   -8.4708 S   0  0  0  0  0  0  0  0  0  0  0  0
    5.8936   -6.3551   -8.7358 C   0  0  0  0  0  0  0  0  0  0  0  0
    7.3164   -6.3005   -8.2125 C   0  0  0  0  0  0  0  0  0  0  0  0
    4.2349   -3.5337   -6.2090 C   0  0  0  0  0  0  0  0  0  0  0  0
    3.9575   -3.3703   -4.8726 C   0  0  0  0  0  0  0  0  0  0  0  0
    4.0496   -2.4822   -7.0369 F   0  0  0  0  0  0  0  0  0  0  0  0
    4.4331   -3.1700   -1.8691 C   0  0  0  0  0  0  0  0  0  0  0  0
    5.4264   -1.9296   -2.5836 S   0  0  0  0  0  0  0  0  0  0  0  0
    2.2782   -6.1800   -2.3159 C   0  0  0  0  0  0  0  0  0  0  0  0
    1.4761   -6.7480   -1.3743 C   0  0  0  0  0  0  0  0  0  0  0  0
    1.6580   -5.9891    0.1952 S   0  0  0  0  0  0  0  0  0  0  0  0
    0.5024   -7.7774   -1.5482 C   0  0  0  0  0  0  0  0  0  0  0  0
   -0.5389   -8.0691   -0.7210 C   0  0  0  0  0  0  0  0  0  0  0  0
   -1.3841   -9.0979   -1.2107 C   0  0  0  0  0  0  0  0  0  0  0  0
   -2.5425   -9.6183   -0.6128 C   0  0  0  0  0  0  0  0  0  0  0  0
   -3.1115   -9.0038    0.5918 C   0  0  0  0  0  0  0  0  0  0  0  0
   -3.4661   -9.7540    1.7075 C   0  0  0  0  0  0  0  0  0  0  0  0
   -4.0057   -9.1553    2.8312 C   0  0  0  0  0  0  0  0  0  0  0  0
   -4.2205   -7.7830    2.8720 C   0  0  0  0  0  0  0  0  0  0  0  0
   -4.8806   -6.8572    4.2140 S   0  0  0  0  0  0  0  0  0  0  0  0
   -5.1895   -8.0749    5.5338 C   0  0  0  0  0  0  0  0  0  0  0  0
   -6.4886   -8.8326    5.3394 C   0  0  0  0  0  0  0  0  0  0  0  0
   -3.8728   -7.0451    1.7373 C   0  0  0  0  0  0  0  0  0  0  0  0
   -4.0817   -5.7116    1.7417 F   0  0  0  0  0  0  0  0  0  0  0  0
   -3.3262   -7.6251    0.6183 C   0  0  0  0  0  0  0  0  0  0  0  0
   -3.1439  -10.6902   -1.2566 C   0  0  0  0  0  0  0  0  0  0  0  0
   -2.6673  -11.2273   -2.4771 C   0  0  0  0  0  0  0  0  0  0  0  0
   -1.5340  -10.6782   -3.0950 C   0  0  0  0  0  0  0  0  0  0  0  0
   -1.0204  -11.1916   -4.3718 C   0  0  0  0  0  0  0  0  0  0  0  0
   -0.7928  -10.3325   -5.4451 C   0  0  0  0  0  0  0  0  0  0  0  0
   -0.2914  -10.8141   -6.6350 C   0  0  0  0  0  0  0  0  0  0  0  0
    0.0002  -12.1659   -6.8054 C   0  0  0  0  0  0  0  0  0  0  0  0
    0.5958  -12.6734   -8.3926 S   0  0  0  0  0  0  0  0  0  0  0  0
    1.9037  -13.8947   -8.0037 C   0  0  0  0  0  0  0  0  0  0  0  0
    2.9924  -13.2995   -7.1337 C   0  0  0  0  0  0  0  0  0  0  0  0
   -0.2538  -13.0152   -5.7328 C   0  0  0  0  0  0  0  0  0  0  0  0
   -0.7431  -12.5449   -4.5307 C   0  0  0  0  0  0  0  0  0  0  0  0
   -0.0282  -14.3444   -5.8316 F   0  0  0  0  0  0  0  0  0  0  0  0
   -0.9210   -9.6188   -2.4428 C   0  0  0  0  0  0  0  0  0  0  0  0
    0.5133   -8.7830   -2.9851 S   0  0  0  0  0  0  0  0  0  0  0  0
   -3.5134  -12.2728   -2.9546 C   0  0  0  0  0  0  0  0  0  0  0  0
   -4.5585  -12.5168   -2.1391 C   0  0  0  0  0  0  0  0  0  0  0  0
   -4.5996  -11.5007   -0.7388 S   0  0  0  0  0  0  0  0  0  0  0  0
   -1.2294   -5.6510    7.7715 H   0  0  0  0  0  0  0  0  0  0  0  0
   -0.0646   -3.4173    7.0298 H   0  0  0  0  0  0  0  0  0  0  0  0
   -0.0341   -0.9051    7.5597 H   0  0  0  0  0  0  0  0  0  0  0  0
    2.1908    0.1300    7.3789 H   0  0  0  0  0  0  0  0  0  0  0  0
    4.3821   -0.6537    3.6096 H   0  0  0  0  0  0  0  0  0  0  0  0
    4.2139    0.9704    2.8848 H   0  0  0  0  0  0  0  0  0  0  0  0
    6.3125    1.6950    3.9964 H   0  0  0  0  0  0  0  0  0  0  0  0
    6.5041    0.0906    4.7121 H   0  0  0  0  0  0  0  0  0  0  0  0
    6.6091    0.3006    2.9559 H   0  0  0  0  0  0  0  0  0  0  0  0
   -0.2721   -1.0222    3.2877 H   0  0  0  0  0  0  0  0  0  0  0  0
   -5.8962   -4.1622    6.9054 H   0  0  0  0  0  0  0  0  0  0  0  0
   -7.8858   -5.4842    6.3421 H   0  0  0  0  0  0  0  0  0  0  0  0
  -10.1006   -7.2345    2.2017 H   0  0  0  0  0  0  0  0  0  0  0  0
   -9.2798   -5.7717    1.6292 H   0  0  0  0  0  0  0  0  0  0  0  0
   -7.9871   -7.7996    0.9631 H   0  0  0  0  0  0  0  0  0  0  0  0
   -7.9150   -8.3241    2.6498 H   0  0  0  0  0  0  0  0  0  0  0  0
   -7.0565   -6.8680    2.1355 H   0  0  0  0  0  0  0  0  0  0  0  0
   -5.4772   -3.1234    2.7701 H   0  0  0  0  0  0  0  0  0  0  0  0
   -5.9220   -0.9018    3.7793 H   0  0  0  0  0  0  0  0  0  0  0  0
   -3.9818    3.1470    4.4986 H   0  0  0  0  0  0  0  0  0  0  0  0
   -4.8944    7.5893    4.2343 H   0  0  0  0  0  0  0  0  0  0  0  0
   -1.3370    8.6552    7.0849 H   0  0  0  0  0  0  0  0  0  0  0  0
   -0.0611    7.4999    6.6556 H   0  0  0  0  0  0  0  0  0  0  0  0
   -2.3488    6.9630    8.6143 H   0  0  0  0  0  0  0  0  0  0  0  0
   -0.6696    7.2894    9.0532 H   0  0  0  0  0  0  0  0  0  0  0  0
   -1.0814    5.8099    8.1825 H   0  0  0  0  0  0  0  0  0  0  0  0
   -2.0758    4.3882    3.7352 H   0  0  0  0  0  0  0  0  0  0  0  0
   -4.4212    4.1106   -2.1485 H   0  0  0  0  0  0  0  0  0  0  0  0
   -8.8828    1.9314   -4.4093 H   0  0  0  0  0  0  0  0  0  0  0  0
   -7.4021    2.3086   -5.3126 H   0  0  0  0  0  0  0  0  0  0  0  0
   -7.8382   -0.1383   -5.2963 H   0  0  0  0  0  0  0  0  0  0  0  0
   -7.8119   -0.1444   -3.5302 H   0  0  0  0  0  0  0  0  0  0  0  0
   -6.3407    0.2299   -4.4351 H   0  0  0  0  0  0  0  0  0  0  0  0
   -7.9678    3.1223    0.0611 H   0  0  0  0  0  0  0  0  0  0  0  0
   -5.0834    6.3203   -1.7250 H   0  0  0  0  0  0  0  0  0  0  0  0
   -2.2323    9.4880    0.4840 H   0  0  0  0  0  0  0  0  0  0  0  0
   -0.5588    8.0234    1.3056 H   0  0  0  0  0  0  0  0  0  0  0  0
    0.7282   10.1014    5.3953 H   0  0  0  0  0  0  0  0  0  0  0  0
    2.0184   11.2312    4.9426 H   0  0  0  0  0  0  0  0  0  0  0  0
    3.5484    9.2916    4.5199 H   0  0  0  0  0  0  0  0  0  0  0  0
    2.9425    9.2809    6.1756 H   0  0  0  0  0  0  0  0  0  0  0  0
    2.2610    8.1777    4.9778 H   0  0  0  0  0  0  0  0  0  0  0  0
    1.7539   11.4908    0.2668 H   0  0  0  0  0  0  0  0  0  0  0  0
    0.9696    9.3234   -5.7368 H   0  0  0  0  0  0  0  0  0  0  0  0
   -0.3661    6.8965   -9.5457 H   0  0  0  0  0  0  0  0  0  0  0  0
   -1.4638    5.6392   -8.9416 H   0  0  0  0  0  0  0  0  0  0  0  0
    1.5914    5.5386   -8.7976 H   0  0  0  0  0  0  0  0  0  0  0  0
    0.5809    4.6316   -9.9269 H   0  0  0  0  0  0  0  0  0  0  0  0
    0.4955    4.2885   -8.1968 H   0  0  0  0  0  0  0  0  0  0  0  0
   -1.5630    6.1848   -4.2601 H   0  0  0  0  0  0  0  0  0  0  0  0
    2.4073    7.4598   -4.3662 H   0  0  0  0  0  0  0  0  0  0  0  0
    4.5053    6.8355   -0.2761 H   0  0  0  0  0  0  0  0  0  0  0  0
    3.6484    2.9997    1.3308 H   0  0  0  0  0  0  0  0  0  0  0  0
    3.1870    3.5889    3.6398 H   0  0  0  0  0  0  0  0  0  0  0  0
    3.2049    3.6974    5.9267 H   0  0  0  0  0  0  0  0  0  0  0  0
    2.0962    4.9107    5.2164 H   0  0  0  0  0  0  0  0  0  0  0  0
    1.6362    4.6589    7.6332 H   0  0  0  0  0  0  0  0  0  0  0  0
    2.2860    6.2699    7.3083 H   0  0  0  0  0  0  0  0  0  0  0  0
    3.3242    5.0301    8.0164 H   0  0  0  0  0  0  0  0  0  0  0  0
    6.5985    6.0981    1.1108 H   0  0  0  0  0  0  0  0  0  0  0  0
    4.2343    1.5345   -4.3534 H   0  0  0  0  0  0  0  0  0  0  0  0
    4.3104    0.8123   -6.6655 H   0  0  0  0  0  0  0  0  0  0  0  0
    4.7343   -0.1933   -8.4811 H   0  0  0  0  0  0  0  0  0  0  0  0
    4.9509    0.1247  -10.2051 H   0  0  0  0  0  0  0  0  0  0  0  0
    3.2250    1.8896  -10.1640 H   0  0  0  0  0  0  0  0  0  0  0  0
    2.5428    0.3841   -9.5341 H   0  0  0  0  0  0  0  0  0  0  0  0
    2.9989    1.6848   -8.4282 H   0  0  0  0  0  0  0  0  0  0  0  0
    7.1739    4.5403   -5.1695 H   0  0  0  0  0  0  0  0  0  0  0  0
    6.0758    0.6057   -3.2589 H   0  0  0  0  0  0  0  0  0  0  0  0
    4.5908   -1.2372    0.8824 H   0  0  0  0  0  0  0  0  0  0  0  0
    5.2599   -3.2530    2.0947 H   0  0  0  0  0  0  0  0  0  0  0  0
    4.9638   -3.0998    4.5341 H   0  0  0  0  0  0  0  0  0  0  0  0
    1.1816   -5.3103    6.0390 H   0  0  0  0  0  0  0  0  0  0  0  0
    2.8880   -5.8222    5.9439 H   0  0  0  0  0  0  0  0  0  0  0  0
    3.1448   -5.3886    8.3901 H   0  0  0  0  0  0  0  0  0  0  0  0
    1.4555   -4.8880    8.4879 H   0  0  0  0  0  0  0  0  0  0  0  0
    1.8578   -6.5658    8.0990 H   0  0  0  0  0  0  0  0  0  0  0  0
    1.0422   -3.8910    1.6619 H   0  0  0  0  0  0  0  0  0  0  0  0
    4.7541   -6.4806   -3.8349 H   0  0  0  0  0  0  0  0  0  0  0  0
    5.2023   -6.7592   -6.2041 H   0  0  0  0  0  0  0  0  0  0  0  0
    5.8844   -6.4720   -9.8196 H   0  0  0  0  0  0  0  0  0  0  0  0
    5.3153   -7.1667   -8.2960 H   0  0  0  0  0  0  0  0  0  0  0  0
    7.8626   -5.4943   -8.6964 H   0  0  0  0  0  0  0  0  0  0  0  0
    7.8239   -7.2399   -8.4230 H   0  0  0  0  0  0  0  0  0  0  0  0
    7.3340   -6.1283   -7.1384 H   0  0  0  0  0  0  0  0  0  0  0  0
    3.5800   -2.4205   -4.5296 H   0  0  0  0  0  0  0  0  0  0  0  0
    2.2888   -6.5012   -3.3422 H   0  0  0  0  0  0  0  0  0  0  0  0
   -0.6963   -7.5632    0.2149 H   0  0  0  0  0  0  0  0  0  0  0  0
   -3.2998  -10.8203    1.7082 H   0  0  0  0  0  0  0  0  0  0  0  0
   -4.2532   -9.7711    3.6802 H   0  0  0  0  0  0  0  0  0  0  0  0
   -4.3243   -8.7329    5.6014 H   0  0  0  0  0  0  0  0  0  0  0  0
   -5.2312   -7.4585    6.4321 H   0  0  0  0  0  0  0  0  0  0  0  0
   -6.6567   -9.4990    6.1833 H   0  0  0  0  0  0  0  0  0  0  0  0
   -7.3214   -8.1362    5.2762 H   0  0  0  0  0  0  0  0  0  0  0  0
   -6.4639   -9.4267    4.4283 H   0  0  0  0  0  0  0  0  0  0  0  0
   -3.0925   -7.0088   -0.2357 H   0  0  0  0  0  0  0  0  0  0  0  0
   -1.0201   -9.2823   -5.3469 H   0  0  0  0  0  0  0  0  0  0  0  0
   -0.1165  -10.1463   -7.4640 H   0  0  0  0  0  0  0  0  0  0  0  0
    1.4485  -14.7705   -7.5470 H   0  0  0  0  0  0  0  0  0  0  0  0
    2.2896  -14.1670   -8.9861 H   0  0  0  0  0  0  0  0  0  0  0  0
    3.7877  -14.0286   -6.9922 H   0  0  0  0  0  0  0  0  0  0  0  0
    3.4109  -12.4106   -7.6013 H   0  0  0  0  0  0  0  0  0  0  0  0
    2.6009  -13.0235   -6.1562 H   0  0  0  0  0  0  0  0  0  0  0  0
   -0.8960  -13.2434   -3.7222 H   0  0  0  0  0  0  0  0  0  0  0  0
   -3.3436  -12.7958   -3.8780 H   0  0  0  0  0  0  0  0  0  0  0  0
   -5.3357  -13.2452   -2.2643 H   0  0  0  0  0  0  0  0  0  0  0  0
  1  2  2  0  0  0  0
  2  3  1  0  0  0  0
  3  4  2  0  0  0  0
  4  5  1  0  0  0  0
  5  6  2  0  0  0  0
  6  7  1  0  0  0  0
  7  8  2  0  0  0  0
  8  9  1  0  0  0  0
  9 10  1  0  0  0  0
 10 11  1  0  0  0  0
  8 12  1  0  0  0  0
 12 13  1  0  0  0  0
 12 14  2  0  0  0  0
  4 15  1  0  0  0  0
 15 16  2  0  0  0  0
 16 17  1  0  0  0  0
 17 18  1  0  0  0  0
 18 19  2  0  0  0  0
 19 20  1  0  0  0  0
 20 21  2  0  0  0  0
 21 22  1  0  0  0  0
 22 23  1  0  0  0  0
 23 24  1  0  0  0  0
 21 25  1  0  0  0  0
 25 26  2  0  0  0  0
 25 27  1  0  0  0  0
 17 28  2  0  0  0  0
 28 29  1  0  0  0  0
 16 30  1  0  0  0  0
 30 31  2  0  0  0  0
 31 32  1  0  0  0  0
 31 33  1  0  0  0  0
 33 34  2  0  0  0  0
 34 35  1  0  0  0  0
 35 36  2  0  0  0  0
 36 37  1  0  0  0  0
 37 38  2  0  0  0  0
 38 39  1  0  0  0  0
 39 40  1  0  0  0  0
 39 41  2  0  0  0  0
 41 42  1  0  0  0  0
 42 43  1  0  0  0  0
 41 44  1  0  0  0  0
 44 45  1  0  0  0  0
 44 46  2  0  0  0  0
 36 47  1  0  0  0  0
 47 48  2  0  0  0  0
 48 49  1  0  0  0  0
 49 50  1  0  0  0  0
 50 51  2  0  0  0  0
 51 52  1  0  0  0  0
 52 53  2  0  0  0  0
 53 54  1  0  0  0  0
 54 55  1  0  0  0  0
 53 56  1  0  0  0  0
 56 57  2  0  0  0  0
 56 58  1  0  0  0  0
 52 59  1  0  0  0  0
 49 60  2  0  0  0  0
 60 61  1  0  0  0  0
 48 62  1  0  0  0  0
 62 63  2  0  0  0  0
 63 64  1  0  0  0  0
 63 65  1  0  0  0  0
 65 66  2  0  0  0  0
 66 67  1  0  0  0  0
 67 68  2  0  0  0  0
 68 69  1  0  0  0  0
 69 70  2  0  0  0  0
 70 71  1  0  0  0  0
 71 72  1  0  0  0  0
 71 73  2  0  0  0  0
 73 74  1  0  0  0  0
 74 75  1  0  0  0  0
 73 76  1  0  0  0  0
 76 77  1  0  0  0  0
 76 78  2  0  0  0  0
 68 79  1  0  0  0  0
 79 80  2  0  0  0  0
 80 81  1  0  0  0  0
 81 82  1  0  0  0  0
 82 83  2  0  0  0  0
 83 84  1  0  0  0  0
 84 85  2  0  0  0  0
 85 86  1  0  0  0  0
 86 87  1  0  0  0  0
 85 88  1  0  0  0  0
 88 89  2  0  0  0  0
 88 90  1  0  0  0  0
 84 91  1  0  0  0  0
 81 92  2  0  0  0  0
 92 93  1  0  0  0  0
 80 94  1  0  0  0  0
 94 95  2  0  0  0  0
 95 96  1  0  0  0  0
 95 97  1  0  0  0  0
 97 98  2  0  0  0  0
 98 99  1  0  0  0  0
 99100  2  0  0  0  0
100101  1  0  0  0  0
101102  2  0  0  0  0
102103  1  0  0  0  0
103104  2  0  0  0  0
104105  1  0  0  0  0
105106  1  0  0  0  0
106107  1  0  0  0  0
104108  1  0  0  0  0
108109  1  0  0  0  0
108110  2  0  0  0  0
100111  1  0  0  0  0
111112  2  0  0  0  0
112113  1  0  0  0  0
113114  1  0  0  0  0
114115  2  0  0  0  0
115116  1  0  0  0  0
116117  2  0  0  0  0
117118  1  0  0  0  0
118119  1  0  0  0  0
119120  1  0  0  0  0
117121  1  0  0  0  0
121122  2  0  0  0  0
121123  1  0  0  0  0
113124  2  0  0  0  0
124125  1  0  0  0  0
112126  1  0  0  0  0
126127  2  0  0  0  0
127128  1  0  0  0  0
127129  1  0  0  0  0
129130  2  0  0  0  0
130131  1  0  0  0  0
131132  2  0  0  0  0
132133  1  0  0  0  0
133134  2  0  0  0  0
134135  1  0  0  0  0
135136  2  0  0  0  0
136137  1  0  0  0  0
137138  1  0  0  0  0
138139  1  0  0  0  0
136140  1  0  0  0  0
140141  1  0  0  0  0
140142  2  0  0  0  0
132143  1  0  0  0  0
143144  2  0  0  0  0
144145  1  0  0  0  0
145146  1  0  0  0  0
146147  2  0  0  0  0
147148  1  0  0  0  0
148149  2  0  0  0  0
149150  1  0  0  0  0
150151  1  0  0  0  0
151152  1  0  0  0  0
149153  1  0  0  0  0
153154  2  0  0  0  0
153155  1  0  0  0  0
145156  2  0  0  0  0
156157  1  0  0  0  0
144158  1  0  0  0  0
158159  2  0  0  0  0
159160  1  0  0  0  0
159161  1  0  0  0  0
161162  2  0  0  0  0
162163  1  0  0  0  0
163164  2  0  0  0  0
164165  1  0  0  0  0
165166  2  0  0  0  0
166167  1  0  0  0  0
167168  2  0  0  0  0
168169  1  0  0  0  0
169170  1  0  0  0  0
170171  1  0  0  0  0
168172  1  0  0  0  0
172173  1  0  0  0  0
172174  2  0  0  0  0
164175  1  0  0  0  0
175176  2  0  0  0  0
176177  1  0  0  0  0
177178  1  0  0  0  0
178179  2  0  0  0  0
179180  1  0  0  0  0
180181  2  0  0  0  0
181182  1  0  0  0  0
182183  1  0  0  0  0
183184  1  0  0  0  0
181185  1  0  0  0  0
185186  2  0  0  0  0
185187  1  0  0  0  0
177188  2  0  0  0  0
188189  1  0  0  0  0
176190  1  0  0  0  0
190191  2  0  0  0  0
191192  1  0  0  0  0
 29  1  1  0  0  0  0
 61 33  1  0  0  0  0
 93 65  1  0  0  0  0
125 97  1  0  0  0  0
157129  1  0  0  0  0
189161  1  0  0  0  0
 28  3  1  0  0  0  0
 60 35  1  0  0  0  0
 92 67  1  0  0  0  0
124 99  1  0  0  0  0
156131  1  0  0  0  0
188163  1  0  0  0  0
 14  5  1  0  0  0  0
 32 15  1  0  0  0  0
 46 37  1  0  0  0  0
 64 47  1  0  0  0  0
 78 69  1  0  0  0  0
 96 79  1  0  0  0  0
110101  1  0  0  0  0
128111  1  0  0  0  0
142133  1  0  0  0  0
160143  1  0  0  0  0
174165  1  0  0  0  0
192175  1  0  0  0  0
 26 18  1  0  0  0  0
 57 50  1  0  0  0  0
 89 82  1  0  0  0  0
122114  1  0  0  0  0
154146  1  0  0  0  0
186178  1  0  0  0  0
  1193  1  0  0  0  0
  2194  1  0  0  0  0
  6195  1  0  0  0  0
  7196  1  0  0  0  0
 10197  1  0  0  0  0
 10198  1  0  0  0  0
 11199  1  0  0  0  0
 11200  1  0  0  0  0
 11201  1  0  0  0  0
 14202  1  0  0  0  0
 19203  1  0  0  0  0
 20204  1  0  0  0  0
 23205  1  0  0  0  0
 23206  1  0  0  0  0
 24207  1  0  0  0  0
 24208  1  0  0  0  0
 24209  1  0  0  0  0
 26210  1  0  0  0  0
 30211  1  0  0  0  0
 34212  1  0  0  0  0
 38213  1  0  0  0  0
 42214  1  0  0  0  0
 42215  1  0  0  0  0
 43216  1  0  0  0  0
 43217  1  0  0  0  0
 43218  1  0  0  0  0
 46219  1  0  0  0  0
 51220  1  0  0  0  0
 54221  1  0  0  0  0
 54222  1  0  0  0  0
 55223  1  0  0  0  0
 55224  1  0  0  0  0
 55225  1  0  0  0  0
 57226  1  0  0  0  0
 62227  1  0  0  0  0
 66228  1  0  0  0  0
 70229  1  0  0  0  0
 74230  1  0  0  0  0
 74231  1  0  0  0  0
 75232  1  0  0  0  0
 75233  1  0  0  0  0
 75234  1  0  0  0  0
 78235  1  0  0  0  0
 83236  1  0  0  0  0
 86237  1  0  0  0  0
 86238  1  0  0  0  0
 87239  1  0  0  0  0
 87240  1  0  0  0  0
 87241  1  0  0  0  0
 89242  1  0  0  0  0
 94243  1  0  0  0  0
 98244  1  0  0  0  0
102245  1  0  0  0  0
103246  1  0  0  0  0
106247  1  0  0  0  0
106248  1  0  0  0  0
107249  1  0  0  0  0
107250  1  0  0  0  0
107251  1  0  0  0  0
110252  1  0  0  0  0
115253  1  0  0  0  0
116254  1  0  0  0  0
119255  1  0  0  0  0
119256  1  0  0  0  0
120257  1  0  0  0  0
120258  1  0  0  0  0
120259  1  0  0  0  0
122260  1  0  0  0  0
126261  1  0  0  0  0
130262  1  0  0  0  0
134263  1  0  0  0  0
135264  1  0  0  0  0
138265  1  0  0  0  0
138266  1  0  0  0  0
139267  1  0  0  0  0
139268  1  0  0  0  0
139269  1  0  0  0  0
142270  1  0  0  0  0
147271  1  0  0  0  0
148272  1  0  0  0  0
151273  1  0  0  0  0
151274  1  0  0  0  0
152275  1  0  0  0  0
152276  1  0  0  0  0
152277  1  0  0  0  0
154278  1  0  0  0  0
158279  1  0  0  0  0
162280  1  0  0  0  0
166281  1  0  0  0  0
167282  1  0  0  0  0
170283  1  0  0  0  0
170284  1  0  0  0  0
171285  1  0  0  0  0
171286  1  0  0  0  0
171287  1  0  0  0  0
174288  1  0  0  0  0
179289  1  0  0  0  0
180290  1  0  0  0  0
183291  1  0  0  0  0
183292  1  0  0  0  0
184293  1  0  0  0  0
184294  1  0  0  0  0
184295  1  0  0  0  0
186296  1  0  0  0  0
190297  1  0  0  0  0
191298  1  0  0  0  0
M  END
