214

C        -14.01990      -12.05440       -0.93780
C        -13.58170      -11.44120        0.18020
C        -12.17940      -11.18540        0.15650
C        -11.39170      -10.55870        1.13420
C        -11.97180      -10.01720        2.35390
S        -13.25260       -8.84230        2.29200
C        -13.29460       -8.67980        4.01480
C        -14.27720       -7.78110        4.68080
C        -15.64240       -8.46000        4.81210
C        -12.37570       -9.50570        4.58920
Cl       -12.12970       -9.63380        6.28240
C        -11.61870      -10.25940        3.65150
Cl       -10.44290      -11.40980        4.13150
C        -10.03270      -10.44290        0.87140
C         -9.43590      -10.91460       -0.32420
C        -10.22940      -11.51700       -1.31360
C         -9.65940      -11.93740       -2.58270
S         -9.88790      -13.54780       -3.19460
C         -8.97390      -13.21710       -4.62590
C         -8.81160      -14.24560       -5.68970
C        -10.02990      -14.26450       -6.61620
C         -8.53520      -11.92660       -4.62120
C         -8.91620      -11.19910       -3.46200
Cl        -8.54120       -9.53670       -3.25250
Cl        -7.60510      -11.22640       -5.88190
C        -11.58380      -11.65770       -1.03630
S        -12.77150      -12.36760       -2.09350
C         -8.03920      -10.67510       -0.34630
C         -7.58560      -10.00990        0.75290
S         -8.86420       -9.66820        1.90030
C         -6.26210       -9.54740        1.01160
C         -5.80750       -8.92510        2.13580
C         -4.46510       -8.48690        2.03510
C         -3.73450       -7.72430        2.96210
C         -4.33300       -7.26400        4.20440
S         -3.56690       -7.55510        5.73710
C         -4.81730       -6.73330        6.60570
C         -4.80260       -6.65650        8.09240
C         -5.42020       -7.91280        8.71140
C         -5.76640       -6.26890        5.74460
Cl        -7.16180       -5.39990        6.23600
C         -5.49310       -6.56180        4.38160
Cl        -6.49060       -6.00220        3.10090
C         -2.43810       -7.37750        2.60910
C         -1.85180       -7.75400        1.37650
C         -2.57980       -8.51950        0.44650
C         -2.00490       -8.87920       -0.83930
S         -1.27180       -7.67890       -1.86690
C         -0.87590       -8.84130       -3.08390
C         -0.10330       -8.45380       -4.29580
C          1.40170       -8.54340       -4.02980
C         -1.29270      -10.08200       -2.70390
C         -1.93850      -10.10700       -1.43830
Cl        -2.47930      -11.56440       -0.71780
Cl        -1.06590      -11.49600       -3.64900
C         -3.88010       -8.85810        0.79710
S         -5.02580       -9.68160       -0.22080
C         -0.55870       -7.20510        1.22230
C         -0.18060       -6.39400        2.25340
S         -1.37950       -6.34330        3.52710
C          0.94740       -5.51870        2.25180
C          1.72820       -5.24340        1.16590
C          2.58910       -4.13950        1.35580
C          3.40770       -3.51910        0.39720
C          3.44740       -4.00030       -0.97550
S          4.94610       -4.41880       -1.74960
C          4.15170       -4.86250       -3.22270
C          4.91820       -5.40330       -4.37860
C          5.34230       -6.85250       -4.12930
C          2.80540       -4.68820       -3.10410
Cl         1.67970       -5.00370       -4.35940
C          2.40090       -4.19660       -1.83380
Cl         0.76080       -3.82720       -1.47200
C          4.09750       -2.38590        0.80110
C          4.02680       -1.87070        2.11990
C          3.24710       -2.52490        3.09310
C          3.21040       -2.04920        4.46370
S          1.71380       -1.78970        5.30900
C          2.52630       -1.28380        6.75050
C          1.76190       -0.93220        7.97840
C          1.32180       -2.19340        8.72540
C          3.87750       -1.33230        6.57670
C          4.26990       -1.75860        5.28020
Cl         5.91530       -1.96320        4.83640
Cl         5.01670       -0.91810        7.79200
C          2.50140       -3.61710        2.66960
S          1.33090       -4.49340        3.61710
C          4.67740       -0.61760        2.23070
C          5.21300       -0.18180        1.05350
S          5.00530       -1.33980       -0.25250
C          5.72600        1.07930        0.78490
C          6.02800        2.21300        0.47580
C          6.21770        3.55130        0.16130
C          6.03410        4.12990       -1.06160
C          6.11490        5.54220       -1.02850
C          5.92790        6.44170       -2.09300
C          5.77940        5.97850       -3.46110
S          4.48980        6.54430       -4.48060
C          5.04490        5.61670       -5.83190
C          4.35720        5.70120       -7.14930
C          4.69570        7.01600       -7.85590
C          6.16800        4.91990       -5.49910
Cl         7.01800        3.89410       -6.58150
C          6.58480        5.11740       -4.15510
Cl         8.01240        4.40580       -3.52100
C          5.89560        7.79240       -1.77390
C          6.12670        8.28060       -0.46550
C          6.38620        7.38450        0.58620
C          6.67170        7.87940        1.92380
S          7.96750        9.01140        2.18240
C          7.66600        9.08950        3.88520
C          8.46190        9.99270        4.76100
C          8.09190       11.45740        4.51740
C          6.61720        8.28540        4.21580
C          6.05340        7.59390        3.10820
Cl         4.67650        6.58490        3.26340
Cl         6.01130        8.10420        5.81120
C          6.34910        6.02990        0.28350
S          6.55030        4.72810        1.42000
C          5.99800        9.68980       -0.39700
C          5.68490       10.26370       -1.59250
S          5.57080        9.08940       -2.88760
C          5.41670       11.63690       -1.86350
C          4.96150       12.16890       -3.03170
C          4.77150       13.57190       -2.97900
C          4.28500       14.41840       -3.98890
C          3.96330       13.89690       -5.30630
S          2.40450       14.16660       -6.02710
C          2.80680       13.23960       -7.43160
C          1.84370       13.09000       -8.55680
C          1.86580       14.32340       -9.46240
C          4.08310       12.76990       -7.34010
Cl         4.84010       11.80920       -8.54430
C          4.74110       13.13640       -6.13560
Cl         6.37690       12.72230       -5.81730
C          4.12110       15.75850       -3.66120
C          4.43090       16.28380       -2.38430
C          4.89700       15.43310       -1.36900
C          5.13890       15.91780       -0.02010
S          6.63420       15.60650        0.80900
C          6.10010       16.41970        2.23990
C          6.95270       16.47410        3.45910
C          6.78850       15.19960        4.29100
C          4.83150       16.88950        2.07330
C          4.28450       16.61120        0.79210
Cl         2.67720       17.03550        0.36390
Cl         3.95890       17.74050        3.28160
C          5.07920       14.09690       -1.70070
S          5.62240       12.84840       -0.61450
C          4.23990       17.69580       -2.33840
C          3.79240       18.20130       -3.50550
S          3.57840       17.01080       -4.74210
H        -15.02130      -12.35780       -1.17280
H        -14.21780      -11.17590        1.00440
H        -14.38320       -6.86430        4.09790
H        -13.89840       -7.52420        5.67160
H        -16.03230       -8.71610        3.82970
H        -15.55600       -9.36960        5.40110
H        -16.34510       -7.79240        5.30320
H         -7.91470      -14.01490       -6.26720
H         -8.69030      -15.22770       -5.22980
H        -10.93050      -14.48760       -6.04900
H        -10.15250      -13.29720       -7.09670
H         -9.90300      -15.02210       -7.38470
H         -7.38830      -10.98730       -1.14260
H         -6.42240       -8.78240        3.00560
H         -3.77340       -6.54860        8.43880
H         -5.37180       -5.77840        8.40280
H         -4.85930       -8.79500        8.41230
H         -5.40620       -7.84040        9.79540
H         -6.45000       -8.02740        8.38290
H         -0.35890       -7.43150       -4.57860
H         -0.37030       -9.12360       -5.11520
H          1.67860       -9.56010       -3.76190
H          1.95260       -8.25200       -4.92000
H          1.67910       -7.87850       -3.21490
H          0.05970       -7.38260        0.36390
H          1.65970       -5.78290        0.24120
H          4.28830       -5.35070       -5.26820
H          5.80700       -4.79100       -4.54330
H          5.88820       -7.23400       -4.98780
H          5.98380       -6.91120       -3.25330
H          4.46960       -7.47960       -3.96410
H          2.39750       -0.32400        8.62430
H          0.88130       -0.34880        7.70340
H          0.76160       -1.92300        9.61630
H          0.69100       -2.80770        8.08720
H          2.18920       -2.77740        9.02270
H          4.69500       -0.02570        3.12730
H          5.79870        3.56070       -1.94190
H          4.67490        4.85780       -7.76460
H          3.27730        5.63880       -7.00090
H          5.76670        7.08730       -8.02810
H          4.18490        7.06810       -8.81360
H          4.38550        7.86190       -7.24700
H          8.26700        9.72870        5.80140
H          9.52580        9.85160        4.55890
H          7.03770       11.62030        4.72730
H          8.67940       12.10360        5.16390
H          8.28750       11.72650        3.48170
H          6.10300       10.26020        0.50820
H          4.74780       11.56510       -3.89450
H          2.11570       12.20470       -9.13430
H          0.83730       12.95250       -8.15720
H          1.59590       15.21130       -8.89580
H          1.15880       14.20010      -10.27830
H          2.85910       14.46640       -9.88030
H          7.99810       16.58440        3.16670
H          6.66060       17.34110        4.05420
H          5.75390       15.08550        4.60410
H          7.07320       14.32880        3.70570
H          7.41690       15.24760        5.17600
H          4.44740       18.29380       -1.47050
H          3.56850       19.22430       -3.73670
