228

C          0.21970       -6.13590        8.34510
C          0.52860       -4.95180        7.77770
C         -0.39030       -4.57010        6.75560
C         -0.39880       -3.39890        5.98160
C          0.69700       -2.42330        6.00370
C          2.02740       -2.83760        5.94210
C          3.04480       -1.91810        5.79450
C          2.78350       -0.55350        5.69830
S          4.15030        0.52690        5.39610
C          3.48410        1.72250        4.17850
C          2.98340        1.03660        2.92330
C          1.46200       -0.14700        5.85820
F          1.13830        1.16330        5.87050
C          0.43360       -1.05580        5.99830
C         -1.47880       -3.23410        5.12240
C         -2.51870       -4.18580        4.97810
C         -2.48860       -5.37210        5.72690
C         -3.53840       -6.38990        5.60670
C         -4.88230       -6.05420        5.73960
C         -5.87160       -7.01490        5.65480
C         -5.55140       -8.34940        5.42990
S         -6.69960       -9.67340        5.27910
C         -8.27620       -8.97760        5.88210
C         -8.27480       -8.76320        7.38380
C         -4.19840       -8.66840        5.28640
C         -3.20310       -7.72300        5.37610
F         -3.85170       -9.94780        5.05060
C         -1.41980       -5.53040        6.59970
S         -1.19690       -6.87620        7.68750
C         -3.46550       -3.79570        3.99180
C         -3.18390       -2.59600        3.41300
S         -1.70920       -1.88490        4.04260
C         -3.87690       -1.89120        2.38420
C         -3.60700       -0.62130        1.96900
C         -4.38190       -0.20960        0.86070
C         -4.31860        1.02230        0.19320
C         -3.36510        2.07670        0.56010
C         -1.99960        1.80950        0.66370
C         -1.10980        2.82110        0.94160
C         -1.52690        4.14100        1.14390
S         -0.22030        5.27360        1.48520
C         -0.94770        6.90990        1.86340
C         -1.27670        7.71950        0.62550
C         -2.89340        4.38600        1.04630
F         -3.40890        5.62100        1.23420
C         -3.79650        3.38280        0.74970
C         -5.13330        1.15790       -0.91650
C         -5.99310        0.13750       -1.39160
C         -6.11560       -1.06900       -0.67290
C         -7.07050       -2.09550       -1.09720
C         -8.37970       -1.74030       -1.42910
C         -9.28920       -2.69740       -1.81910
C         -8.94090       -4.04660       -1.89700
S        -10.21820       -5.17250       -2.36000
C         -9.37640       -6.45930       -3.35420
C         -8.67460       -5.87370       -4.56260
C         -7.63780       -4.38730       -1.54420
C         -6.71200       -3.43810       -1.16160
F         -7.22600       -5.67350       -1.56010
C         -5.28270       -1.21760        0.42990
S         -5.15420       -2.63580        1.44500
C         -6.49080        0.42750       -2.69110
C         -6.03880        1.61650       -3.18740
S         -5.07600        2.50530       -2.01550
C         -5.92540        2.08040       -4.53840
S         -4.50500        3.01520       -4.85170
C         -4.72660        2.91190       -6.56840
C         -5.88120        2.24270       -6.87270
C         -6.58050        1.78540       -5.71770
C         -7.86590        1.01830       -5.73770
F         -8.61660        1.28690       -4.65490
F         -8.62840        1.27300       -6.79710
F         -7.66100       -0.31570       -5.71510
C         -6.29690        1.97290       -8.29060
F         -6.62620        0.68690       -8.47950
F         -5.29220        2.22850       -9.14500
F         -7.33400        2.71210       -8.68550
C         -3.54110        3.33040       -7.29800
S         -2.15670        2.32160       -7.02970
C         -1.06280        3.56280       -7.55450
C         -1.75850        4.65480       -8.01370
C         -3.17170        4.52140       -7.86260
C         -4.17190        5.60850       -8.12870
F         -5.42080        5.12090       -8.17500
F         -4.17100        6.52480       -7.14290
F         -3.96610        6.26000       -9.27000
C         -1.10460        5.85550       -8.63130
F         -1.36570        5.94380       -9.94390
F         -1.50140        7.00550       -8.07310
F          0.22990        5.81750       -8.52250
C          0.29480        3.34680       -7.11030
C          0.97540        2.16990       -7.14820
C          1.97340        2.05720       -6.14350
C          2.71030        0.90580       -5.81410
C          2.75080       -0.24160       -6.72640
C          2.52390       -1.54710       -6.29320
C          2.59900       -2.60110       -7.17710
C          2.89750       -2.40630       -8.52600
S          2.91690       -3.84460       -9.54870
C          4.20500       -3.52000      -10.80850
C          5.56090       -3.26130      -10.18350
C          3.09160       -1.09390       -8.94960
F          3.34430       -0.80930      -10.24610
C          3.03110       -0.02960       -8.07370
C          3.34920        0.91690       -4.58130
C          3.37740        2.05870       -3.74230
C          2.71630        3.23950       -4.11690
C          2.68610        4.38170       -3.19320
C          1.47380        4.89390       -2.73550
C          1.44880        5.87750       -1.77070
C          2.62430        6.39970       -1.23610
S          2.48170        7.64090        0.01420
C          3.77490        7.18720        1.22770
C          3.61810        5.76490        1.72630
C          3.82750        5.92270       -1.74870
C          3.86850        4.91750       -2.69380
F          5.00790        6.42080       -1.32170
C          1.99550        3.19520       -5.29980
S          0.91260        4.43750       -5.87500
C          3.99390        1.78400       -2.49290
C          4.39780        0.49260       -2.35900
S          4.11740       -0.44600       -3.80890
C          4.87760       -0.12480       -1.15290
C          5.70540        0.40380       -0.21330
C          5.87650       -0.43010        0.92680
C          6.63490       -0.18470        2.08230
C          7.46050        1.01950        2.22660
C          8.35960        1.40600        1.23380
C          9.14730        2.52480        1.39880
C          9.05750        3.31460        2.54400
S         10.08530        4.75080        2.62090
C         10.63170        4.81600        4.36740
C         11.34060        3.54500        4.78930
C          8.13290        2.93310        3.51200
F          7.94820        3.67700        4.62480
C          7.36240        1.79680        3.37630
C          6.56170       -1.13710        3.09110
C          5.73700       -2.28330        3.01030
C          4.95880       -2.51380        1.86980
C          3.98290       -3.61600        1.82580
C          2.90960       -3.58960        2.71030
C          1.96070       -4.59240        2.71500
C          2.05650       -5.65980        1.82980
S          0.94930       -7.03170        1.78450
C         -0.58230       -6.39070        2.54630
C         -1.23890       -5.32550        1.69070
C          3.13510       -5.66740        0.94270
C          4.08460       -4.66740        0.92240
F          3.25960       -6.68800        0.07330
C          5.08550       -1.60330        0.83470
S          4.23980       -1.69100       -0.68610
C          5.86670       -3.11100        4.16460
C          6.74840       -2.62080        5.06050
S          7.46620       -1.12270        4.58170
H          0.74270       -6.64300        9.13240
H          1.36050       -4.34440        8.08400
H          2.26430       -3.89040        5.94920
H          4.06880       -2.24830        5.71570
H          4.33740        2.36370        3.95830
H          2.70930        2.31940        4.65420
H          3.76260        0.41190        2.49100
H          2.11790        0.41170        3.13790
H          2.69160        1.78730        2.19130
H         -0.56880       -0.67760        6.12180
H         -5.15810       -5.02950        5.93960
H         -6.89980       -6.71070        5.76340
H         -9.00940       -9.73340        5.60060
H         -8.49170       -8.06500        5.32790
H         -7.50540       -8.05290        7.67880
H         -9.24240       -8.38140        7.70380
H         -8.08570       -9.70360        7.89590
H         -2.17640       -8.02950        5.25270
H         -4.32040       -4.38860        3.71840
H         -2.87320        0.00450        2.44410
H         -1.63460        0.80780        0.49550
H         -0.05300        2.61140        1.00700
H         -0.16220        7.39890        2.44060
H         -1.81270        6.75650        2.50360
H         -0.37290        7.92190        0.05530
H         -1.99120        7.20040       -0.00830
H         -1.71520        8.66860        0.92530
H         -4.84300        3.63890        0.68880
H         -8.68600       -0.70750       -1.36470
H        -10.29910       -2.41720       -2.07430
H        -10.19660       -7.11160       -3.65420
H         -8.69640       -7.01680       -2.71430
H         -8.26580       -6.67760       -5.17130
H         -9.37050       -5.29640       -5.16740
H         -7.85630       -5.22250       -4.26180
H         -5.71050       -3.76430       -0.92960
H         -7.07020       -0.27680       -3.25910
H          0.72540        1.37170       -7.82430
H          2.27210       -1.73700       -5.26190
H          2.42560       -3.60970       -6.83630
H          3.88330       -2.69910      -11.44530
H          4.21170       -4.44040      -11.39280
H          5.55120       -2.34560       -9.59560
H          6.30890       -3.15710      -10.96660
H          5.84610       -4.08620       -9.53390
H          3.21500        0.96390       -8.45320
H          0.54540        4.48650       -3.10400
H          0.50690        6.24440       -1.39760
H          3.61980        7.90470        2.03340
H          4.75360        7.35970        0.78500
H          4.33830        5.57600        2.51990
H          3.79610        5.05030        0.92460
H          2.61420        5.60120        2.11290
H          4.82830        4.57440       -3.04880
H          4.06170        2.50120       -1.69540
H          6.18070        1.36140       -0.32400
H          8.46660        0.80160        0.34590
H          9.85690        2.81050        0.63800
H          9.77480        5.03520        5.00050
H         11.31100        5.66850        4.38130
H         12.17540        3.33380        4.12410
H         11.72060        3.65840        5.80250
H         10.66040        2.69530        4.77170
H          6.67110        1.54200        4.16500
H          2.81430       -2.76630        3.40140
H          1.14860       -4.53850        3.42300
H         -0.36570       -6.03900        3.55490
H         -1.21650       -7.27450        2.61570
H         -2.20200       -5.05100        2.11670
H         -1.39960       -5.70260        0.68340
H         -0.61680       -4.43430        1.63020
H          4.89780       -4.72310        0.21590
H          5.33220       -4.03690        4.28270
H          7.03660       -3.04610        6.00230
