265

C         -8.60700       -6.34440       11.80990
C         -7.37940       -6.14460       11.28980
C         -7.41470       -5.54140        9.99690
C         -6.33410       -5.19060        9.17380
C         -4.94370       -5.32190        9.62670
C         -4.54710       -4.78450       10.84840
C         -3.23510       -4.86250       11.27340
C         -2.27150       -5.49300       10.49440
S         -0.56370       -5.64250       10.90380
C         -0.50290       -5.29240       12.69500
C         -1.15880       -6.38390       13.51890
C         -2.68190       -6.02090        9.26900
F         -1.77230       -6.63150        8.48380
C         -3.98450       -5.94320        8.83030
C         -6.64670       -4.66670        7.92760
C         -7.97600       -4.42080        7.50470
C         -9.05620       -4.74250        8.34110
C        -10.43780       -4.46400        7.93130
C        -11.42120       -5.45040        7.97990
C        -12.70260       -5.18500        7.54820
C        -13.06230       -3.92600        7.06810
S        -14.73240       -3.69940        6.54700
C        -14.59820       -2.47800        5.17870
C        -15.78780       -2.64430        4.25440
C        -12.08290       -2.93660        7.07410
C        -10.78980       -3.19600        7.47910
F        -12.36890       -1.67270        6.68840
C         -8.74410       -5.32360        9.56180
S         -9.89330       -5.82420       10.77590
C         -8.02010       -3.85830        6.20290
C         -6.79200       -3.66510        5.64900
S         -5.49430       -4.17460        6.71230
C         -6.49710       -3.10360        4.37040
C         -5.31360       -3.11670        3.69760
C         -5.36230       -2.44160        2.45030
C         -4.32930       -2.27440        1.51480
C         -2.95920       -2.72840        1.78530
C         -2.33010       -2.37170        2.97600
C         -1.02270       -2.73620        3.23380
C         -0.29430       -3.47510        2.30740
S          1.36980       -4.00170        2.52690
C          1.95640       -2.93990        3.89890
C          3.46570       -3.05070        3.99360
C         -0.94080       -3.83660        1.12320
F         -0.27120       -4.56900        0.21320
C         -2.24080       -3.47250        0.85120
C         -4.65020       -1.57980        0.35690
C         -5.90930       -0.96820        0.13680
C         -6.94280       -1.14080        1.07040
C         -8.26010       -0.51400        0.89970
C         -8.38030        0.85350        0.65700
C         -9.62210        1.43340        0.51120
C        -10.79190        0.68210        0.61140
S        -12.32490        1.55020        0.45290
C        -13.39450        0.40530       -0.49570
C        -12.78800        0.03790       -1.83480
C        -10.65710       -0.67480        0.88720
C         -9.41980       -1.27280        1.01540
F        -11.74430       -1.46320        1.04120
C         -6.64860       -1.90770        2.18860
S         -7.75480       -2.25500        3.49120
C         -5.92580       -0.20740       -1.06560
C         -4.75290       -0.24790       -1.74610
S         -3.54820       -1.24670       -0.94930
C         -4.31690        0.48850       -2.90160
C         -3.52690        0.04490       -3.91200
C         -3.01020        1.08540       -4.72930
C         -2.08510        0.95210       -5.77690
C         -1.77960       -0.36840       -6.33830
C         -0.47580       -0.82880       -6.48690
C         -0.21300       -2.07390       -7.02570
C         -1.24850       -2.90260       -7.44430
S         -1.05860       -4.49660       -8.15720
C          0.75720       -4.72820       -8.21230
C          1.05420       -6.07660       -8.84110
C         -2.55380       -2.42940       -7.28300
F         -3.58360       -3.20660       -7.67580
C         -2.82860       -1.19710       -6.73890
C         -1.45820        2.11820       -6.18760
C         -1.78880        3.39530       -5.67030
C         -2.84420        3.54040       -4.75210
C         -3.25230        4.87370       -4.29540
C         -3.37330        5.18600       -2.94290
C         -3.76020        6.44870       -2.54660
C         -4.03770        7.44780       -3.47640
S         -4.48370        9.04630       -2.85930
C         -5.88180        9.54060       -3.93390
C         -7.02240        8.54510       -3.86930
C         -3.88560        7.13080       -4.82290
C         -3.50980        5.86890       -5.23460
F         -4.09720        8.06080       -5.78050
C         -3.40030        2.36560       -4.26660
S         -4.54210        2.23100       -2.95030
C         -0.82420        4.37590       -6.02470
C          0.19720        3.88290       -6.78060
S         -0.07370        2.20860       -7.24350
C          1.54380        4.36850       -6.86700
C          2.16460        5.06220       -5.86820
C          3.57500        4.91380       -5.87150
C          4.43930        5.18830       -4.79680
C          3.98560        6.02540       -3.68120
C          3.40140        7.26300       -3.94230
C          2.96260        8.08100       -2.91990
C          3.08670        7.68750       -1.59170
S          2.54800        8.60790       -0.19150
C          2.20990       10.27740       -0.84910
C          3.48070       11.02060       -1.21460
C          3.65910        6.43730       -1.34590
F          3.77170        6.01200       -0.07260
C          4.10640        5.61500       -2.35500
C          5.66900        4.54640       -4.82530
C          6.12490        3.78750       -5.93450
C          5.29890        3.61120       -7.05680
C          5.68530        2.79490       -8.21490
C          5.59900        3.32170       -9.49920
C          5.93110        2.56560      -10.60670
C          6.33690        1.24290      -10.46910
S          6.79470        0.16390      -11.78120
C          6.27410        1.04440      -13.29350
C          4.76670        1.05600      -13.46410
C          6.40460        0.72430       -9.17370
C          6.09410        1.47210       -8.06100
F          6.77480       -0.56010       -9.00200
C          4.01970        4.13600       -6.96670
S          2.68790        3.67560       -8.00050
C          7.35670        3.13550       -5.66420
C          7.78450        3.31390       -4.38310
S          6.77900        4.42870       -3.48610
C          8.68400        2.45300       -3.66310
S          8.06160        1.73330       -2.21460
C          9.36470        0.59150       -2.13610
C         10.26250        0.80610       -3.16150
C          9.88090        1.87700       -4.01910
C         10.68840        2.39860       -5.16930
F         10.55740        1.66080       -6.28380
F         10.31310        3.64450       -5.51050
F         11.99360        2.47980       -4.89090
C         11.44220       -0.08970       -3.39380
F         11.12560       -1.38470       -3.19990
F         12.46760        0.17590       -2.56720
F         11.92020       -0.02670       -4.63730
C          9.26630       -0.41460       -1.11820
C          8.07140       -0.87760       -0.64430
C          8.20040       -1.88570        0.33980
C          7.17280       -2.58780        0.99250
C          5.76010       -2.27360        0.74420
C          4.84430       -3.26680        0.39520
C          3.52590       -2.95280        0.14910
C          3.05510       -1.64050        0.24550
S          1.35280       -1.39540       -0.14480
C          0.88250        0.17410        0.68470
C         -0.63030        0.27090        0.70370
C          3.98180       -0.66030        0.59020
F          3.62790        0.64340        0.68270
C          5.30570       -0.96230        0.84130
C          7.57070       -3.58370        1.87120
C          8.92990       -3.87740        2.14530
C          9.95380       -3.15910        1.51000
C         11.37040       -3.42490        1.79090
C         12.27990       -3.64680        0.75810
C         13.60310       -3.91400        1.03610
C         14.07760       -3.95490        2.34620
S         15.80250       -4.26890        2.57410
C         15.86610       -5.35890        4.04470
C         15.05970       -6.62650        3.84600
C         13.16540       -3.69260        3.36400
C         11.83250       -3.44860        3.10270
F         13.55570       -3.66500        4.65830
C          9.55990       -2.18550        0.60220
S         10.63080       -1.17770       -0.33570
C          9.05280       -4.95470        3.07300
C          7.86130       -5.42380        3.49520
S          6.50550       -4.60690        2.79930
H         -8.85830       -6.78110       12.75680
H         -6.46770       -6.42600       11.78470
H         -5.27100       -4.27090       11.46310
H         -2.96660       -4.41290       12.21560
H         -0.94080       -4.31170       12.87680
H          0.56520       -5.23790       12.90500
H         -0.67630       -7.33920       13.32640
H         -1.06680       -6.15420       14.57870
H         -2.21460       -6.47810       13.27390
H         -4.24460       -6.38460        7.88140
H        -11.16980       -6.44080        8.32630
H        -13.45570       -5.95710        7.56710
H        -13.66450       -2.68040        4.65620
H        -14.57140       -1.47840        5.60990
H        -15.71600       -1.93060        3.43650
H        -15.81340       -3.65000        3.84080
H        -16.71710       -2.46810        4.79140
H        -10.07300       -2.38930        7.46960
H         -8.93190       -3.62440        5.68330
H         -4.43750       -3.61380        4.07400
H         -2.86340       -1.77680        3.70220
H         -0.57430       -2.44160        4.16850
H          1.48470       -3.27870        4.82160
H          1.65310       -1.91710        3.67510
H          3.76120       -4.07990        4.18100
H          3.83130       -2.42890        4.80800
H          3.93310       -2.72620        3.06690
H         -2.68760       -3.78510       -0.07920
H         -7.49360        1.46620        0.59960
H         -9.71150        2.49150        0.32020
H        -13.60370       -0.47210        0.11210
H        -14.31430        0.97590       -0.62430
H        -11.86740       -0.52750       -1.70220
H        -13.48860       -0.57510       -2.39820
H        -12.56380        0.93310       -2.41120
H         -9.37620       -2.33410        1.20430
H         -6.78430        0.33790       -1.41410
H         -3.26810       -0.99080       -4.04100
H          0.35010       -0.22020       -6.15370
H          0.81160       -2.39440       -7.11410
H          1.13360       -4.68430       -7.19030
H          1.18170       -3.91950       -8.80730
H          0.65190       -6.12310       -9.85040
H          0.60800       -6.87670       -8.25530
H          2.12980       -6.23330       -8.88570
H         -3.85500       -0.87710       -6.64820
H         -3.14820        4.44020       -2.19720
H         -3.85260        6.68690       -1.49860
H         -5.51690        9.67870       -4.94920
H         -6.17940       10.50770       -3.52880
H         -7.35220        8.40800       -2.84160
H         -7.86020        8.90960       -4.46020
H         -6.71680        7.57810       -4.26550
H         -3.42290        5.66920       -6.29180
H         -0.84820        5.38400       -5.65180
H          1.62910        5.53170       -5.06290
H          3.30360        7.59710       -4.96450
H          2.51410        9.02870       -3.16940
H          1.51820       10.19060       -1.68590
H          1.69480       10.77330       -0.02640
H          4.12660       11.10820       -0.34420
H          3.23580       12.02030       -1.56820
H          4.02970       10.49960       -1.99620
H          4.51850        4.65300       -2.09690
H          5.28410        4.34570       -9.63290
H          5.87300        3.02150      -11.58120
H          6.74930        0.47660      -14.09340
H          6.70280        2.04560      -13.27950
H          4.50320        1.56260      -14.39060
H          4.38730        0.03780      -13.50460
H          4.28110        1.56860      -12.63650
H          6.13740        1.00860       -7.08790
H          7.85610        2.49500       -6.36790
H          7.12400       -0.54240       -1.02700
H          5.17290       -4.28970        0.30170
H          2.82290       -3.72490       -0.12020
H          1.28980        0.14880        1.69450
H          1.31880        1.00470        0.13280
H         -0.93230        1.19670        1.18860
H         -1.02390        0.26280       -0.31030
H         -1.06480       -0.56720        1.24440
H          5.97120       -0.16140        1.12490
H         11.94180       -3.64060       -0.26630
H         14.30080       -4.10050        0.23510
H         15.53940       -4.79930        4.91810
H         16.92870       -5.58110        4.14300
H         15.38810       -7.15180        2.95160
H         13.99970       -6.40070        3.74370
H         15.18960       -7.28200        4.70480
H         11.17090       -3.24040        3.92960
H          9.99730       -5.35920        3.38740
H          7.67670       -6.22390        4.18530
