219

C          5.56410        8.03450        8.13190
C          4.87240        7.98620        6.97560
C          3.47050        8.16080        7.16400
C          2.45820        8.19670        6.19530
C          2.70410        7.96540        4.78040
S          3.49180        6.51400        4.23090
C          3.21960        6.90050        2.56550
C          3.60930        5.96530        1.47460
C          2.52560        4.90610        1.25580
C          2.56330        8.08940        2.45830
Cl         2.09900        8.79770        0.96670
C          2.27570        8.69960        3.70880
Cl         1.53420       10.24010        3.82150
C          1.15910        8.39350        6.64900
C          0.82210        8.55440        8.01590
C          1.84360        8.54910        8.98120
C          1.54990        8.73180       10.39210
S          2.11410        7.60110       11.58590
C          1.38630        8.48700       12.88240
C          1.54430        8.04330       14.29460
C          2.94510        8.37090       14.81620
C          0.75610        9.59640       12.40310
C          0.83970        9.73460       10.99130
Cl         0.17610       11.07740       10.15220
Cl        -0.07170       10.73170       13.38910
C          3.14250        8.34190        8.52820
S          4.57090        8.29500        9.52430
C         -0.58460        8.61870        8.21130
C         -1.28480        8.51910        7.04740
S         -0.25250        8.35200        5.64430
C         -2.68220        8.45270        6.75550
C         -3.85620        8.43440        7.47900
C         -4.89070        8.20510        6.55270
C         -4.29140        8.10280        5.31500
O         -2.96080        8.26890        5.44990
C         -4.70540        7.77080        3.98710
C         -5.82480        7.15060        3.51760
C         -5.71160        6.76160        2.15680
C         -6.57990        5.95050        1.40130
C         -7.85420        5.48110        1.91780
S         -7.99610        4.69490        3.46300
C         -9.69360        4.42450        3.26200
C        -10.50660        3.78540        4.33290
C        -10.94890        4.81740        5.37320
C        -10.11380        4.93090        2.06880
Cl       -11.73840        4.86560        1.52150
C         -9.07460        5.52080        1.30060
Cl        -9.36640        6.27460       -0.21020
C         -6.12960        5.53920        0.15090
C         -4.90620        5.97990       -0.41060
C         -4.07250        6.85240        0.30800
C         -2.79420        7.30250       -0.22020
S         -1.60930        6.18180       -0.82940
C         -0.49110        7.44580       -1.22240
C          0.81070        7.13740       -1.87610
C          0.61340        6.43380       -3.21900
C         -1.01580        8.65690       -0.88570
C         -2.31380        8.57900       -0.30840
Cl        -3.20190        9.97220        0.14220
Cl        -0.21690       10.15470       -1.13170
C         -4.48150        7.18620        1.59120
S         -3.49070        8.01060        2.75100
C         -4.61770        5.33150       -1.63080
C         -5.51800        4.35790       -1.95910
S         -6.86170        4.30520       -0.83980
C         -5.29150        3.34070       -2.93520
C         -4.15950        3.21890       -3.69040
C         -4.02400        1.95700       -4.30870
C         -2.90060        1.47850       -5.01140
C         -1.84740        2.38660       -5.41850
S         -0.16340        2.03240       -5.15980
C          0.34110        3.54230       -5.83720
C          1.78270        3.88140       -5.98760
C          2.32330        3.36010       -7.32140
C         -0.74020        4.26270       -6.24930
Cl        -0.63330        5.81370       -6.97500
C         -1.98090        3.61450       -6.01310
Cl        -3.47480        4.29020       -6.52260
C         -2.83750        0.10460       -5.19880
C         -3.89750       -0.76920       -4.85420
C         -5.10130       -0.25470       -4.33160
C         -6.23810       -1.12220       -4.10100
S         -7.16070       -1.07080       -2.62790
C         -8.23090       -2.32020       -3.16170
C         -9.38010       -2.75670       -2.32260
C        -10.56680       -1.80460       -2.49110
C         -7.89170       -2.73350       -4.41610
C         -6.75970       -2.06370       -4.94970
Cl        -6.18590       -2.36010       -6.53950
Cl        -8.73520       -3.94960       -5.28480
C         -5.10380        1.09540       -3.99930
S         -6.31140        1.92250       -3.05150
C         -3.51050       -2.12980       -4.95040
C         -2.21670       -2.29890       -5.34450
S         -1.43760       -0.77660       -5.73630
C         -1.41860       -3.47780       -5.27200
C         -0.05520       -3.51660       -5.28620
C          0.47940       -4.77990       -4.94400
C          1.83350       -5.11800       -4.77660
C          2.87710       -4.14130       -5.04370
S          2.96010       -3.32430       -6.57720
C          4.33600       -2.39120       -6.09670
C          4.91150       -1.35550       -6.99770
C          4.03550       -0.10030       -7.00750
C          4.69670       -2.70550       -4.82120
Cl         6.01160       -1.98060       -3.99040
C          3.87650       -3.70010       -4.22200
Cl         4.08660       -4.19890       -2.59610
C          2.10900       -6.40100       -4.32590
C          1.09330       -7.35370       -4.06150
C         -0.26130       -7.01670       -4.23550
C         -1.30370       -7.98930       -3.94750
S         -1.28280       -9.56090       -4.69360
C         -2.70950      -10.06700       -3.85570
C         -3.23130      -11.45360       -3.99960
C         -2.42240      -12.42830       -3.13930
C         -3.16340       -9.06620       -3.05010
C         -2.37330       -7.88540       -3.10270
Cl        -2.70010       -6.52360       -2.11570
Cl        -4.55290       -9.19550       -2.05180
C         -0.53870       -5.72560       -4.66350
S         -2.12150       -5.03530       -4.89500
C          1.62850       -8.56610       -3.56410
C          2.98730       -8.55860       -3.45700
S          3.68970       -7.05150       -4.00080
C          3.81150       -9.58480       -2.90910
C          5.12470       -9.50380       -2.55690
C          5.62400      -10.69090       -1.96350
C          6.91140      -10.93510       -1.45840
C          7.94440       -9.91210       -1.50200
S          8.41110       -9.15010       -2.99390
C          9.57870       -8.14440       -2.20790
C         10.43680       -7.20260       -2.97800
C         11.72940       -7.88550       -3.43120
C          9.59970       -8.40150       -0.86960
Cl        10.62910       -7.59580        0.24150
C          8.67270       -9.39900       -0.46470
Cl         8.44730       -9.82900        1.17850
C          7.14230      -12.18620       -0.89840
C          6.14580      -13.18900       -0.81120
C          4.86110      -12.94630       -1.32110
C          3.81950      -13.96070       -1.29340
S          2.24760      -13.62440       -0.63100
C          1.66520      -15.21090       -1.00210
C          0.28690      -15.63130       -0.62770
C          0.22690      -16.07940        0.83450
C          2.64490      -15.94820       -1.59710
C          3.86580      -15.24140       -1.76930
Cl         5.21960      -15.92180       -2.57620
Cl         2.44230      -17.57240       -2.11320
C          4.62820      -11.69250       -1.87100
S          3.11580      -11.15000       -2.53960
C          6.63590      -14.35930       -0.16210
C          7.93750      -14.26230        0.17730
S          8.65420      -12.74730       -0.24470
H          6.62260        7.93360        8.27140
H          5.32410        7.83670        6.01210
H          3.75280        6.54130        0.55820
H          4.54960        5.47460        1.73140
H          2.40020        4.30570        2.15340
H          1.57400        5.37900        1.02390
H          2.80160        4.25030        0.43420
H          1.37920        6.96580       14.35720
H          0.79440        8.54820       14.90570
H          3.12150        9.44280       14.77580
H          3.04740        8.03930       15.84580
H          3.69780        7.87190       14.21040
H         -1.05050        8.70750        9.17470
H         -3.95600        8.56150        8.53720
H         -5.93740        8.12600        6.76320
H         -6.67300        6.92730        4.13700
H         -9.91740        3.00710        4.82080
H        -11.38560        3.32660        3.87680
H        -11.54740        4.33840        6.14330
H        -11.54440        5.59530        4.90230
H        -10.08140        5.27730        5.84050
H          1.40510        6.49590       -1.22080
H          1.35140        8.07400       -2.02000
H          1.57770        6.23620       -3.67910
H          0.02810        7.05460       -3.89250
H          0.09470        5.48760       -3.07960
H         -3.73880        5.53650       -2.21020
H         -3.39700        3.97280       -3.73270
H          1.89400        4.96640       -5.94930
H          2.34730        3.43790       -5.16630
H          1.78630        3.81730       -8.14830
H          2.20210        2.28170       -7.38060
H          3.37870        3.60050       -7.41610
H         -9.07720       -2.77600       -1.27430
H         -9.67170       -3.76460       -2.62290
H        -10.28530       -0.79640       -2.19650
H        -10.89070       -1.78620       -3.52870
H        -11.39810       -2.13110       -1.87230
H         -4.13520       -2.95180       -4.65060
H          0.54220       -2.64480       -5.48140
H          5.91370       -1.10440       -6.64700
H          4.98450       -1.75300       -8.01180
H          4.46490        0.64870       -7.66720
H          3.03490       -0.34490       -7.35690
H          3.96120        0.31590       -6.00590
H         -3.17200      -11.75930       -5.04570
H         -4.27720      -11.46850       -3.68860
H         -1.37800      -12.42290       -3.44300
H         -2.48140      -12.14340       -2.09170
H         -2.81350      -13.43610       -3.25000
H          1.03350       -9.40840       -3.26170
H          5.70830       -8.61260       -2.70090
H          9.88800       -6.84330       -3.85000
H         10.68010       -6.35010       -2.34060
H         12.29090       -8.23740       -2.56960
H         11.50340       -8.73580       -4.07020
H         12.34640       -7.18470       -3.98700
H         -0.01510      -16.45560       -1.27610
H         -0.39880      -14.79580       -0.77970
H         -0.78460      -16.38230        1.09090
H          0.89470      -16.92110        0.99860
H          0.52520      -15.26510        1.49040
H          6.02900      -15.22130        0.04360
H          8.54570      -14.99620        0.66900
