
  xtb     03022210213D
 energy: -437.115425471167 gnorm: 0.000189317296 xtb: 6.4.1 (unknown)
219244  0     0  0            999 V2000
    5.5641    8.0345    8.1319 C   0  0  0  0  0  0  0  0  0  0  0  0
    4.8724    7.9862    6.9756 C   0  0  0  0  0  0  0  0  0  0  0  0
    3.4705    8.1608    7.1640 C   0  0  0  0  0  0  0  0  0  0  0  0
    2.4582    8.1967    6.1953 C   0  0  0  0  0  0  0  0  0  0  0  0
    2.7041    7.9654    4.7804 C   0  0  0  0  0  0  0  0  0  0  0  0
    3.4918    6.5140    4.2309 S   0  0  0  0  0  0  0  0  0  0  0  0
    3.2196    6.9005    2.5655 C   0  0  0  0  0  0  0  0  0  0  0  0
    3.6093    5.9653    1.4746 C   0  0  0  0  0  0  0  0  0  0  0  0
    2.5256    4.9061    1.2558 C   0  0  0  0  0  0  0  0  0  0  0  0
    2.5633    8.0894    2.4583 C   0  0  0  0  0  0  0  0  0  0  0  0
    2.0990    8.7977    0.9667 Cl  0  0  0  0  0  0  0  0  0  0  0  0
    2.2757    8.6996    3.7088 C   0  0  0  0  0  0  0  0  0  0  0  0
    1.5342   10.2401    3.8215 Cl  0  0  0  0  0  0  0  0  0  0  0  0
    1.1591    8.3935    6.6490 C   0  0  0  0  0  0  0  0  0  0  0  0
    0.8221    8.5544    8.0159 C   0  0  0  0  0  0  0  0  0  0  0  0
    1.8436    8.5491    8.9812 C   0  0  0  0  0  0  0  0  0  0  0  0
    1.5499    8.7318   10.3921 C   0  0  0  0  0  0  0  0  0  0  0  0
    2.1141    7.6011   11.5859 S   0  0  0  0  0  0  0  0  0  0  0  0
    1.3863    8.4870   12.8824 C   0  0  0  0  0  0  0  0  0  0  0  0
    1.5443    8.0433   14.2946 C   0  0  0  0  0  0  0  0  0  0  0  0
    2.9451    8.3709   14.8162 C   0  0  0  0  0  0  0  0  0  0  0  0
    0.7561    9.5964   12.4031 C   0  0  0  0  0  0  0  0  0  0  0  0
    0.8397    9.7346   10.9913 C   0  0  0  0  0  0  0  0  0  0  0  0
    0.1761   11.0774   10.1522 Cl  0  0  0  0  0  0  0  0  0  0  0  0
   -0.0717   10.7317   13.3891 Cl  0  0  0  0  0  0  0  0  0  0  0  0
    3.1425    8.3419    8.5282 C   0  0  0  0  0  0  0  0  0  0  0  0
    4.5709    8.2950    9.5243 S   0  0  0  0  0  0  0  0  0  0  0  0
   -0.5846    8.6187    8.2113 C   0  0  0  0  0  0  0  0  0  0  0  0
   -1.2848    8.5191    7.0474 C   0  0  0  0  0  0  0  0  0  0  0  0
   -0.2525    8.3520    5.6443 S   0  0  0  0  0  0  0  0  0  0  0  0
   -2.6822    8.4527    6.7555 C   0  0  0  0  0  0  0  0  0  0  0  0
   -3.8562    8.4344    7.4790 C   0  0  0  0  0  0  0  0  0  0  0  0
   -4.8907    8.2051    6.5527 C   0  0  0  0  0  0  0  0  0  0  0  0
   -4.2914    8.1028    5.3150 C   0  0  0  0  0  0  0  0  0  0  0  0
   -2.9608    8.2689    5.4499 O   0  0  0  0  0  0  0  0  0  0  0  0
   -4.7054    7.7708    3.9871 C   0  0  0  0  0  0  0  0  0  0  0  0
   -5.8248    7.1506    3.5176 C   0  0  0  0  0  0  0  0  0  0  0  0
   -5.7116    6.7616    2.1568 C   0  0  0  0  0  0  0  0  0  0  0  0
   -6.5799    5.9505    1.4013 C   0  0  0  0  0  0  0  0  0  0  0  0
   -7.8542    5.4811    1.9178 C   0  0  0  0  0  0  0  0  0  0  0  0
   -7.9961    4.6949    3.4630 S   0  0  0  0  0  0  0  0  0  0  0  0
   -9.6936    4.4245    3.2620 C   0  0  0  0  0  0  0  0  0  0  0  0
  -10.5066    3.7854    4.3329 C   0  0  0  0  0  0  0  0  0  0  0  0
  -10.9489    4.8174    5.3732 C   0  0  0  0  0  0  0  0  0  0  0  0
  -10.1138    4.9309    2.0688 C   0  0  0  0  0  0  0  0  0  0  0  0
  -11.7384    4.8656    1.5215 Cl  0  0  0  0  0  0  0  0  0  0  0  0
   -9.0746    5.5208    1.3006 C   0  0  0  0  0  0  0  0  0  0  0  0
   -9.3664    6.2746   -0.2102 Cl  0  0  0  0  0  0  0  0  0  0  0  0
   -6.1296    5.5392    0.1509 C   0  0  0  0  0  0  0  0  0  0  0  0
   -4.9062    5.9799   -0.4106 C   0  0  0  0  0  0  0  0  0  0  0  0
   -4.0725    6.8524    0.3080 C   0  0  0  0  0  0  0  0  0  0  0  0
   -2.7942    7.3025   -0.2202 C   0  0  0  0  0  0  0  0  0  0  0  0
   -1.6093    6.1818   -0.8294 S   0  0  0  0  0  0  0  0  0  0  0  0
   -0.4911    7.4458   -1.2224 C   0  0  0  0  0  0  0  0  0  0  0  0
    0.8107    7.1374   -1.8761 C   0  0  0  0  0  0  0  0  0  0  0  0
    0.6134    6.4338   -3.2190 C   0  0  0  0  0  0  0  0  0  0  0  0
   -1.0158    8.6569   -0.8857 C   0  0  0  0  0  0  0  0  0  0  0  0
   -2.3138    8.5790   -0.3084 C   0  0  0  0  0  0  0  0  0  0  0  0
   -3.2019    9.9722    0.1422 Cl  0  0  0  0  0  0  0  0  0  0  0  0
   -0.2169   10.1547   -1.1317 Cl  0  0  0  0  0  0  0  0  0  0  0  0
   -4.4815    7.1862    1.5912 C   0  0  0  0  0  0  0  0  0  0  0  0
   -3.4907    8.0106    2.7510 S   0  0  0  0  0  0  0  0  0  0  0  0
   -4.6177    5.3315   -1.6308 C   0  0  0  0  0  0  0  0  0  0  0  0
   -5.5180    4.3579   -1.9591 C   0  0  0  0  0  0  0  0  0  0  0  0
   -6.8617    4.3052   -0.8398 S   0  0  0  0  0  0  0  0  0  0  0  0
   -5.2915    3.3407   -2.9352 C   0  0  0  0  0  0  0  0  0  0  0  0
   -4.1595    3.2189   -3.6904 C   0  0  0  0  0  0  0  0  0  0  0  0
   -4.0240    1.9570   -4.3087 C   0  0  0  0  0  0  0  0  0  0  0  0
   -2.9006    1.4785   -5.0114 C   0  0  0  0  0  0  0  0  0  0  0  0
   -1.8474    2.3866   -5.4185 C   0  0  0  0  0  0  0  0  0  0  0  0
   -0.1634    2.0324   -5.1598 S   0  0  0  0  0  0  0  0  0  0  0  0
    0.3411    3.5423   -5.8372 C   0  0  0  0  0  0  0  0  0  0  0  0
    1.7827    3.8814   -5.9876 C   0  0  0  0  0  0  0  0  0  0  0  0
    2.3233    3.3601   -7.3214 C   0  0  0  0  0  0  0  0  0  0  0  0
   -0.7402    4.2627   -6.2493 C   0  0  0  0  0  0  0  0  0  0  0  0
   -0.6333    5.8137   -6.9750 Cl  0  0  0  0  0  0  0  0  0  0  0  0
   -1.9809    3.6145   -6.0131 C   0  0  0  0  0  0  0  0  0  0  0  0
   -3.4748    4.2902   -6.5226 Cl  0  0  0  0  0  0  0  0  0  0  0  0
   -2.8375    0.1046   -5.1988 C   0  0  0  0  0  0  0  0  0  0  0  0
   -3.8975   -0.7692   -4.8542 C   0  0  0  0  0  0  0  0  0  0  0  0
   -5.1013   -0.2547   -4.3316 C   0  0  0  0  0  0  0  0  0  0  0  0
   -6.2381   -1.1222   -4.1010 C   0  0  0  0  0  0  0  0  0  0  0  0
   -7.1607   -1.0708   -2.6279 S   0  0  0  0  0  0  0  0  0  0  0  0
   -8.2309   -2.3202   -3.1617 C   0  0  0  0  0  0  0  0  0  0  0  0
   -9.3801   -2.7567   -2.3226 C   0  0  0  0  0  0  0  0  0  0  0  0
  -10.5668   -1.8046   -2.4911 C   0  0  0  0  0  0  0  0  0  0  0  0
   -7.8917   -2.7335   -4.4161 C   0  0  0  0  0  0  0  0  0  0  0  0
   -6.7597   -2.0637   -4.9497 C   0  0  0  0  0  0  0  0  0  0  0  0
   -6.1859   -2.3601   -6.5395 Cl  0  0  0  0  0  0  0  0  0  0  0  0
   -8.7352   -3.9496   -5.2848 Cl  0  0  0  0  0  0  0  0  0  0  0  0
   -5.1038    1.0954   -3.9993 C   0  0  0  0  0  0  0  0  0  0  0  0
   -6.3114    1.9225   -3.0515 S   0  0  0  0  0  0  0  0  0  0  0  0
   -3.5105   -2.1298   -4.9504 C   0  0  0  0  0  0  0  0  0  0  0  0
   -2.2167   -2.2989   -5.3445 C   0  0  0  0  0  0  0  0  0  0  0  0
   -1.4376   -0.7766   -5.7363 S   0  0  0  0  0  0  0  0  0  0  0  0
   -1.4186   -3.4778   -5.2720 C   0  0  0  0  0  0  0  0  0  0  0  0
   -0.0552   -3.5166   -5.2862 C   0  0  0  0  0  0  0  0  0  0  0  0
    0.4794   -4.7799   -4.9440 C   0  0  0  0  0  0  0  0  0  0  0  0
    1.8335   -5.1180   -4.7766 C   0  0  0  0  0  0  0  0  0  0  0  0
    2.8771   -4.1413   -5.0437 C   0  0  0  0  0  0  0  0  0  0  0  0
    2.9601   -3.3243   -6.5772 S   0  0  0  0  0  0  0  0  0  0  0  0
    4.3360   -2.3912   -6.0967 C   0  0  0  0  0  0  0  0  0  0  0  0
    4.9115   -1.3555   -6.9977 C   0  0  0  0  0  0  0  0  0  0  0  0
    4.0355   -0.1003   -7.0075 C   0  0  0  0  0  0  0  0  0  0  0  0
    4.6967   -2.7055   -4.8212 C   0  0  0  0  0  0  0  0  0  0  0  0
    6.0116   -1.9806   -3.9904 Cl  0  0  0  0  0  0  0  0  0  0  0  0
    3.8765   -3.7001   -4.2220 C   0  0  0  0  0  0  0  0  0  0  0  0
    4.0866   -4.1989   -2.5961 Cl  0  0  0  0  0  0  0  0  0  0  0  0
    2.1090   -6.4010   -4.3259 C   0  0  0  0  0  0  0  0  0  0  0  0
    1.0933   -7.3537   -4.0615 C   0  0  0  0  0  0  0  0  0  0  0  0
   -0.2613   -7.0167   -4.2355 C   0  0  0  0  0  0  0  0  0  0  0  0
   -1.3037   -7.9893   -3.9475 C   0  0  0  0  0  0  0  0  0  0  0  0
   -1.2828   -9.5609   -4.6936 S   0  0  0  0  0  0  0  0  0  0  0  0
   -2.7095  -10.0670   -3.8557 C   0  0  0  0  0  0  0  0  0  0  0  0
   -3.2313  -11.4536   -3.9996 C   0  0  0  0  0  0  0  0  0  0  0  0
   -2.4224  -12.4283   -3.1393 C   0  0  0  0  0  0  0  0  0  0  0  0
   -3.1634   -9.0662   -3.0501 C   0  0  0  0  0  0  0  0  0  0  0  0
   -2.3733   -7.8854   -3.1027 C   0  0  0  0  0  0  0  0  0  0  0  0
   -2.7001   -6.5236   -2.1157 Cl  0  0  0  0  0  0  0  0  0  0  0  0
   -4.5529   -9.1955   -2.0518 Cl  0  0  0  0  0  0  0  0  0  0  0  0
   -0.5387   -5.7256   -4.6635 C   0  0  0  0  0  0  0  0  0  0  0  0
   -2.1215   -5.0353   -4.8950 S   0  0  0  0  0  0  0  0  0  0  0  0
    1.6285   -8.5661   -3.5641 C   0  0  0  0  0  0  0  0  0  0  0  0
    2.9873   -8.5586   -3.4570 C   0  0  0  0  0  0  0  0  0  0  0  0
    3.6897   -7.0515   -4.0008 S   0  0  0  0  0  0  0  0  0  0  0  0
    3.8115   -9.5848   -2.9091 C   0  0  0  0  0  0  0  0  0  0  0  0
    5.1247   -9.5038   -2.5569 C   0  0  0  0  0  0  0  0  0  0  0  0
    5.6240  -10.6909   -1.9635 C   0  0  0  0  0  0  0  0  0  0  0  0
    6.9114  -10.9351   -1.4584 C   0  0  0  0  0  0  0  0  0  0  0  0
    7.9444   -9.9121   -1.5020 C   0  0  0  0  0  0  0  0  0  0  0  0
    8.4111   -9.1501   -2.9939 S   0  0  0  0  0  0  0  0  0  0  0  0
    9.5787   -8.1444   -2.2079 C   0  0  0  0  0  0  0  0  0  0  0  0
   10.4368   -7.2026   -2.9780 C   0  0  0  0  0  0  0  0  0  0  0  0
   11.7294   -7.8855   -3.4312 C   0  0  0  0  0  0  0  0  0  0  0  0
    9.5997   -8.4015   -0.8696 C   0  0  0  0  0  0  0  0  0  0  0  0
   10.6291   -7.5958    0.2415 Cl  0  0  0  0  0  0  0  0  0  0  0  0
    8.6727   -9.3990   -0.4647 C   0  0  0  0  0  0  0  0  0  0  0  0
    8.4473   -9.8290    1.1785 Cl  0  0  0  0  0  0  0  0  0  0  0  0
    7.1423  -12.1862   -0.8984 C   0  0  0  0  0  0  0  0  0  0  0  0
    6.1458  -13.1890   -0.8112 C   0  0  0  0  0  0  0  0  0  0  0  0
    4.8611  -12.9463   -1.3211 C   0  0  0  0  0  0  0  0  0  0  0  0
    3.8195  -13.9607   -1.2934 C   0  0  0  0  0  0  0  0  0  0  0  0
    2.2476  -13.6244   -0.6310 S   0  0  0  0  0  0  0  0  0  0  0  0
    1.6652  -15.2109   -1.0021 C   0  0  0  0  0  0  0  0  0  0  0  0
    0.2869  -15.6313   -0.6277 C   0  0  0  0  0  0  0  0  0  0  0  0
    0.2269  -16.0794    0.8345 C   0  0  0  0  0  0  0  0  0  0  0  0
    2.6449  -15.9482   -1.5971 C   0  0  0  0  0  0  0  0  0  0  0  0
    3.8658  -15.2414   -1.7693 C   0  0  0  0  0  0  0  0  0  0  0  0
    5.2196  -15.9218   -2.5762 Cl  0  0  0  0  0  0  0  0  0  0  0  0
    2.4423  -17.5724   -2.1132 Cl  0  0  0  0  0  0  0  0  0  0  0  0
    4.6282  -11.6925   -1.8710 C   0  0  0  0  0  0  0  0  0  0  0  0
    3.1158  -11.1500   -2.5396 S   0  0  0  0  0  0  0  0  0  0  0  0
    6.6359  -14.3593   -0.1621 C   0  0  0  0  0  0  0  0  0  0  0  0
    7.9375  -14.2623    0.1773 C   0  0  0  0  0  0  0  0  0  0  0  0
    8.6542  -12.7473   -0.2447 S   0  0  0  0  0  0  0  0  0  0  0  0
    6.6226    7.9336    8.2714 H   0  0  0  0  0  0  0  0  0  0  0  0
    5.3241    7.8367    6.0121 H   0  0  0  0  0  0  0  0  0  0  0  0
    3.7528    6.5413    0.5582 H   0  0  0  0  0  0  0  0  0  0  0  0
    4.5496    5.4746    1.7314 H   0  0  0  0  0  0  0  0  0  0  0  0
    2.4002    4.3057    2.1534 H   0  0  0  0  0  0  0  0  0  0  0  0
    1.5740    5.3790    1.0239 H   0  0  0  0  0  0  0  0  0  0  0  0
    2.8016    4.2503    0.4342 H   0  0  0  0  0  0  0  0  0  0  0  0
    1.3792    6.9658   14.3572 H   0  0  0  0  0  0  0  0  0  0  0  0
    0.7944    8.5482   14.9057 H   0  0  0  0  0  0  0  0  0  0  0  0
    3.1215    9.4428   14.7758 H   0  0  0  0  0  0  0  0  0  0  0  0
    3.0474    8.0393   15.8458 H   0  0  0  0  0  0  0  0  0  0  0  0
    3.6978    7.8719   14.2104 H   0  0  0  0  0  0  0  0  0  0  0  0
   -1.0505    8.7075    9.1747 H   0  0  0  0  0  0  0  0  0  0  0  0
   -3.9560    8.5615    8.5372 H   0  0  0  0  0  0  0  0  0  0  0  0
   -5.9374    8.1260    6.7632 H   0  0  0  0  0  0  0  0  0  0  0  0
   -6.6730    6.9273    4.1370 H   0  0  0  0  0  0  0  0  0  0  0  0
   -9.9174    3.0071    4.8208 H   0  0  0  0  0  0  0  0  0  0  0  0
  -11.3856    3.3266    3.8768 H   0  0  0  0  0  0  0  0  0  0  0  0
  -11.5474    4.3384    6.1433 H   0  0  0  0  0  0  0  0  0  0  0  0
  -11.5444    5.5953    4.9023 H   0  0  0  0  0  0  0  0  0  0  0  0
  -10.0814    5.2773    5.8405 H   0  0  0  0  0  0  0  0  0  0  0  0
    1.4051    6.4959   -1.2208 H   0  0  0  0  0  0  0  0  0  0  0  0
    1.3514    8.0740   -2.0200 H   0  0  0  0  0  0  0  0  0  0  0  0
    1.5777    6.2362   -3.6791 H   0  0  0  0  0  0  0  0  0  0  0  0
    0.0281    7.0546   -3.8925 H   0  0  0  0  0  0  0  0  0  0  0  0
    0.0947    5.4876   -3.0796 H   0  0  0  0  0  0  0  0  0  0  0  0
   -3.7388    5.5365   -2.2102 H   0  0  0  0  0  0  0  0  0  0  0  0
   -3.3970    3.9728   -3.7327 H   0  0  0  0  0  0  0  0  0  0  0  0
    1.8940    4.9664   -5.9493 H   0  0  0  0  0  0  0  0  0  0  0  0
    2.3473    3.4379   -5.1663 H   0  0  0  0  0  0  0  0  0  0  0  0
    1.7863    3.8173   -8.1483 H   0  0  0  0  0  0  0  0  0  0  0  0
    2.2021    2.2817   -7.3806 H   0  0  0  0  0  0  0  0  0  0  0  0
    3.3787    3.6005   -7.4161 H   0  0  0  0  0  0  0  0  0  0  0  0
   -9.0772   -2.7760   -1.2743 H   0  0  0  0  0  0  0  0  0  0  0  0
   -9.6717   -3.7646   -2.6229 H   0  0  0  0  0  0  0  0  0  0  0  0
  -10.2853   -0.7964   -2.1965 H   0  0  0  0  0  0  0  0  0  0  0  0
  -10.8907   -1.7862   -3.5287 H   0  0  0  0  0  0  0  0  0  0  0  0
  -11.3981   -2.1311   -1.8723 H   0  0  0  0  0  0  0  0  0  0  0  0
   -4.1352   -2.9518   -4.6506 H   0  0  0  0  0  0  0  0  0  0  0  0
    0.5422   -2.6448   -5.4814 H   0  0  0  0  0  0  0  0  0  0  0  0
    5.9137   -1.1044   -6.6470 H   0  0  0  0  0  0  0  0  0  0  0  0
    4.9845   -1.7530   -8.0118 H   0  0  0  0  0  0  0  0  0  0  0  0
    4.4649    0.6487   -7.6672 H   0  0  0  0  0  0  0  0  0  0  0  0
    3.0349   -0.3449   -7.3569 H   0  0  0  0  0  0  0  0  0  0  0  0
    3.9612    0.3159   -6.0059 H   0  0  0  0  0  0  0  0  0  0  0  0
   -3.1720  -11.7593   -5.0457 H   0  0  0  0  0  0  0  0  0  0  0  0
   -4.2772  -11.4685   -3.6886 H   0  0  0  0  0  0  0  0  0  0  0  0
   -1.3780  -12.4229   -3.4430 H   0  0  0  0  0  0  0  0  0  0  0  0
   -2.4814  -12.1434   -2.0917 H   0  0  0  0  0  0  0  0  0  0  0  0
   -2.8135  -13.4361   -3.2500 H   0  0  0  0  0  0  0  0  0  0  0  0
    1.0335   -9.4084   -3.2617 H   0  0  0  0  0  0  0  0  0  0  0  0
    5.7083   -8.6126   -2.7009 H   0  0  0  0  0  0  0  0  0  0  0  0
    9.8880   -6.8433   -3.8500 H   0  0  0  0  0  0  0  0  0  0  0  0
   10.6801   -6.3501   -2.3406 H   0  0  0  0  0  0  0  0  0  0  0  0
   12.2909   -8.2374   -2.5696 H   0  0  0  0  0  0  0  0  0  0  0  0
   11.5034   -8.7358   -4.0702 H   0  0  0  0  0  0  0  0  0  0  0  0
   12.3464   -7.1847   -3.9870 H   0  0  0  0  0  0  0  0  0  0  0  0
   -0.0151  -16.4556   -1.2761 H   0  0  0  0  0  0  0  0  0  0  0  0
   -0.3988  -14.7958   -0.7797 H   0  0  0  0  0  0  0  0  0  0  0  0
   -0.7846  -16.3823    1.0909 H   0  0  0  0  0  0  0  0  0  0  0  0
    0.8947  -16.9211    0.9986 H   0  0  0  0  0  0  0  0  0  0  0  0
    0.5252  -15.2651    1.4904 H   0  0  0  0  0  0  0  0  0  0  0  0
    6.0290  -15.2213    0.0436 H   0  0  0  0  0  0  0  0  0  0  0  0
    8.5457  -14.9962    0.6690 H   0  0  0  0  0  0  0  0  0  0  0  0
  1  2  2  0  0  0  0
  2  3  1  0  0  0  0
  3  4  2  0  0  0  0
  4  5  1  0  0  0  0
  5  6  1  0  0  0  0
  6  7  1  0  0  0  0
  7  8  1  0  0  0  0
  8  9  1  0  0  0  0
  7 10  2  0  0  0  0
 10 11  1  0  0  0  0
 10 12  1  0  0  0  0
 12 13  1  0  0  0  0
  4 14  1  0  0  0  0
 14 15  2  0  0  0  0
 15 16  1  0  0  0  0
 16 17  1  0  0  0  0
 17 18  1  0  0  0  0
 18 19  1  0  0  0  0
 19 20  1  0  0  0  0
 20 21  1  0  0  0  0
 19 22  2  0  0  0  0
 22 23  1  0  0  0  0
 23 24  1  0  0  0  0
 22 25  1  0  0  0  0
 16 26  2  0  0  0  0
 26 27  1  0  0  0  0
 15 28  1  0  0  0  0
 28 29  2  0  0  0  0
 29 30  1  0  0  0  0
 29 31  1  0  0  0  0
 31 32  2  0  0  0  0
 32 33  1  0  0  0  0
 33 34  2  0  0  0  0
 34 35  1  0  0  0  0
 34 36  1  0  0  0  0
 36 37  2  0  0  0  0
 37 38  1  0  0  0  0
 38 39  2  0  0  0  0
 39 40  1  0  0  0  0
 40 41  1  0  0  0  0
 41 42  1  0  0  0  0
 42 43  1  0  0  0  0
 43 44  1  0  0  0  0
 42 45  2  0  0  0  0
 45 46  1  0  0  0  0
 45 47  1  0  0  0  0
 47 48  1  0  0  0  0
 39 49  1  0  0  0  0
 49 50  2  0  0  0  0
 50 51  1  0  0  0  0
 51 52  1  0  0  0  0
 52 53  1  0  0  0  0
 53 54  1  0  0  0  0
 54 55  1  0  0  0  0
 55 56  1  0  0  0  0
 54 57  2  0  0  0  0
 57 58  1  0  0  0  0
 58 59  1  0  0  0  0
 57 60  1  0  0  0  0
 51 61  2  0  0  0  0
 61 62  1  0  0  0  0
 50 63  1  0  0  0  0
 63 64  2  0  0  0  0
 64 65  1  0  0  0  0
 64 66  1  0  0  0  0
 66 67  2  0  0  0  0
 67 68  1  0  0  0  0
 68 69  2  0  0  0  0
 69 70  1  0  0  0  0
 70 71  1  0  0  0  0
 71 72  1  0  0  0  0
 72 73  1  0  0  0  0
 73 74  1  0  0  0  0
 72 75  2  0  0  0  0
 75 76  1  0  0  0  0
 75 77  1  0  0  0  0
 77 78  1  0  0  0  0
 69 79  1  0  0  0  0
 79 80  2  0  0  0  0
 80 81  1  0  0  0  0
 81 82  1  0  0  0  0
 82 83  1  0  0  0  0
 83 84  1  0  0  0  0
 84 85  1  0  0  0  0
 85 86  1  0  0  0  0
 84 87  2  0  0  0  0
 87 88  1  0  0  0  0
 88 89  1  0  0  0  0
 87 90  1  0  0  0  0
 81 91  2  0  0  0  0
 91 92  1  0  0  0  0
 80 93  1  0  0  0  0
 93 94  2  0  0  0  0
 94 95  1  0  0  0  0
 94 96  1  0  0  0  0
 96 97  2  0  0  0  0
 97 98  1  0  0  0  0
 98 99  2  0  0  0  0
 99100  1  0  0  0  0
100101  1  0  0  0  0
101102  1  0  0  0  0
102103  1  0  0  0  0
103104  1  0  0  0  0
102105  2  0  0  0  0
105106  1  0  0  0  0
105107  1  0  0  0  0
107108  1  0  0  0  0
 99109  1  0  0  0  0
109110  2  0  0  0  0
110111  1  0  0  0  0
111112  1  0  0  0  0
112113  1  0  0  0  0
113114  1  0  0  0  0
114115  1  0  0  0  0
115116  1  0  0  0  0
114117  2  0  0  0  0
117118  1  0  0  0  0
118119  1  0  0  0  0
117120  1  0  0  0  0
111121  2  0  0  0  0
121122  1  0  0  0  0
110123  1  0  0  0  0
123124  2  0  0  0  0
124125  1  0  0  0  0
124126  1  0  0  0  0
126127  2  0  0  0  0
127128  1  0  0  0  0
128129  2  0  0  0  0
129130  1  0  0  0  0
130131  1  0  0  0  0
131132  1  0  0  0  0
132133  1  0  0  0  0
133134  1  0  0  0  0
132135  2  0  0  0  0
135136  1  0  0  0  0
135137  1  0  0  0  0
137138  1  0  0  0  0
129139  1  0  0  0  0
139140  2  0  0  0  0
140141  1  0  0  0  0
141142  1  0  0  0  0
142143  1  0  0  0  0
143144  1  0  0  0  0
144145  1  0  0  0  0
145146  1  0  0  0  0
144147  2  0  0  0  0
147148  1  0  0  0  0
148149  1  0  0  0  0
147150  1  0  0  0  0
141151  2  0  0  0  0
151152  1  0  0  0  0
140153  1  0  0  0  0
153154  2  0  0  0  0
154155  1  0  0  0  0
 27  1  1  0  0  0  0
 35 31  1  0  0  0  0
 62 36  1  0  0  0  0
 92 66  1  0  0  0  0
122 96  1  0  0  0  0
152126  1  0  0  0  0
 26  3  1  0  0  0  0
 61 38  1  0  0  0  0
 91 68  1  0  0  0  0
121 98  1  0  0  0  0
151128  1  0  0  0  0
 12  5  2  0  0  0  0
 30 14  1  0  0  0  0
 47 40  2  0  0  0  0
 65 49  1  0  0  0  0
 77 70  2  0  0  0  0
 95 79  1  0  0  0  0
107100  2  0  0  0  0
125109  1  0  0  0  0
137130  2  0  0  0  0
155139  1  0  0  0  0
 23 17  2  0  0  0  0
 58 52  2  0  0  0  0
 88 82  2  0  0  0  0
118112  2  0  0  0  0
148142  2  0  0  0  0
  1156  1  0  0  0  0
  2157  1  0  0  0  0
  8158  1  0  0  0  0
  8159  1  0  0  0  0
  9160  1  0  0  0  0
  9161  1  0  0  0  0
  9162  1  0  0  0  0
 20163  1  0  0  0  0
 20164  1  0  0  0  0
 21165  1  0  0  0  0
 21166  1  0  0  0  0
 21167  1  0  0  0  0
 28168  1  0  0  0  0
 32169  1  0  0  0  0
 33170  1  0  0  0  0
 37171  1  0  0  0  0
 43172  1  0  0  0  0
 43173  1  0  0  0  0
 44174  1  0  0  0  0
 44175  1  0  0  0  0
 44176  1  0  0  0  0
 55177  1  0  0  0  0
 55178  1  0  0  0  0
 56179  1  0  0  0  0
 56180  1  0  0  0  0
 56181  1  0  0  0  0
 63182  1  0  0  0  0
 67183  1  0  0  0  0
 73184  1  0  0  0  0
 73185  1  0  0  0  0
 74186  1  0  0  0  0
 74187  1  0  0  0  0
 74188  1  0  0  0  0
 85189  1  0  0  0  0
 85190  1  0  0  0  0
 86191  1  0  0  0  0
 86192  1  0  0  0  0
 86193  1  0  0  0  0
 93194  1  0  0  0  0
 97195  1  0  0  0  0
103196  1  0  0  0  0
103197  1  0  0  0  0
104198  1  0  0  0  0
104199  1  0  0  0  0
104200  1  0  0  0  0
115201  1  0  0  0  0
115202  1  0  0  0  0
116203  1  0  0  0  0
116204  1  0  0  0  0
116205  1  0  0  0  0
123206  1  0  0  0  0
127207  1  0  0  0  0
133208  1  0  0  0  0
133209  1  0  0  0  0
134210  1  0  0  0  0
134211  1  0  0  0  0
134212  1  0  0  0  0
145213  1  0  0  0  0
145214  1  0  0  0  0
146215  1  0  0  0  0
146216  1  0  0  0  0
146217  1  0  0  0  0
153218  1  0  0  0  0
154219  1  0  0  0  0
M  END
