236

C         -4.33750       -4.16120       12.30830
C         -3.52470       -3.08730       12.37670
C         -3.02560       -2.69090       11.10200
C         -2.14250       -1.64360       10.79970
C         -1.56770       -0.80470       11.83990
S         -1.70700        0.92650       11.78450
C         -0.81140        1.12260       13.25240
C         -0.50240        2.47710       13.78720
C          0.66420        3.11030       13.02530
C         -0.42430       -0.09070       13.73750
Cl         0.49370       -0.30260       15.17220
C         -0.85600       -1.18650       12.94220
Cl        -0.44400       -2.81290       13.30520
C         -1.82350       -1.45370        9.46220
C         -2.33170       -2.27050        8.42360
C         -3.23790       -3.30220        8.72130
C         -3.85740       -4.09570        7.67140
S         -2.92830       -4.93320        6.46230
C         -4.34570       -5.54020        5.67340
C         -4.25330       -6.43440        4.48710
C         -3.95250       -7.87530        4.90630
C         -5.46390       -5.11700        6.32600
C         -5.19290       -4.29370        7.45200
Cl        -6.44330       -3.55680        8.36320
Cl        -7.06250       -5.51310        5.84440
C         -3.54810       -3.49860       10.06260
S         -4.57360       -4.75140       10.70110
C         -1.83120       -1.87930        7.15730
C         -0.97930       -0.81750        7.21270
S         -0.74900       -0.22960        8.84530
C         -0.32720       -0.19000        6.11000
C          0.26450        1.03580        6.05260
C          0.76740        1.35380        4.76730
C          1.46990        2.50540        4.37570
C          1.58620        3.65600        5.25340
S          3.10420        4.42790        5.59080
C          2.35450        5.64390        6.56720
C          3.15220        6.75170        7.16050
C          3.35110        7.87790        6.14270
C          1.00460        5.45550        6.61110
Cl        -0.08010        6.47620        7.46640
C          0.56540        4.32650        5.87040
Cl        -1.09280        3.91620        5.69870
C          2.00430        2.50940        3.09640
C          1.76900        1.48480        2.14500
C          0.97770        0.37220        2.50510
C          0.64060       -0.69680        1.58190
S          1.83700       -1.41920        0.53780
C          0.73420       -2.61170       -0.05900
C          1.16230       -3.65510       -1.03030
C          1.46700       -4.97470       -0.31870
C         -0.48560       -2.45240        0.52550
C         -0.54930       -1.36320        1.43370
Cl        -2.04620       -0.93140        2.14120
Cl        -1.84270       -3.46430        0.24410
C          0.54280        0.31680        3.82950
S         -0.27270       -1.02500        4.57550
C          2.38070        1.78090        0.90180
C          3.07670        2.95890        0.89070
S          2.99280        3.77850        2.43870
C          3.82700        3.57200       -0.15080
S          5.08770        4.69230        0.24610
C          5.44980        5.02120       -1.40980
C          4.65740        4.23830       -2.24750
C          3.70860        3.43680       -1.53630
C          2.77040        2.68320       -2.26360
C          2.83160        2.61250       -3.63350
C          1.87950        1.78600       -4.37120
C          1.29220        0.69630       -3.89230
C          3.85610        3.32310       -4.33780
C          3.98780        3.16460       -5.82080
C          4.72690        4.12250       -3.65460
C          6.37880        6.07800       -1.76480
C          6.05540        7.07870       -2.59810
C          4.70190        7.18030       -3.11630
C          4.25900        7.09100       -4.39530
C          2.88220        6.74200       -4.49090
C          2.16810        6.32520       -5.62970
C          2.63260        6.52610       -6.98940
S          4.25950        6.20670       -7.51590
C          3.91760        6.65790       -9.14950
C          4.95430        6.55210      -10.21200
C          5.00090        5.13530      -10.78930
C          2.61370        7.03420       -9.26860
Cl         1.90130        7.55900      -10.73870
C          1.88490        6.96390       -8.05160
Cl         0.25240        7.47470       -7.94110
C          0.98720        5.62550       -5.38620
C          0.42160        5.49740       -4.09810
C          1.01690        6.12560       -2.98740
C          0.38860        6.08640       -1.68350
S          1.27940        5.75020       -0.22570
C         -0.12930        5.88880        0.77140
C         -0.04720        5.74130        2.25080
C          0.90980        6.76090        2.86720
C         -1.22020        6.17450        0.00470
C         -0.93390        6.28790       -1.38160
Cl        -2.13380        6.73820       -2.52380
Cl        -2.80700        6.37860        0.62870
C          2.27970        6.65550       -3.21120
S          3.38610        7.11600       -1.95800
C         -0.58610        4.51190       -4.05530
C         -0.78020        3.87150       -5.24650
S          0.18830        4.56960       -6.52410
C         -1.43950        2.61050       -5.36210
C         -2.05730        1.98370       -4.31900
C         -2.21250        0.59420       -4.50190
C         -2.59580       -0.34710       -3.53070
C         -3.00870        0.05590       -2.19740
S         -2.09840        1.20710       -1.25390
C         -3.24470        1.18340        0.04100
C         -3.12840        2.08840        1.21900
C         -1.70560        2.57080        1.46270
C         -4.24410        0.29820       -0.23550
Cl        -5.55930       -0.00720        0.82290
C         -4.11290       -0.34460       -1.49530
Cl        -5.30070       -1.42310       -2.09440
C         -2.48090       -1.68220       -3.89400
C         -2.09130       -2.10610       -5.18850
C         -1.80350       -1.15410       -6.18790
C         -1.48780       -1.57560       -7.53830
S         -0.14470       -0.91670       -8.42590
C         -0.48380       -1.88810       -9.81680
C          0.38650       -1.84090      -11.02370
C          1.55720       -2.81870      -10.89640
C         -1.57320       -2.67590       -9.59100
C         -2.14960       -2.49800       -8.30610
Cl        -3.59050       -3.30550       -7.83540
Cl        -2.21230       -3.77970      -10.73980
C         -1.79520        0.17850       -5.79140
S         -1.19950        1.53090       -6.72060
C         -1.89140       -3.50860       -5.24150
C         -2.10190       -4.12920       -4.04550
S         -2.61600       -3.01910       -2.80160
C         -1.88440       -5.50200       -3.70910
C         -1.86070       -6.58400       -4.53460
C         -1.56620       -7.79850       -3.86200
C         -1.43990       -9.08710       -4.40840
C         -1.66120       -9.31780       -5.82590
S         -3.11330       -8.76230       -6.60790
C         -2.60290       -9.34660       -8.15410
C         -3.42160       -9.09880       -9.37230
C         -3.26390       -7.65090       -9.84450
C         -1.37940       -9.93840       -8.05370
Cl        -0.53840      -10.63200       -9.37910
C         -0.84520       -9.93020       -6.73630
Cl         0.71390      -10.54420       -6.37720
C         -1.10110      -10.11130       -3.53060
C         -0.83230       -9.89310       -2.15700
C         -0.90980       -8.59830       -1.62260
C         -0.49490       -8.30190       -0.26010
S         -1.47510       -7.39050        0.84950
C         -0.24400       -7.40220        2.07160
C         -0.44580       -6.72890        3.38440
C         -0.63400       -5.21890        3.23310
C          0.85340       -8.07680        1.62660
C          0.71480       -8.58940        0.30910
Cl         1.98800       -9.40700       -0.50160
Cl         2.28930       -8.29190        2.54260
C         -1.32480       -7.59030       -2.48300
S         -1.53380       -5.92400       -2.04680
C         -0.55310      -11.11310       -1.47550
C         -0.61010      -12.18910       -2.28630
S         -0.99460      -11.80230       -3.92670
H         -4.83760       -4.66060       13.11500
H         -3.28360       -2.57940       13.29190
H         -1.38350        3.11470       13.69370
H         -0.24660        2.38600       14.84420
H          1.55520        2.49460       13.12050
H          0.41790        3.20410       11.97030
H          0.87850        4.09800       13.42440
H         -5.20460       -6.40140        3.95350
H         -3.46970       -6.07340        3.81940
H         -3.85520       -8.50740        4.02740
H         -3.02800       -7.92020        5.47850
H         -4.75740       -8.26210        5.52600
H         -2.09800       -2.35650        6.23180
H          0.34320        1.68510        6.90560
H          2.62620        7.13640        8.03600
H          4.12520        6.37070        7.47470
H          3.94560        8.67520        6.58010
H          3.86280        7.50200        5.26000
H          2.39060        8.28640        5.83900
H          0.35620       -3.81610       -1.74970
H          2.04740       -3.30980       -1.56640
H          0.58440       -5.32240        0.21010
H          2.27600       -4.84580        0.39620
H          1.75820       -5.73120       -1.04220
H          2.34920        1.11340        0.06270
H          1.98040        2.17370       -1.73780
H          1.67790        2.08290       -5.39090
H          1.48000        0.32480       -2.89900
H          0.61150        0.11450       -4.48940
H          3.11630        3.56930       -6.33450
H          4.07240        2.11150       -6.08460
H          4.86870        3.68950       -6.18050
H          5.50160        4.65880       -4.18170
H          7.35600        6.05110       -1.30120
H          6.78840        7.81210       -2.90140
H          4.91730        7.13930       -5.24290
H          5.93000        6.80680       -9.79440
H          4.71570        7.26260      -11.00540
H          5.23990        4.41690      -10.00860
H          5.75870        5.07380      -11.56560
H          4.03810        4.87280      -11.22000
H         -1.04820        5.87180        2.66510
H          0.29820        4.73520        2.49940
H          0.59510        7.77260        2.62380
H          1.91780        6.60760        2.48930
H          0.92170        6.64960        3.94800
H         -1.05680        4.20760       -3.14080
H         -2.33660        2.49230       -3.41820
H         -3.50520        1.56230        2.09920
H         -3.77970        2.95420        1.05630
H         -1.67370        3.19180        2.35350
H         -1.34790        3.15580        0.61790
H         -1.03620        1.72720        1.60550
H         -0.21270       -2.10210      -11.89810
H          0.77080       -0.82770      -11.15130
H          1.18880       -3.83480      -10.78080
H          2.16560       -2.56800      -10.03070
H          2.17910       -2.77310      -11.78620
H         -1.53240       -4.02780       -6.11020
H         -2.05700       -6.51610       -5.58800
H         -3.09520       -9.78120      -10.15860
H         -4.47300       -9.29440       -9.15270
H         -3.59330       -6.96220       -9.06990
H         -2.22280       -7.44010      -10.07700
H         -3.86020       -7.48120      -10.73680
H          0.42430       -6.93190        4.01020
H         -1.32420       -7.15290        3.87460
H         -1.47550       -5.00430        2.57920
H          0.25580       -4.76320        2.80590
H         -0.82140       -4.76890        4.20470
H         -0.34160      -11.16700       -0.42340
H         -0.44830      -13.21760       -2.02870
