
  xtb     03082205273D
 energy: -473.854299531816 gnorm: 0.000594911638 xtb: 6.4.1 (unknown)
276302  0     0  0            999 V2000
    2.7827    5.8939   10.4162 C   0  0  0  0  0  0  0  0  0  0  0  0
    1.7857    6.1041    9.5331 C   0  0  0  0  0  0  0  0  0  0  0  0
    1.1864    4.8943    9.0724 C   0  0  0  0  0  0  0  0  0  0  0  0
    0.1427    4.7363    8.1472 C   0  0  0  0  0  0  0  0  0  0  0  0
   -0.5378    5.8941    7.5526 C   0  0  0  0  0  0  0  0  0  0  0  0
   -0.6890    6.0142    6.1727 C   0  0  0  0  0  0  0  0  0  0  0  0
   -1.3214    7.1116    5.6296 C   0  0  0  0  0  0  0  0  0  0  0  0
   -1.8454    8.1225    6.4341 C   0  0  0  0  0  0  0  0  0  0  0  0
   -2.6763    9.4490    5.6126 S   0  0  0  0  0  0  0  0  0  0  0  0
   -2.2700   10.9348    6.6030 C   0  0  0  0  0  0  0  0  0  0  0  0
   -0.7752   11.1642    6.6988 C   0  0  0  0  0  0  0  0  0  0  0  0
   -1.7188    7.9701    7.8116 C   0  0  0  0  0  0  0  0  0  0  0  0
   -2.2403    8.8805    8.6647 F   0  0  0  0  0  0  0  0  0  0  0  0
   -1.0632    6.8907    8.3681 C   0  0  0  0  0  0  0  0  0  0  0  0
   -0.2166    3.4362    7.8269 C   0  0  0  0  0  0  0  0  0  0  0  0
    0.3830    2.2997    8.4242 C   0  0  0  0  0  0  0  0  0  0  0  0
    1.4166    2.4584    9.3609 C   0  0  0  0  0  0  0  0  0  0  0  0
    2.0626    1.2954    9.9831 C   0  0  0  0  0  0  0  0  0  0  0  0
    3.4435    1.1209    9.9167 C   0  0  0  0  0  0  0  0  0  0  0  0
    4.0349    0.0021   10.4629 C   0  0  0  0  0  0  0  0  0  0  0  0
    3.2818   -0.9729   11.1146 C   0  0  0  0  0  0  0  0  0  0  0  0
    4.1560   -2.3515   11.7953 S   0  0  0  0  0  0  0  0  0  0  0  0
    3.0502   -3.7789   11.4845 C   0  0  0  0  0  0  0  0  0  0  0  0
    2.6915   -3.9147   10.0184 C   0  0  0  0  0  0  0  0  0  0  0  0
    1.9101   -0.7603   11.2152 C   0  0  0  0  0  0  0  0  0  0  0  0
    1.3001    0.3385   10.6448 C   0  0  0  0  0  0  0  0  0  0  0  0
    1.1185   -1.6327   11.8787 F   0  0  0  0  0  0  0  0  0  0  0  0
    1.8073    3.7583    9.6443 C   0  0  0  0  0  0  0  0  0  0  0  0
    3.0749    4.2209   10.7497 S   0  0  0  0  0  0  0  0  0  0  0  0
   -0.1548    1.0884    7.9251 C   0  0  0  0  0  0  0  0  0  0  0  0
   -1.1316    1.2597    6.9841 C   0  0  0  0  0  0  0  0  0  0  0  0
   -1.4518    2.9670    6.6898 S   0  0  0  0  0  0  0  0  0  0  0  0
   -1.8650    0.2846    6.2559 C   0  0  0  0  0  0  0  0  0  0  0  0
   -3.3608    0.7335    5.5050 S   0  0  0  0  0  0  0  0  0  0  0  0
   -3.6224   -0.8504    4.8583 C   0  0  0  0  0  0  0  0  0  0  0  0
   -2.5602   -1.7022    5.2038 C   0  0  0  0  0  0  0  0  0  0  0  0
   -1.5580   -1.0595    5.9920 C   0  0  0  0  0  0  0  0  0  0  0  0
   -0.4036   -1.7885    6.3289 C   0  0  0  0  0  0  0  0  0  0  0  0
   -0.2219   -3.0845    5.8997 C   0  0  0  0  0  0  0  0  0  0  0  0
    1.0525   -3.7219    6.2448 C   0  0  0  0  0  0  0  0  0  0  0  0
    1.8024   -4.4585    5.4377 C   0  0  0  0  0  0  0  0  0  0  0  0
   -1.2446   -3.7368    5.1511 C   0  0  0  0  0  0  0  0  0  0  0  0
   -1.1157   -5.1620    4.7144 C   0  0  0  0  0  0  0  0  0  0  0  0
   -2.3821   -3.0450    4.8277 C   0  0  0  0  0  0  0  0  0  0  0  0
   -4.7197   -1.1722    4.0303 C   0  0  0  0  0  0  0  0  0  0  0  0
   -5.6080   -0.3000    3.4931 C   0  0  0  0  0  0  0  0  0  0  0  0
   -6.5599   -0.7106    2.5145 C   0  0  0  0  0  0  0  0  0  0  0  0
   -7.0071   -1.9727    2.2367 C   0  0  0  0  0  0  0  0  0  0  0  0
   -7.6936   -2.0769    1.0061 C   0  0  0  0  0  0  0  0  0  0  0  0
   -8.1358   -3.2526    0.3824 C   0  0  0  0  0  0  0  0  0  0  0  0
   -7.9495   -4.6010    0.9418 C   0  0  0  0  0  0  0  0  0  0  0  0
   -6.6658   -5.0818    1.1938 C   0  0  0  0  0  0  0  0  0  0  0  0
   -6.4659   -6.4072    1.5152 C   0  0  0  0  0  0  0  0  0  0  0  0
   -7.5377   -7.2904    1.6264 C   0  0  0  0  0  0  0  0  0  0  0  0
   -7.1704   -8.9801    1.9953 S   0  0  0  0  0  0  0  0  0  0  0  0
   -8.3430   -9.9193    0.9460 C   0  0  0  0  0  0  0  0  0  0  0  0
   -8.2590   -9.5309   -0.5166 C   0  0  0  0  0  0  0  0  0  0  0  0
   -8.8184   -6.7767    1.4487 C   0  0  0  0  0  0  0  0  0  0  0  0
   -9.9081   -7.5581    1.6132 F   0  0  0  0  0  0  0  0  0  0  0  0
   -9.0291   -5.4629    1.0796 C   0  0  0  0  0  0  0  0  0  0  0  0
   -8.5338   -3.1400   -0.9349 C   0  0  0  0  0  0  0  0  0  0  0  0
   -8.5081   -1.9244   -1.6594 C   0  0  0  0  0  0  0  0  0  0  0  0
   -8.2113   -0.7194   -0.9913 C   0  0  0  0  0  0  0  0  0  0  0  0
   -8.2690    0.5479   -1.7269 C   0  0  0  0  0  0  0  0  0  0  0  0
   -9.3829    0.8348   -2.5181 C   0  0  0  0  0  0  0  0  0  0  0  0
   -9.4548    2.0086   -3.2350 C   0  0  0  0  0  0  0  0  0  0  0  0
   -8.4231    2.9464   -3.1991 C   0  0  0  0  0  0  0  0  0  0  0  0
   -8.6604    4.4327   -4.1251 S   0  0  0  0  0  0  0  0  0  0  0  0
   -7.0032    4.8345   -4.7923 C   0  0  0  0  0  0  0  0  0  0  0  0
   -6.4373    3.7050   -5.6278 C   0  0  0  0  0  0  0  0  0  0  0  0
   -7.3264    2.6548   -2.3939 C   0  0  0  0  0  0  0  0  0  0  0  0
   -7.2361    1.4779   -1.6782 C   0  0  0  0  0  0  0  0  0  0  0  0
   -6.2933    3.5203   -2.2880 F   0  0  0  0  0  0  0  0  0  0  0  0
   -7.7835   -0.8329    0.3261 C   0  0  0  0  0  0  0  0  0  0  0  0
   -7.1104    0.4453    1.3084 S   0  0  0  0  0  0  0  0  0  0  0  0
   -8.4337   -2.1575   -3.0607 C   0  0  0  0  0  0  0  0  0  0  0  0
   -8.3675   -3.4850   -3.3878 C   0  0  0  0  0  0  0  0  0  0  0  0
   -8.7174   -4.5129   -1.9993 S   0  0  0  0  0  0  0  0  0  0  0  0
   -7.5504   -4.0514   -4.4212 C   0  0  0  0  0  0  0  0  0  0  0  0
   -6.9792   -3.4604   -5.5125 C   0  0  0  0  0  0  0  0  0  0  0  0
   -5.6982   -3.9934   -5.8362 C   0  0  0  0  0  0  0  0  0  0  0  0
   -4.7057   -3.4374   -6.6636 C   0  0  0  0  0  0  0  0  0  0  0  0
   -4.9661   -2.3133   -7.5747 C   0  0  0  0  0  0  0  0  0  0  0  0
   -4.6196   -2.4078   -8.9210 C   0  0  0  0  0  0  0  0  0  0  0  0
   -4.8300   -1.3478   -9.7763 C   0  0  0  0  0  0  0  0  0  0  0  0
   -5.3972   -0.1557   -9.3290 C   0  0  0  0  0  0  0  0  0  0  0  0
   -5.6619    1.1130  -10.5321 S   0  0  0  0  0  0  0  0  0  0  0  0
   -5.2801    2.6693   -9.6453 C   0  0  0  0  0  0  0  0  0  0  0  0
   -3.8798    2.6679   -9.0666 C   0  0  0  0  0  0  0  0  0  0  0  0
   -5.7509   -0.0823   -7.9859 C   0  0  0  0  0  0  0  0  0  0  0  0
   -6.3336    1.0280   -7.4783 F   0  0  0  0  0  0  0  0  0  0  0  0
   -5.5254   -1.1276   -7.1131 C   0  0  0  0  0  0  0  0  0  0  0  0
   -3.4092   -3.9028   -6.4877 C   0  0  0  0  0  0  0  0  0  0  0  0
   -3.0592   -4.8887   -5.5323 C   0  0  0  0  0  0  0  0  0  0  0  0
   -4.0584   -5.5217   -4.7833 C   0  0  0  0  0  0  0  0  0  0  0  0
   -3.7839   -6.3797   -3.6210 C   0  0  0  0  0  0  0  0  0  0  0  0
   -2.9666   -5.9139   -2.5897 C   0  0  0  0  0  0  0  0  0  0  0  0
   -2.8517   -6.6189   -1.4144 C   0  0  0  0  0  0  0  0  0  0  0  0
   -3.5415   -7.8169   -1.2035 C   0  0  0  0  0  0  0  0  0  0  0  0
   -3.3436   -8.5140    0.4020 S   0  0  0  0  0  0  0  0  0  0  0  0
   -4.0926  -10.1862    0.3548 C   0  0  0  0  0  0  0  0  0  0  0  0
   -3.8343  -10.8585    1.6886 C   0  0  0  0  0  0  0  0  0  0  0  0
   -4.3293   -8.2804   -2.2522 C   0  0  0  0  0  0  0  0  0  0  0  0
   -4.4575   -7.5800   -3.4366 C   0  0  0  0  0  0  0  0  0  0  0  0
   -5.0281   -9.4371   -2.1542 F   0  0  0  0  0  0  0  0  0  0  0  0
   -5.3529   -5.0700   -4.9802 C   0  0  0  0  0  0  0  0  0  0  0  0
   -6.6572   -5.4816   -3.9091 S   0  0  0  0  0  0  0  0  0  0  0  0
   -1.6621   -4.9398   -5.3074 C   0  0  0  0  0  0  0  0  0  0  0  0
   -0.9590   -4.0111   -6.0112 C   0  0  0  0  0  0  0  0  0  0  0  0
   -1.9798   -3.1257   -7.1377 S   0  0  0  0  0  0  0  0  0  0  0  0
    0.3477   -3.5403   -5.6554 C   0  0  0  0  0  0  0  0  0  0  0  0
    1.3112   -2.8808   -6.3496 C   0  0  0  0  0  0  0  0  0  0  0  0
    2.3524   -2.3642   -5.5257 C   0  0  0  0  0  0  0  0  0  0  0  0
    3.4581   -1.5839   -5.9037 C   0  0  0  0  0  0  0  0  0  0  0  0
    3.6955   -1.2015   -7.3012 C   0  0  0  0  0  0  0  0  0  0  0  0
    2.6907   -0.6090   -8.0659 C   0  0  0  0  0  0  0  0  0  0  0  0
    2.9258   -0.2481   -9.3738 C   0  0  0  0  0  0  0  0  0  0  0  0
    4.1684   -0.4533   -9.9754 C   0  0  0  0  0  0  0  0  0  0  0  0
    4.3362    0.0855  -11.6463 S   0  0  0  0  0  0  0  0  0  0  0  0
    5.6322   -1.0051  -12.3590 C   0  0  0  0  0  0  0  0  0  0  0  0
    5.4934   -1.0001  -13.8687 C   0  0  0  0  0  0  0  0  0  0  0  0
    5.1705   -1.0146   -9.1895 C   0  0  0  0  0  0  0  0  0  0  0  0
    6.4155   -1.2088   -9.6806 F   0  0  0  0  0  0  0  0  0  0  0  0
    4.9443   -1.3927   -7.8812 C   0  0  0  0  0  0  0  0  0  0  0  0
    4.2895   -1.1414   -4.8830 C   0  0  0  0  0  0  0  0  0  0  0  0
    4.0307   -1.3895   -3.5125 C   0  0  0  0  0  0  0  0  0  0  0  0
    2.9136   -2.1474   -3.1272 C   0  0  0  0  0  0  0  0  0  0  0  0
    2.4890   -2.2458   -1.7263 C   0  0  0  0  0  0  0  0  0  0  0  0
    2.4323   -1.0927   -0.9441 C   0  0  0  0  0  0  0  0  0  0  0  0
    1.9437   -1.1209    0.3458 C   0  0  0  0  0  0  0  0  0  0  0  0
    1.4831   -2.3070    0.9071 C   0  0  0  0  0  0  0  0  0  0  0  0
    0.7617   -2.4491    2.5100 S   0  0  0  0  0  0  0  0  0  0  0  0
    1.3933   -0.9874    3.3981 C   0  0  0  0  0  0  0  0  0  0  0  0
    2.8813   -1.0911    3.6638 C   0  0  0  0  0  0  0  0  0  0  0  0
    1.5471   -3.4546    0.1154 C   0  0  0  0  0  0  0  0  0  0  0  0
    2.0392   -3.4422   -1.1714 C   0  0  0  0  0  0  0  0  0  0  0  0
    1.1070   -4.6235    0.6259 F   0  0  0  0  0  0  0  0  0  0  0  0
    2.1356   -2.6583   -4.1557 C   0  0  0  0  0  0  0  0  0  0  0  0
    0.6919   -3.5980   -3.9314 S   0  0  0  0  0  0  0  0  0  0  0  0
    4.9742   -0.7550   -2.6698 C   0  0  0  0  0  0  0  0  0  0  0  0
    5.8945   -0.0063   -3.3428 C   0  0  0  0  0  0  0  0  0  0  0  0
    5.6777   -0.1001   -5.0785 S   0  0  0  0  0  0  0  0  0  0  0  0
    6.8793    0.8436   -2.7507 C   0  0  0  0  0  0  0  0  0  0  0  0
    6.9599    1.1773   -1.4298 C   0  0  0  0  0  0  0  0  0  0  0  0
    7.9787    2.1181   -1.1398 C   0  0  0  0  0  0  0  0  0  0  0  0
    8.2859    2.7042    0.0993 C   0  0  0  0  0  0  0  0  0  0  0  0
    7.4770    2.4362    1.2953 C   0  0  0  0  0  0  0  0  0  0  0  0
    8.0661    2.0880    2.5098 C   0  0  0  0  0  0  0  0  0  0  0  0
    7.2943    1.8785    3.6328 C   0  0  0  0  0  0  0  0  0  0  0  0
    5.9070    1.9969    3.5899 C   0  0  0  0  0  0  0  0  0  0  0  0
    4.9999    1.7071    5.0799 S   0  0  0  0  0  0  0  0  0  0  0  0
    3.6588    2.9645    4.9957 C   0  0  0  0  0  0  0  0  0  0  0  0
    3.2359    3.3247    6.4052 C   0  0  0  0  0  0  0  0  0  0  0  0
    5.3279    2.3054    2.3635 C   0  0  0  0  0  0  0  0  0  0  0  0
    3.9816    2.3774    2.2342 F   0  0  0  0  0  0  0  0  0  0  0  0
    6.0897    2.5418    1.2377 C   0  0  0  0  0  0  0  0  0  0  0  0
    9.3645    3.5778    0.1201 C   0  0  0  0  0  0  0  0  0  0  0  0
   10.1035    3.9227   -1.0377 C   0  0  0  0  0  0  0  0  0  0  0  0
    9.7679    3.3697   -2.2816 C   0  0  0  0  0  0  0  0  0  0  0  0
   10.4636    3.7573   -3.5152 C   0  0  0  0  0  0  0  0  0  0  0  0
   10.6008    5.0991   -3.8670 C   0  0  0  0  0  0  0  0  0  0  0  0
   11.2116    5.4544   -5.0502 C   0  0  0  0  0  0  0  0  0  0  0  0
   11.7256    4.4933   -5.9191 C   0  0  0  0  0  0  0  0  0  0  0  0
   12.5207    5.0724   -7.3882 S   0  0  0  0  0  0  0  0  0  0  0  0
   12.0090    3.8740   -8.6754 C   0  0  0  0  0  0  0  0  0  0  0  0
   10.5020    3.7847   -8.8034 C   0  0  0  0  0  0  0  0  0  0  0  0
   11.6132    3.1598   -5.5365 C   0  0  0  0  0  0  0  0  0  0  0  0
   10.9773    2.7880   -4.3694 C   0  0  0  0  0  0  0  0  0  0  0  0
   12.1342    2.1746   -6.2989 F   0  0  0  0  0  0  0  0  0  0  0  0
    8.7199    2.4612   -2.2972 C   0  0  0  0  0  0  0  0  0  0  0  0
    8.0932    1.6562   -3.7130 S   0  0  0  0  0  0  0  0  0  0  0  0
   11.1530    4.8421   -0.7373 C   0  0  0  0  0  0  0  0  0  0  0  0
   11.1861    5.1943    0.5630 C   0  0  0  0  0  0  0  0  0  0  0  0
    9.9577    4.4367    1.5190 S   0  0  0  0  0  0  0  0  0  0  0  0
    3.3913    6.6269   10.9088 H   0  0  0  0  0  0  0  0  0  0  0  0
    1.4819    7.0796    9.1991 H   0  0  0  0  0  0  0  0  0  0  0  0
   -0.2862    5.2548    5.5206 H   0  0  0  0  0  0  0  0  0  0  0  0
   -1.4240    7.2079    4.5601 H   0  0  0  0  0  0  0  0  0  0  0  0
   -2.7341   10.8479    7.5827 H   0  0  0  0  0  0  0  0  0  0  0  0
   -2.7558   11.7392    6.0507 H   0  0  0  0  0  0  0  0  0  0  0  0
   -0.2929   10.3587    7.2493 H   0  0  0  0  0  0  0  0  0  0  0  0
   -0.5812   12.0994    7.2202 H   0  0  0  0  0  0  0  0  0  0  0  0
   -0.3324   11.2177    5.7064 H   0  0  0  0  0  0  0  0  0  0  0  0
   -1.0022    6.8183    9.4432 H   0  0  0  0  0  0  0  0  0  0  0  0
    4.0516    1.8510    9.4059 H   0  0  0  0  0  0  0  0  0  0  0  0
    5.1014   -0.1415   10.3897 H   0  0  0  0  0  0  0  0  0  0  0  0
    2.1670   -3.6881   12.1132 H   0  0  0  0  0  0  0  0  0  0  0  0
    3.6424   -4.6285   11.8245 H   0  0  0  0  0  0  0  0  0  0  0  0
    2.1109   -4.8225    9.8655 H   0  0  0  0  0  0  0  0  0  0  0  0
    3.5905   -3.9650    9.4070 H   0  0  0  0  0  0  0  0  0  0  0  0
    2.0948   -3.0661    9.6885 H   0  0  0  0  0  0  0  0  0  0  0  0
    0.2326    0.4559   10.7533 H   0  0  0  0  0  0  0  0  0  0  0  0
    0.1613    0.1283    8.2848 H   0  0  0  0  0  0  0  0  0  0  0  0
    0.3876   -1.3118    6.8867 H   0  0  0  0  0  0  0  0  0  0  0  0
    1.4144   -3.4926    7.2406 H   0  0  0  0  0  0  0  0  0  0  0  0
    1.5219   -4.6677    4.4208 H   0  0  0  0  0  0  0  0  0  0  0  0
    2.7487   -4.8559    5.7658 H   0  0  0  0  0  0  0  0  0  0  0  0
   -0.6423   -5.2089    3.7339 H   0  0  0  0  0  0  0  0  0  0  0  0
   -2.0987   -5.6200    4.6288 H   0  0  0  0  0  0  0  0  0  0  0  0
   -0.5141   -5.7368    5.4134 H   0  0  0  0  0  0  0  0  0  0  0  0
   -3.1525   -3.5396    4.2557 H   0  0  0  0  0  0  0  0  0  0  0  0
   -4.7952   -2.2152    3.7560 H   0  0  0  0  0  0  0  0  0  0  0  0
   -5.5240    0.7583    3.6992 H   0  0  0  0  0  0  0  0  0  0  0  0
   -6.8357   -2.8182    2.8778 H   0  0  0  0  0  0  0  0  0  0  0  0
   -5.8180   -4.4229    1.0800 H   0  0  0  0  0  0  0  0  0  0  0  0
   -5.4673   -6.7898    1.6617 H   0  0  0  0  0  0  0  0  0  0  0  0
   -9.3477   -9.7887    1.3426 H   0  0  0  0  0  0  0  0  0  0  0  0
   -8.0354  -10.9546    1.0970 H   0  0  0  0  0  0  0  0  0  0  0  0
   -7.2521   -9.6702   -0.9025 H   0  0  0  0  0  0  0  0  0  0  0  0
   -8.5419   -8.4902   -0.6647 H   0  0  0  0  0  0  0  0  0  0  0  0
   -8.9381  -10.1544   -1.0946 H   0  0  0  0  0  0  0  0  0  0  0  0
  -10.0390   -5.1228    0.9099 H   0  0  0  0  0  0  0  0  0  0  0  0
  -10.1992    0.1298   -2.5602 H   0  0  0  0  0  0  0  0  0  0  0  0
  -10.3186    2.2255   -3.8439 H   0  0  0  0  0  0  0  0  0  0  0  0
   -6.3446    5.1063   -3.9704 H   0  0  0  0  0  0  0  0  0  0  0  0
   -7.1930    5.7178   -5.4025 H   0  0  0  0  0  0  0  0  0  0  0  0
   -7.1388    3.4145   -6.4064 H   0  0  0  0  0  0  0  0  0  0  0  0
   -6.2293    2.8311   -5.0143 H   0  0  0  0  0  0  0  0  0  0  0  0
   -5.5068    4.0227   -6.0941 H   0  0  0  0  0  0  0  0  0  0  0  0
   -6.3465    1.2993   -1.0955 H   0  0  0  0  0  0  0  0  0  0  0  0
   -8.2482   -1.3696   -3.7693 H   0  0  0  0  0  0  0  0  0  0  0  0
   -7.4104   -2.6106   -6.0087 H   0  0  0  0  0  0  0  0  0  0  0  0
   -4.1840   -3.3215   -9.2955 H   0  0  0  0  0  0  0  0  0  0  0  0
   -4.5575   -1.4233  -10.8174 H   0  0  0  0  0  0  0  0  0  0  0  0
   -5.3831    3.4263  -10.4228 H   0  0  0  0  0  0  0  0  0  0  0  0
   -6.0368    2.8393   -8.8828 H   0  0  0  0  0  0  0  0  0  0  0  0
   -3.1464    2.4549   -9.8415 H   0  0  0  0  0  0  0  0  0  0  0  0
   -3.6604    3.6435   -8.6371 H   0  0  0  0  0  0  0  0  0  0  0  0
   -3.7824    1.9183   -8.2835 H   0  0  0  0  0  0  0  0  0  0  0  0
   -5.7752   -0.9967   -6.0715 H   0  0  0  0  0  0  0  0  0  0  0  0
   -2.4523   -4.9710   -2.6956 H   0  0  0  0  0  0  0  0  0  0  0  0
   -2.2321   -6.2431   -0.6146 H   0  0  0  0  0  0  0  0  0  0  0  0
   -3.6325  -10.7347   -0.4658 H   0  0  0  0  0  0  0  0  0  0  0  0
   -5.1608  -10.0750    0.1842 H   0  0  0  0  0  0  0  0  0  0  0  0
   -2.7677  -10.9071    1.8962 H   0  0  0  0  0  0  0  0  0  0  0  0
   -4.3222  -10.3055    2.4880 H   0  0  0  0  0  0  0  0  0  0  0  0
   -4.2344  -11.8696    1.6708 H   0  0  0  0  0  0  0  0  0  0  0  0
   -5.0964   -7.9846   -4.2066 H   0  0  0  0  0  0  0  0  0  0  0  0
   -1.2007   -5.6010   -4.5962 H   0  0  0  0  0  0  0  0  0  0  0  0
    1.2815   -2.7598   -7.4175 H   0  0  0  0  0  0  0  0  0  0  0  0
    1.7257   -0.4147   -7.6232 H   0  0  0  0  0  0  0  0  0  0  0  0
    2.1450    0.2076   -9.9629 H   0  0  0  0  0  0  0  0  0  0  0  0
    6.6068   -0.6292  -12.0521 H   0  0  0  0  0  0  0  0  0  0  0  0
    5.4752   -2.0030  -11.9525 H   0  0  0  0  0  0  0  0  0  0  0  0
    4.5127   -1.3660  -14.1642 H   0  0  0  0  0  0  0  0  0  0  0  0
    6.2543   -1.6412  -14.3084 H   0  0  0  0  0  0  0  0  0  0  0  0
    5.6174    0.0072  -14.2599 H   0  0  0  0  0  0  0  0  0  0  0  0
    5.7547   -1.8414   -7.3281 H   0  0  0  0  0  0  0  0  0  0  0  0
    2.7357   -0.1472   -1.3674 H   0  0  0  0  0  0  0  0  0  0  0  0
    1.9038   -0.2002    0.9049 H   0  0  0  0  0  0  0  0  0  0  0  0
    0.8287   -0.9950    4.3301 H   0  0  0  0  0  0  0  0  0  0  0  0
    1.1276   -0.0917    2.8384 H   0  0  0  0  0  0  0  0  0  0  0  0
    3.4445   -1.1106    2.7326 H   0  0  0  0  0  0  0  0  0  0  0  0
    3.0976   -2.0011    4.2191 H   0  0  0  0  0  0  0  0  0  0  0  0
    3.2163   -0.2406    4.2529 H   0  0  0  0  0  0  0  0  0  0  0  0
    2.0796   -4.3673   -1.7242 H   0  0  0  0  0  0  0  0  0  0  0  0
    4.9718   -0.8654   -1.6015 H   0  0  0  0  0  0  0  0  0  0  0  0
    6.3112    0.7652   -0.6797 H   0  0  0  0  0  0  0  0  0  0  0  0
    9.1371    1.9761    2.5721 H   0  0  0  0  0  0  0  0  0  0  0  0
    7.7564    1.6192    4.5724 H   0  0  0  0  0  0  0  0  0  0  0  0
    4.0637    3.8286    4.4713 H   0  0  0  0  0  0  0  0  0  0  0  0
    2.8261    2.5467    4.4309 H   0  0  0  0  0  0  0  0  0  0  0  0
    2.8645    2.4459    6.9277 H   0  0  0  0  0  0  0  0  0  0  0  0
    4.0747    3.7321    6.9653 H   0  0  0  0  0  0  0  0  0  0  0  0
    2.4435    4.0698    6.3758 H   0  0  0  0  0  0  0  0  0  0  0  0
    5.5907    2.8213    0.3226 H   0  0  0  0  0  0  0  0  0  0  0  0
   10.1930    5.8637   -3.2233 H   0  0  0  0  0  0  0  0  0  0  0  0
   11.2996    6.4928   -5.3294 H   0  0  0  0  0  0  0  0  0  0  0  0
   12.4591    2.9077   -8.4595 H   0  0  0  0  0  0  0  0  0  0  0  0
   12.4578    4.2804   -9.5819 H   0  0  0  0  0  0  0  0  0  0  0  0
   10.0562    3.3817   -7.8958 H   0  0  0  0  0  0  0  0  0  0  0  0
   10.2445    3.1270   -9.6311 H   0  0  0  0  0  0  0  0  0  0  0  0
   10.0749    4.7677   -8.9915 H   0  0  0  0  0  0  0  0  0  0  0  0
   10.9188    1.7392   -4.1234 H   0  0  0  0  0  0  0  0  0  0  0  0
   11.8502    5.2012   -1.4722 H   0  0  0  0  0  0  0  0  0  0  0  0
   11.8701    5.8624    1.0487 H   0  0  0  0  0  0  0  0  0  0  0  0
  1  2  2  0  0  0  0
  2  3  1  0  0  0  0
  3  4  2  0  0  0  0
  4  5  1  0  0  0  0
  5  6  2  0  0  0  0
  6  7  1  0  0  0  0
  7  8  2  0  0  0  0
  8  9  1  0  0  0  0
  9 10  1  0  0  0  0
 10 11  1  0  0  0  0
  8 12  1  0  0  0  0
 12 13  1  0  0  0  0
 12 14  2  0  0  0  0
  4 15  1  0  0  0  0
 15 16  2  0  0  0  0
 16 17  1  0  0  0  0
 17 18  1  0  0  0  0
 18 19  2  0  0  0  0
 19 20  1  0  0  0  0
 20 21  2  0  0  0  0
 21 22  1  0  0  0  0
 22 23  1  0  0  0  0
 23 24  1  0  0  0  0
 21 25  1  0  0  0  0
 25 26  2  0  0  0  0
 25 27  1  0  0  0  0
 17 28  2  0  0  0  0
 28 29  1  0  0  0  0
 16 30  1  0  0  0  0
 30 31  2  0  0  0  0
 31 32  1  0  0  0  0
 31 33  1  0  0  0  0
 33 34  1  0  0  0  0
 34 35  1  0  0  0  0
 35 36  2  0  0  0  0
 36 37  1  0  0  0  0
 37 38  1  0  0  0  0
 38 39  2  0  0  0  0
 39 40  1  0  0  0  0
 40 41  2  0  0  0  0
 39 42  1  0  0  0  0
 42 43  1  0  0  0  0
 42 44  2  0  0  0  0
 35 45  1  0  0  0  0
 45 46  2  0  0  0  0
 46 47  1  0  0  0  0
 47 48  2  0  0  0  0
 48 49  1  0  0  0  0
 49 50  2  0  0  0  0
 50 51  1  0  0  0  0
 51 52  2  0  0  0  0
 52 53  1  0  0  0  0
 53 54  2  0  0  0  0
 54 55  1  0  0  0  0
 55 56  1  0  0  0  0
 56 57  1  0  0  0  0
 54 58  1  0  0  0  0
 58 59  1  0  0  0  0
 58 60  2  0  0  0  0
 50 61  1  0  0  0  0
 61 62  2  0  0  0  0
 62 63  1  0  0  0  0
 63 64  1  0  0  0  0
 64 65  2  0  0  0  0
 65 66  1  0  0  0  0
 66 67  2  0  0  0  0
 67 68  1  0  0  0  0
 68 69  1  0  0  0  0
 69 70  1  0  0  0  0
 67 71  1  0  0  0  0
 71 72  2  0  0  0  0
 71 73  1  0  0  0  0
 63 74  2  0  0  0  0
 74 75  1  0  0  0  0
 62 76  1  0  0  0  0
 76 77  2  0  0  0  0
 77 78  1  0  0  0  0
 77 79  1  0  0  0  0
 79 80  2  0  0  0  0
 80 81  1  0  0  0  0
 81 82  2  0  0  0  0
 82 83  1  0  0  0  0
 83 84  2  0  0  0  0
 84 85  1  0  0  0  0
 85 86  2  0  0  0  0
 86 87  1  0  0  0  0
 87 88  1  0  0  0  0
 88 89  1  0  0  0  0
 86 90  1  0  0  0  0
 90 91  1  0  0  0  0
 90 92  2  0  0  0  0
 82 93  1  0  0  0  0
 93 94  2  0  0  0  0
 94 95  1  0  0  0  0
 95 96  1  0  0  0  0
 96 97  2  0  0  0  0
 97 98  1  0  0  0  0
 98 99  2  0  0  0  0
 99100  1  0  0  0  0
100101  1  0  0  0  0
101102  1  0  0  0  0
 99103  1  0  0  0  0
103104  2  0  0  0  0
103105  1  0  0  0  0
 95106  2  0  0  0  0
106107  1  0  0  0  0
 94108  1  0  0  0  0
108109  2  0  0  0  0
109110  1  0  0  0  0
109111  1  0  0  0  0
111112  2  0  0  0  0
112113  1  0  0  0  0
113114  2  0  0  0  0
114115  1  0  0  0  0
115116  2  0  0  0  0
116117  1  0  0  0  0
117118  2  0  0  0  0
118119  1  0  0  0  0
119120  1  0  0  0  0
120121  1  0  0  0  0
118122  1  0  0  0  0
122123  1  0  0  0  0
122124  2  0  0  0  0
114125  1  0  0  0  0
125126  2  0  0  0  0
126127  1  0  0  0  0
127128  1  0  0  0  0
128129  2  0  0  0  0
129130  1  0  0  0  0
130131  2  0  0  0  0
131132  1  0  0  0  0
132133  1  0  0  0  0
133134  1  0  0  0  0
131135  1  0  0  0  0
135136  2  0  0  0  0
135137  1  0  0  0  0
127138  2  0  0  0  0
138139  1  0  0  0  0
126140  1  0  0  0  0
140141  2  0  0  0  0
141142  1  0  0  0  0
141143  1  0  0  0  0
143144  2  0  0  0  0
144145  1  0  0  0  0
145146  2  0  0  0  0
146147  1  0  0  0  0
147148  2  0  0  0  0
148149  1  0  0  0  0
149150  2  0  0  0  0
150151  1  0  0  0  0
151152  1  0  0  0  0
152153  1  0  0  0  0
150154  1  0  0  0  0
154155  1  0  0  0  0
154156  2  0  0  0  0
146157  1  0  0  0  0
157158  2  0  0  0  0
158159  1  0  0  0  0
159160  1  0  0  0  0
160161  2  0  0  0  0
161162  1  0  0  0  0
162163  2  0  0  0  0
163164  1  0  0  0  0
164165  1  0  0  0  0
165166  1  0  0  0  0
163167  1  0  0  0  0
167168  2  0  0  0  0
167169  1  0  0  0  0
159170  2  0  0  0  0
170171  1  0  0  0  0
158172  1  0  0  0  0
172173  2  0  0  0  0
173174  1  0  0  0  0
 29  1  1  0  0  0  0
 37 33  2  0  0  0  0
 75 47  1  0  0  0  0
107 79  1  0  0  0  0
139111  1  0  0  0  0
171143  1  0  0  0  0
 28  3  1  0  0  0  0
 44 36  1  0  0  0  0
 74 49  1  0  0  0  0
106 81  1  0  0  0  0
138113  1  0  0  0  0
170145  1  0  0  0  0
 14  5  1  0  0  0  0
 32 15  1  0  0  0  0
 60 51  1  0  0  0  0
 78 61  1  0  0  0  0
 92 83  1  0  0  0  0
110 93  1  0  0  0  0
124115  1  0  0  0  0
142125  1  0  0  0  0
156147  1  0  0  0  0
174157  1  0  0  0  0
 26 18  1  0  0  0  0
 72 64  1  0  0  0  0
104 96  1  0  0  0  0
136128  1  0  0  0  0
168160  1  0  0  0  0
  1175  1  0  0  0  0
  2176  1  0  0  0  0
  6177  1  0  0  0  0
  7178  1  0  0  0  0
 10179  1  0  0  0  0
 10180  1  0  0  0  0
 11181  1  0  0  0  0
 11182  1  0  0  0  0
 11183  1  0  0  0  0
 14184  1  0  0  0  0
 19185  1  0  0  0  0
 20186  1  0  0  0  0
 23187  1  0  0  0  0
 23188  1  0  0  0  0
 24189  1  0  0  0  0
 24190  1  0  0  0  0
 24191  1  0  0  0  0
 26192  1  0  0  0  0
 30193  1  0  0  0  0
 38194  1  0  0  0  0
 40195  1  0  0  0  0
 41196  1  0  0  0  0
 41197  1  0  0  0  0
 43198  1  0  0  0  0
 43199  1  0  0  0  0
 43200  1  0  0  0  0
 44201  1  0  0  0  0
 45202  1  0  0  0  0
 46203  1  0  0  0  0
 48204  1  0  0  0  0
 52205  1  0  0  0  0
 53206  1  0  0  0  0
 56207  1  0  0  0  0
 56208  1  0  0  0  0
 57209  1  0  0  0  0
 57210  1  0  0  0  0
 57211  1  0  0  0  0
 60212  1  0  0  0  0
 65213  1  0  0  0  0
 66214  1  0  0  0  0
 69215  1  0  0  0  0
 69216  1  0  0  0  0
 70217  1  0  0  0  0
 70218  1  0  0  0  0
 70219  1  0  0  0  0
 72220  1  0  0  0  0
 76221  1  0  0  0  0
 80222  1  0  0  0  0
 84223  1  0  0  0  0
 85224  1  0  0  0  0
 88225  1  0  0  0  0
 88226  1  0  0  0  0
 89227  1  0  0  0  0
 89228  1  0  0  0  0
 89229  1  0  0  0  0
 92230  1  0  0  0  0
 97231  1  0  0  0  0
 98232  1  0  0  0  0
101233  1  0  0  0  0
101234  1  0  0  0  0
102235  1  0  0  0  0
102236  1  0  0  0  0
102237  1  0  0  0  0
104238  1  0  0  0  0
108239  1  0  0  0  0
112240  1  0  0  0  0
116241  1  0  0  0  0
117242  1  0  0  0  0
120243  1  0  0  0  0
120244  1  0  0  0  0
121245  1  0  0  0  0
121246  1  0  0  0  0
121247  1  0  0  0  0
124248  1  0  0  0  0
129249  1  0  0  0  0
130250  1  0  0  0  0
133251  1  0  0  0  0
133252  1  0  0  0  0
134253  1  0  0  0  0
134254  1  0  0  0  0
134255  1  0  0  0  0
136256  1  0  0  0  0
140257  1  0  0  0  0
144258  1  0  0  0  0
148259  1  0  0  0  0
149260  1  0  0  0  0
152261  1  0  0  0  0
152262  1  0  0  0  0
153263  1  0  0  0  0
153264  1  0  0  0  0
153265  1  0  0  0  0
156266  1  0  0  0  0
161267  1  0  0  0  0
162268  1  0  0  0  0
165269  1  0  0  0  0
165270  1  0  0  0  0
166271  1  0  0  0  0
166272  1  0  0  0  0
166273  1  0  0  0  0
168274  1  0  0  0  0
172275  1  0  0  0  0
173276  1  0  0  0  0
M  END
