231

C          0.43130       -9.54180       11.97960
C         -0.79150       -9.14200       12.38380
C         -1.65350       -8.81460       11.29690
C         -2.96530       -8.31570       11.34490
C         -3.66840       -8.15750       12.60720
S         -4.38690       -6.64010       13.05890
C         -4.95050       -7.26750       14.57000
C         -5.65600       -6.39660       15.54980
C         -4.65710       -5.59740       16.39020
C         -4.59450       -8.57630       14.70180
Cl        -4.97980       -9.54080       16.06840
C         -3.87170       -9.08590       13.58960
Cl        -3.38040      -10.72740       13.47900
C         -3.55010       -7.96700       10.13540
C         -2.89690       -8.11950        8.89010
C         -1.59580       -8.64610        8.83720
C         -0.88130       -8.78740        7.57880
S         -0.65410       -7.42620        6.51900
C          0.28670       -8.35100        5.40200
C          0.88590       -7.75370        4.17490
C          0.36790       -6.35230        3.88730
C          0.39520       -9.64070        5.83210
C         -0.25950       -9.89190        7.06610
Cl        -0.31500      -11.44830        7.78080
Cl         1.24890      -10.85320        4.96820
C         -1.00430       -8.98010       10.04980
S          0.62670       -9.55000       10.26210
C         -3.71550       -7.70570        7.81420
C         -4.94260       -7.23540        8.19030
S         -5.15050       -7.31540        9.93070
C         -5.91640       -6.70390        7.28970
S         -5.51600       -6.77300        5.59750
C         -6.95750       -5.89390        5.17060
C         -7.70980       -5.59570        6.28680
C         -7.12240       -6.06070        7.49060
C         -7.76430       -5.89950        8.83320
C         -8.53800       -7.16150        9.22120
C         -8.99420       -4.82780        6.23130
C         -8.76130       -3.33560        6.48140
C         -7.07400       -5.52520        3.79550
C         -6.32120       -6.06190        2.78930
C         -6.37540       -5.33680        1.57930
C         -5.62990       -5.55830        0.40950
C         -4.68150       -6.65700        0.31780
S         -4.75690       -7.80890       -0.98120
C         -3.40290       -8.69900       -0.37320
C         -2.93580       -9.94580       -1.03960
C         -3.71940      -11.16130       -0.53790
C         -2.93330       -8.12450        0.77000
Cl        -1.60870       -8.73500        1.66940
C         -3.64840       -6.96090        1.16020
Cl        -3.19060       -6.00290        2.50980
C         -5.78280       -4.63740       -0.61540
C         -6.65030       -3.52220       -0.52750
C         -7.43130       -3.32550        0.62690
C         -8.34080       -2.19510        0.72100
S         -9.56120       -1.94670       -0.49450
C        -10.16730       -0.52820        0.28970
C        -11.34270        0.20990       -0.24880
C        -12.65230       -0.42310        0.22750
C         -9.45900       -0.27870        1.42670
C         -8.41960       -1.21670        1.67230
Cl        -7.33140       -1.04900        2.98490
Cl        -9.76490        1.04730        2.47240
C         -7.25660       -4.22960        1.66520
S         -8.01020       -4.15410        3.23190
C         -6.46770       -2.62810       -1.61110
C         -5.49620       -3.02120       -2.48390
S         -4.81830       -4.58410       -2.06330
C         -4.86320       -2.23570       -3.49050
C         -3.74330       -2.55830       -4.19870
C         -3.15950       -1.45370       -4.86420
C         -1.92940       -1.42340       -5.54420
C         -1.20640       -2.65470       -5.82130
S         -1.96960       -3.93000       -6.72670
C         -0.56550       -4.93840       -6.64220
C         -0.52670       -6.26500       -7.31670
C         -0.21630       -6.11270       -8.80760
C          0.42640       -4.30890       -5.95200
Cl         1.97130       -4.99460       -5.65650
C          0.06580       -3.01760       -5.47890
Cl         1.11230       -2.08010       -4.49810
C         -1.43580       -0.17280       -5.88620
C         -2.15050        1.02780       -5.64400
C         -3.43990        0.98280       -5.08170
C         -4.22620        2.19200       -4.93020
S         -5.03000        2.59160       -3.44140
C         -5.67720        4.05860       -4.09320
C         -6.57010        4.92850       -3.27990
C         -7.96800        4.31740       -3.16130
C         -5.29470        4.20990       -5.39280
C         -4.46670        3.15900       -5.86930
Cl        -3.91260        3.09010       -7.49190
Cl        -5.75360        5.53590       -6.38090
C         -3.88840       -0.25920       -4.65080
S         -5.32320       -0.55670       -3.70870
C         -1.36050        2.17250       -5.90940
C         -0.10420        1.87480       -6.34920
S          0.13630        0.15210       -6.55490
C          1.01130        2.75530       -6.45740
C          2.32190        2.39740       -6.57710
C          3.22010        3.47830       -6.41530
C          4.62500        3.43680       -6.41600
C          5.34450        2.22600       -6.76640
S          6.63610        1.61730       -5.77440
C          6.93330        0.28610       -6.83920
C          8.04230       -0.67010       -6.57230
C          9.39690       -0.03660       -6.89790
C          6.07880        0.32830       -7.90030
Cl         6.07500       -0.81900       -9.17640
C          5.17280        1.42220       -7.86050
Cl         4.05040        1.73130       -9.12150
C          5.28520        4.60340       -6.05390
C          4.61030        5.81440       -5.76770
C          3.20590        5.87160       -5.82930
C          2.50410        7.11420       -5.54870
S          2.89170        8.56740       -6.42340
C          1.72610        9.50050       -5.54930
C          1.58210       10.96390       -5.78140
C          2.64700       11.74150       -5.00360
C          1.08730        8.71960       -4.63360
C          1.52130        7.36600       -4.63250
Cl         0.92170        6.21650       -3.51200
Cl        -0.12930        9.29400       -3.56870
C          2.54150        4.69250       -6.13770
S          0.81510        4.47530       -6.19330
C          5.50760        6.83720       -5.37270
C          6.81060        6.43820       -5.35600
S          7.00650        4.77570       -5.87070
C          7.95140        7.18090       -4.93320
C          9.21300        6.70520       -4.73960
C         10.12130        7.68520       -4.26870
C         11.48430        7.52940       -3.96650
C         12.15270        6.26000       -4.19600
S         13.04240        5.46000       -2.93470
C         13.42550        4.11430       -3.95140
C         14.18090        2.94090       -3.43240
C         13.22790        1.88700       -2.86290
C         12.88820        4.28850       -5.19220
Cl        13.05280        3.15730       -6.47220
C         12.17030        5.50520       -5.33710
Cl        11.47400        5.99220       -6.82910
C         12.13910        8.63160       -3.43090
C         11.50480        9.88020       -3.22580
C         10.15680       10.04990       -3.57910
C          9.48510       11.33120       -3.43300
S          7.98610       11.47080       -2.56450
C          7.87670       13.17130       -2.87150
C          6.70690       13.95860       -2.39360
C          5.43930       13.57590       -3.15990
C          8.94250       13.58850       -3.61080
C          9.85960       12.54920       -3.92670
Cl        11.24820       12.80690       -4.90240
Cl         9.18240       15.20870       -4.12460
C          9.49030        8.93730       -4.07490
S          7.81180        8.88180       -4.53740
C         12.39050       10.82650       -2.63220
C         13.62820       10.33040       -2.43260
S         13.80820        8.68600       -2.93900
H          1.26060       -9.84190       12.59000
H         -1.08020       -9.06080       13.41530
H         -6.31240       -5.70800       15.01490
H         -6.26370       -7.02540       16.20300
H         -4.04610       -4.96610       15.74940
H         -5.18600       -4.96740       17.10020
H         -4.00430       -6.27020       16.94040
H          1.97430       -7.72980        4.29460
H          0.67290       -8.41450        3.32990
H          0.82030       -5.96390        2.97860
H          0.60570       -5.68080        4.70940
H         -0.71080       -6.36700        3.75750
H         -3.40270       -7.74600        6.78650
H         -7.00110       -5.69820        9.58690
H         -8.44640       -5.05020        8.81680
H         -7.87010       -8.01740        9.27230
H         -9.00480       -7.03050       10.19400
H         -9.31310       -7.37420        8.48780
H         -9.68640       -5.22000        6.97830
H         -9.45450       -4.95770        5.25020
H         -8.30890       -3.17110        7.45660
H         -8.09860       -2.92290        5.72540
H         -9.70560       -2.79870        6.43970
H         -5.71840       -6.93960        2.93160
H         -3.06640       -9.84910       -2.11860
H         -1.87400      -10.08240       -0.82560
H         -3.36850      -12.06200       -1.03400
H         -3.58590      -11.28000        0.53430
H         -4.77980      -11.03810       -0.74520
H        -11.29170        1.24530        0.09280
H        -11.30940        0.19800       -1.33960
H        -12.71680       -1.45500       -0.10910
H        -13.49960        0.12820       -0.17090
H        -12.70510       -0.40740        1.31310
H         -6.98410       -1.68980       -1.70660
H         -3.30860       -3.54170       -4.18160
H         -1.49130       -6.76160       -7.19620
H          0.24390       -6.87490       -6.84200
H          0.74700       -5.62790       -8.94450
H         -0.98090       -5.51030       -9.29240
H         -0.18610       -7.08880       -9.28410
H         -6.63330        5.90740       -3.75770
H         -6.14550        5.05320       -2.28180
H         -8.60860        4.96350       -2.56720
H         -8.41170        4.19670       -4.14650
H         -7.91260        3.34230       -2.68290
H         -1.67840        3.17950       -5.70730
H          2.63170        1.37710       -6.71310
H          8.02440       -0.96340       -5.52070
H          7.89250       -1.55990       -7.18580
H         10.19840       -0.74070       -6.69180
H          9.44050        0.24310       -7.94750
H          9.55010        0.85560       -6.29520
H          1.68410       11.17560       -6.84700
H          0.58820       11.27490       -5.45520
H          3.64200       11.43720       -5.31960
H          2.54710       11.55270       -3.93780
H          2.53550       12.80770       -5.18010
H          5.20290        7.82540       -5.07940
H          9.47190        5.67530       -4.90380
H         14.75860        2.50480       -4.24980
H         14.86900        3.27030       -2.65260
H         12.64500        2.30680       -2.04670
H         13.79230        1.03730       -2.48840
H         12.54590        1.54000       -3.63500
H          6.92130       15.01920       -2.53310
H          6.55330       13.77190       -1.32840
H          5.56810       13.76610       -4.22240
H          5.22080       12.52000       -3.02070
H          4.59520       14.15840       -2.80140
H         12.09690       11.82370       -2.36150
H         14.47620       10.82900       -2.00560
