
  xtb     03032205343D
 energy: -366.469712700039 gnorm: 0.000337015217 xtb: 6.4.1 (unknown)
229251  0     0  0            999 V2000
    4.1797    1.8665   -0.5792 C   0  0  0  0  0  0  0  0  0  0  0  0
    3.4736    1.6917   -1.7616 C   0  0  0  0  0  0  0  0  0  0  0  0
    2.1062    1.5003   -1.6758 C   0  0  0  0  0  0  0  0  0  0  0  0
    1.4566    1.4995   -0.4337 C   0  0  0  0  0  0  0  0  0  0  0  0
    2.1694    1.6564    0.7328 C   0  0  0  0  0  0  0  0  0  0  0  0
    3.5454    1.8386    0.6507 C   0  0  0  0  0  0  0  0  0  0  0  0
   -0.0072    1.3058   -0.6777 C   0  0  0  0  0  0  0  0  0  0  0  0
   -0.0707    1.1195   -2.1989 C   0  0  0  0  0  0  0  0  0  0  0  0
   -1.0576    0.8546   -2.8419 O   0  0  0  0  0  0  0  0  0  0  0  0
    1.1882    1.2948   -2.6898 N   0  0  0  0  0  0  0  0  0  0  0  0
    1.5047    1.1910   -4.0915 C   0  0  0  0  0  0  0  0  0  0  0  0
    2.0416   -0.1940   -4.4381 C   0  0  0  0  0  0  0  0  0  0  0  0
   -0.6208    0.0885    0.0210 C   0  0  0  0  0  0  0  0  0  0  0  0
    0.2194   -1.1632   -0.1951 C   0  0  0  0  0  0  0  0  0  0  0  0
    0.5413   -1.6813   -1.2425 O   0  0  0  0  0  0  0  0  0  0  0  0
    0.5420   -1.6565    1.0326 N   0  0  0  0  0  0  0  0  0  0  0  0
   -0.0383   -0.9253    2.0572 C   0  0  0  0  0  0  0  0  0  0  0  0
   -0.0380   -1.1869    3.4056 C   0  0  0  0  0  0  0  0  0  0  0  0
   -0.7683   -0.3420    4.2531 C   0  0  0  0  0  0  0  0  0  0  0  0
   -1.4204    0.7672    3.7099 C   0  0  0  0  0  0  0  0  0  0  0  0
   -1.4068    1.0217    2.3462 C   0  0  0  0  0  0  0  0  0  0  0  0
   -0.7282    0.1613    1.5102 C   0  0  0  0  0  0  0  0  0  0  0  0
   -0.8720   -0.7363    5.6441 C   0  0  0  0  0  0  0  0  0  0  0  0
   -1.7549   -0.2988    6.5525 C   0  0  0  0  0  0  0  0  0  0  0  0
   -1.9350   -0.9287    7.8504 C   0  0  0  0  0  0  0  0  0  0  0  0
   -0.9080   -1.6607    8.4591 C   0  0  0  0  0  0  0  0  0  0  0  0
   -1.2099   -2.4193    9.5679 C   0  0  0  0  0  0  0  0  0  0  0  0
   -2.5070   -2.4637   10.0969 C   0  0  0  0  0  0  0  0  0  0  0  0
   -3.4977   -1.6743    9.5554 C   0  0  0  0  0  0  0  0  0  0  0  0
   -3.2004   -0.9010    8.4427 C   0  0  0  0  0  0  0  0  0  0  0  0
   -2.5500   -3.5310   11.1413 C   0  0  0  0  0  0  0  0  0  0  0  0
   -1.0828   -3.9555   11.2414 C   0  0  0  0  0  0  0  0  0  0  0  0
   -0.6065   -4.7788   11.9873 O   0  0  0  0  0  0  0  0  0  0  0  0
   -0.3828   -3.2669   10.2918 N   0  0  0  0  0  0  0  0  0  0  0  0
    1.0179   -3.4934   10.0341 C   0  0  0  0  0  0  0  0  0  0  0  0
    1.2289   -4.4854    8.8935 C   0  0  0  0  0  0  0  0  0  0  0  0
   -3.3614   -4.7546   10.6398 C   0  0  0  0  0  0  0  0  0  0  0  0
   -3.2313   -5.8899   11.6632 C   0  0  0  0  0  0  0  0  0  0  0  0
   -3.6783   -5.9172   12.7799 O   0  0  0  0  0  0  0  0  0  0  0  0
   -2.5172   -6.8885   11.0610 N   0  0  0  0  0  0  0  0  0  0  0  0
   -2.1812   -6.5845    9.7527 C   0  0  0  0  0  0  0  0  0  0  0  0
   -1.4359   -7.3120    8.8502 C   0  0  0  0  0  0  0  0  0  0  0  0
   -1.2354   -6.7906    7.5640 C   0  0  0  0  0  0  0  0  0  0  0  0
   -1.8081   -5.5627    7.2298 C   0  0  0  0  0  0  0  0  0  0  0  0
   -2.5598   -4.8384    8.1430 C   0  0  0  0  0  0  0  0  0  0  0  0
   -2.7305   -5.3412    9.4141 C   0  0  0  0  0  0  0  0  0  0  0  0
   -0.3630   -7.5213    6.6509 C   0  0  0  0  0  0  0  0  0  0  0  0
   -0.2653   -7.4056    5.3246 C   0  0  0  0  0  0  0  0  0  0  0  0
   -1.1182   -6.5985    4.4400 C   0  0  0  0  0  0  0  0  0  0  0  0
   -2.4834   -6.8775    4.3550 C   0  0  0  0  0  0  0  0  0  0  0  0
   -3.2547   -6.1096    3.5070 C   0  0  0  0  0  0  0  0  0  0  0  0
   -2.6998   -5.0565    2.7694 C   0  0  0  0  0  0  0  0  0  0  0  0
   -1.3521   -4.7906    2.8452 C   0  0  0  0  0  0  0  0  0  0  0  0
   -0.5614   -5.5821    3.6679 C   0  0  0  0  0  0  0  0  0  0  0  0
   -3.7965   -4.3887    2.0031 C   0  0  0  0  0  0  0  0  0  0  0  0
   -5.0133   -5.2466    2.3448 C   0  0  0  0  0  0  0  0  0  0  0  0
   -6.1376   -5.1250    1.9193 O   0  0  0  0  0  0  0  0  0  0  0  0
   -4.6146   -6.1957    3.2469 N   0  0  0  0  0  0  0  0  0  0  0  0
   -5.5018   -7.2014    3.7786 C   0  0  0  0  0  0  0  0  0  0  0  0
   -5.3372   -8.5379    3.0604 C   0  0  0  0  0  0  0  0  0  0  0  0
   -3.5740   -4.2880    0.4871 C   0  0  0  0  0  0  0  0  0  0  0  0
   -2.4947   -3.2488    0.1804 C   0  0  0  0  0  0  0  0  0  0  0  0
   -2.4884   -2.0929    0.5389 O   0  0  0  0  0  0  0  0  0  0  0  0
   -1.5169   -3.8664   -0.5354 N   0  0  0  0  0  0  0  0  0  0  0  0
   -1.8167   -5.2011   -0.7737 C   0  0  0  0  0  0  0  0  0  0  0  0
   -1.0911   -6.1291   -1.4847 C   0  0  0  0  0  0  0  0  0  0  0  0
   -1.6465   -7.3982   -1.6727 C   0  0  0  0  0  0  0  0  0  0  0  0
   -2.8514   -7.7220   -1.0464 C   0  0  0  0  0  0  0  0  0  0  0  0
   -3.5529   -6.7913   -0.2942 C   0  0  0  0  0  0  0  0  0  0  0  0
   -3.0406   -5.5189   -0.1747 C   0  0  0  0  0  0  0  0  0  0  0  0
   -0.9839   -8.3982   -2.5024 C   0  0  0  0  0  0  0  0  0  0  0  0
   -0.3679   -8.2177   -3.6834 C   0  0  0  0  0  0  0  0  0  0  0  0
   -0.2324   -7.0474   -4.5013 C   0  0  0  0  0  0  0  0  0  0  0  0
   -1.1802   -5.5881   -4.3385 S   0  0  0  0  0  0  0  0  0  0  0  0
   -0.3200   -4.8518   -5.6360 C   0  0  0  0  0  0  0  0  0  0  0  0
   -0.3913   -3.5194   -6.1214 C   0  0  0  0  0  0  0  0  0  0  0  0
    0.4616   -3.1646   -7.1549 C   0  0  0  0  0  0  0  0  0  0  0  0
    1.5760   -4.7207   -7.6169 Ge  0  0  0  0  0  4  0  0  0  0  0  0
    1.2836   -5.4684   -9.4577 C   0  0  0  0  0  0  0  0  0  0  0  0
    1.9105   -6.8427   -9.6316 C   0  0  0  0  0  0  0  0  0  0  0  0
    3.5036   -4.4218   -7.1461 C   0  0  0  0  0  0  0  0  0  0  0  0
    3.6602   -3.8551   -5.7437 C   0  0  0  0  0  0  0  0  0  0  0  0
    0.6198   -5.7003   -6.2007 C   0  0  0  0  0  0  0  0  0  0  0  0
    0.6486   -6.9392   -5.5593 C   0  0  0  0  0  0  0  0  0  0  0  0
    0.3607   -1.8092   -7.4734 C   0  0  0  0  0  0  0  0  0  0  0  0
   -0.5474   -1.1218   -6.6982 C   0  0  0  0  0  0  0  0  0  0  0  0
   -1.3185   -2.1873   -5.5514 S   0  0  0  0  0  0  0  0  0  0  0  0
   -0.8218    0.2979   -6.6740 C   0  0  0  0  0  0  0  0  0  0  0  0
   -1.7878    0.8080   -5.7959 C   0  0  0  0  0  0  0  0  0  0  0  0
   -1.9440    2.1743   -5.7091 C   0  0  0  0  0  0  0  0  0  0  0  0
   -1.1630    3.0460   -6.4760 C   0  0  0  0  0  0  0  0  0  0  0  0
   -0.2381    2.5492   -7.3672 C   0  0  0  0  0  0  0  0  0  0  0  0
   -0.0781    1.1773   -7.4698 C   0  0  0  0  0  0  0  0  0  0  0  0
   -1.4900    4.4498   -6.0828 C   0  0  0  0  0  0  0  0  0  0  0  0
   -2.6117    4.2445   -5.0551 C   0  0  0  0  0  0  0  0  0  0  0  0
   -3.2015    5.1159   -4.4529 O   0  0  0  0  0  0  0  0  0  0  0  0
   -2.8013    2.9072   -4.9021 N   0  0  0  0  0  0  0  0  0  0  0  0
   -3.7076    2.3340   -3.9365 C   0  0  0  0  0  0  0  0  0  0  0  0
   -4.9613    1.7777   -4.6042 C   0  0  0  0  0  0  0  0  0  0  0  0
   -0.2997    5.1586   -5.3985 C   0  0  0  0  0  0  0  0  0  0  0  0
   -0.2872    4.8768   -3.8976 C   0  0  0  0  0  0  0  0  0  0  0  0
   -0.2454    3.8022   -3.3325 O   0  0  0  0  0  0  0  0  0  0  0  0
   -0.3101    6.0709   -3.2560 N   0  0  0  0  0  0  0  0  0  0  0  0
   -0.2916    7.1370   -4.1365 C   0  0  0  0  0  0  0  0  0  0  0  0
   -0.1805    8.4739   -3.8475 C   0  0  0  0  0  0  0  0  0  0  0  0
   -0.0657    9.3713   -4.9108 C   0  0  0  0  0  0  0  0  0  0  0  0
   -0.1721    8.9085   -6.2186 C   0  0  0  0  0  0  0  0  0  0  0  0
   -0.2951    7.5506   -6.4955 C   0  0  0  0  0  0  0  0  0  0  0  0
   -0.3168    6.6559   -5.4474 C   0  0  0  0  0  0  0  0  0  0  0  0
    0.2795   10.7627   -4.5873 C   0  0  0  0  0  0  0  0  0  0  0  0
    1.3084   11.0262   -3.7828 C   0  0  0  0  0  0  0  0  0  0  0  0
    2.2076    9.9575   -3.3048 C   0  0  0  0  0  0  0  0  0  0  0  0
    2.8922    9.1982   -4.2555 C   0  0  0  0  0  0  0  0  0  0  0  0
    3.6833    8.1545   -3.8237 C   0  0  0  0  0  0  0  0  0  0  0  0
    3.7852    7.8350   -2.4631 C   0  0  0  0  0  0  0  0  0  0  0  0
    3.1234    8.5938   -1.5242 C   0  0  0  0  0  0  0  0  0  0  0  0
    2.3493    9.6673   -1.9517 C   0  0  0  0  0  0  0  0  0  0  0  0
    4.7161    6.6707   -2.3257 C   0  0  0  0  0  0  0  0  0  0  0  0
    5.1562    6.4257   -3.7738 C   0  0  0  0  0  0  0  0  0  0  0  0
    5.9558    5.6014   -4.1492 O   0  0  0  0  0  0  0  0  0  0  0  0
    4.4955    7.3156   -4.5693 N   0  0  0  0  0  0  0  0  0  0  0  0
    4.5559    7.2699   -6.0097 C   0  0  0  0  0  0  0  0  0  0  0  0
    3.3123    6.6042   -6.5908 C   0  0  0  0  0  0  0  0  0  0  0  0
    4.0919    5.3667   -1.8056 C   0  0  0  0  0  0  0  0  0  0  0  0
    2.8481    4.9403   -2.5878 C   0  0  0  0  0  0  0  0  0  0  0  0
    2.7169    4.8905   -3.7903 O   0  0  0  0  0  0  0  0  0  0  0  0
    1.8899    4.6122   -1.6807 N   0  0  0  0  0  0  0  0  0  0  0  0
    2.3023    4.8470   -0.3790 C   0  0  0  0  0  0  0  0  0  0  0  0
    1.6009    4.6661    0.7919 C   0  0  0  0  0  0  0  0  0  0  0  0
    2.2310    4.9818    1.9994 C   0  0  0  0  0  0  0  0  0  0  0  0
    3.5268    5.5012    1.9798 C   0  0  0  0  0  0  0  0  0  0  0  0
    4.2259    5.6792    0.7953 C   0  0  0  0  0  0  0  0  0  0  0  0
    3.6104    5.3461   -0.3904 C   0  0  0  0  0  0  0  0  0  0  0  0
    1.5802    4.7698    3.2880 C   0  0  0  0  0  0  0  0  0  0  0  0
    0.5455    3.9711    3.5177 C   0  0  0  0  0  0  0  0  0  0  0  0
    5.2485    2.0176   -0.6220 H   0  0  0  0  0  0  0  0  0  0  0  0
    3.9806    1.7114   -2.7133 H   0  0  0  0  0  0  0  0  0  0  0  0
    1.6768    1.6386    1.6936 H   0  0  0  0  0  0  0  0  0  0  0  0
    4.1198    1.9689    1.5549 H   0  0  0  0  0  0  0  0  0  0  0  0
   -0.5908    2.1925   -0.4092 H   0  0  0  0  0  0  0  0  0  0  0  0
    2.2241    1.9737   -4.3477 H   0  0  0  0  0  0  0  0  0  0  0  0
    0.5747    1.3805   -4.6298 H   0  0  0  0  0  0  0  0  0  0  0  0
    2.1846   -0.2773   -5.5123 H   0  0  0  0  0  0  0  0  0  0  0  0
    2.9895   -0.3789   -3.9373 H   0  0  0  0  0  0  0  0  0  0  0  0
    1.3310   -0.9511   -4.1147 H   0  0  0  0  0  0  0  0  0  0  0  0
   -1.6070   -0.0899   -0.4233 H   0  0  0  0  0  0  0  0  0  0  0  0
    1.0862   -2.4941    1.1698 H   0  0  0  0  0  0  0  0  0  0  0  0
    0.4748   -2.0493    3.8064 H   0  0  0  0  0  0  0  0  0  0  0  0
   -1.9635    1.4330    4.3622 H   0  0  0  0  0  0  0  0  0  0  0  0
   -1.9502    1.8652    1.9465 H   0  0  0  0  0  0  0  0  0  0  0  0
   -0.2164   -1.5535    5.9175 H   0  0  0  0  0  0  0  0  0  0  0  0
   -2.4696    0.4707    6.2971 H   0  0  0  0  0  0  0  0  0  0  0  0
    0.0898   -1.6410    8.0523 H   0  0  0  0  0  0  0  0  0  0  0  0
   -4.4949   -1.6765    9.9694 H   0  0  0  0  0  0  0  0  0  0  0  0
   -3.9783   -0.3062    7.9875 H   0  0  0  0  0  0  0  0  0  0  0  0
   -2.9414   -3.2215   12.1125 H   0  0  0  0  0  0  0  0  0  0  0  0
    1.4919   -2.5342    9.8077 H   0  0  0  0  0  0  0  0  0  0  0  0
    1.4458   -3.8945   10.9566 H   0  0  0  0  0  0  0  0  0  0  0  0
    0.8029   -5.4498    9.1579 H   0  0  0  0  0  0  0  0  0  0  0  0
    2.2912   -4.6109    8.7029 H   0  0  0  0  0  0  0  0  0  0  0  0
    0.7435   -4.1388    7.9840 H   0  0  0  0  0  0  0  0  0  0  0  0
   -4.4053   -4.4617   10.5091 H   0  0  0  0  0  0  0  0  0  0  0  0
   -2.2036   -7.7075   11.5565 H   0  0  0  0  0  0  0  0  0  0  0  0
   -1.0038   -8.2625    9.1267 H   0  0  0  0  0  0  0  0  0  0  0  0
   -1.6409   -5.1461    6.2507 H   0  0  0  0  0  0  0  0  0  0  0  0
   -2.9896   -3.8922    7.8535 H   0  0  0  0  0  0  0  0  0  0  0  0
    0.3051   -8.2172    7.1445 H   0  0  0  0  0  0  0  0  0  0  0  0
    0.5081   -7.9677    4.8140 H   0  0  0  0  0  0  0  0  0  0  0  0
   -2.9045   -7.6716    4.9512 H   0  0  0  0  0  0  0  0  0  0  0  0
   -0.9232   -3.9769    2.2809 H   0  0  0  0  0  0  0  0  0  0  0  0
    0.5000   -5.3937    3.7398 H   0  0  0  0  0  0  0  0  0  0  0  0
   -3.9688   -3.3682    2.3682 H   0  0  0  0  0  0  0  0  0  0  0  0
   -6.5191   -6.8261    3.6390 H   0  0  0  0  0  0  0  0  0  0  0  0
   -5.3050   -7.3121    4.8491 H   0  0  0  0  0  0  0  0  0  0  0  0
   -4.3081   -8.8843    3.1245 H   0  0  0  0  0  0  0  0  0  0  0  0
   -5.9884   -9.2823    3.5101 H   0  0  0  0  0  0  0  0  0  0  0  0
   -5.6032   -8.4334    2.0116 H   0  0  0  0  0  0  0  0  0  0  0  0
   -4.5226   -3.9688    0.0403 H   0  0  0  0  0  0  0  0  0  0  0  0
   -0.7374   -3.3779   -0.9584 H   0  0  0  0  0  0  0  0  0  0  0  0
   -0.1238   -5.8838   -1.8926 H   0  0  0  0  0  0  0  0  0  0  0  0
   -3.2576   -8.7141   -1.1783 H   0  0  0  0  0  0  0  0  0  0  0  0
   -4.4937   -7.0511    0.1665 H   0  0  0  0  0  0  0  0  0  0  0  0
   -1.0306   -9.4097   -2.1182 H   0  0  0  0  0  0  0  0  0  0  0  0
    0.1065   -9.0864   -4.1277 H   0  0  0  0  0  0  0  0  0  0  0  0
    1.6966   -4.7709  -10.1860 H   0  0  0  0  0  0  0  0  0  0  0  0
    0.2090   -5.5218   -9.6299 H   0  0  0  0  0  0  0  0  0  0  0  0
    1.5007   -7.5418   -8.9058 H   0  0  0  0  0  0  0  0  0  0  0  0
    1.7150   -7.2307  -10.6299 H   0  0  0  0  0  0  0  0  0  0  0  0
    2.9882   -6.7951   -9.4892 H   0  0  0  0  0  0  0  0  0  0  0  0
    4.0344   -5.3700   -7.2294 H   0  0  0  0  0  0  0  0  0  0  0  0
    3.9379   -3.7416   -7.8787 H   0  0  0  0  0  0  0  0  0  0  0  0
    3.2406   -4.5381   -5.0075 H   0  0  0  0  0  0  0  0  0  0  0  0
    3.1402   -2.9035   -5.6531 H   0  0  0  0  0  0  0  0  0  0  0  0
    4.7111   -3.6972   -5.5068 H   0  0  0  0  0  0  0  0  0  0  0  0
    1.3190   -7.7371   -5.8324 H   0  0  0  0  0  0  0  0  0  0  0  0
    0.9489   -1.3498   -8.2482 H   0  0  0  0  0  0  0  0  0  0  0  0
   -2.3527    0.1395   -5.1678 H   0  0  0  0  0  0  0  0  0  0  0  0
    0.3645    3.2141   -7.9686 H   0  0  0  0  0  0  0  0  0  0  0  0
    0.6542    0.7875   -8.1578 H   0  0  0  0  0  0  0  0  0  0  0  0
   -1.8393    5.0638   -6.9168 H   0  0  0  0  0  0  0  0  0  0  0  0
   -3.1697    1.5543   -3.3917 H   0  0  0  0  0  0  0  0  0  0  0  0
   -3.9766    3.1382   -3.2467 H   0  0  0  0  0  0  0  0  0  0  0  0
   -4.7038    1.0058   -5.3255 H   0  0  0  0  0  0  0  0  0  0  0  0
   -5.6177    1.3472   -3.8530 H   0  0  0  0  0  0  0  0  0  0  0  0
   -5.4961    2.5716   -5.1212 H   0  0  0  0  0  0  0  0  0  0  0  0
    0.6339    4.7727   -5.8210 H   0  0  0  0  0  0  0  0  0  0  0  0
   -0.3358    6.1751   -2.2539 H   0  0  0  0  0  0  0  0  0  0  0  0
   -0.1514    8.8243   -2.8285 H   0  0  0  0  0  0  0  0  0  0  0  0
   -0.1076    9.6139   -7.0341 H   0  0  0  0  0  0  0  0  0  0  0  0
   -0.3370    7.2085   -7.5192 H   0  0  0  0  0  0  0  0  0  0  0  0
   -0.3262   11.5537   -5.0066 H   0  0  0  0  0  0  0  0  0  0  0  0
    1.5389   12.0389   -3.4805 H   0  0  0  0  0  0  0  0  0  0  0  0
    2.7967    9.4409   -5.3018 H   0  0  0  0  0  0  0  0  0  0  0  0
    3.2023    8.3606   -0.4723 H   0  0  0  0  0  0  0  0  0  0  0  0
    1.8252   10.2700   -1.2242 H   0  0  0  0  0  0  0  0  0  0  0  0
    5.5855    6.9095   -1.7054 H   0  0  0  0  0  0  0  0  0  0  0  0
    4.6748    8.2873   -6.3954 H   0  0  0  0  0  0  0  0  0  0  0  0
    5.4452    6.6854   -6.2596 H   0  0  0  0  0  0  0  0  0  0  0  0
    2.4270    7.2071   -6.4009 H   0  0  0  0  0  0  0  0  0  0  0  0
    3.4277    6.4695   -7.6630 H   0  0  0  0  0  0  0  0  0  0  0  0
    3.1737    5.6357   -6.1176 H   0  0  0  0  0  0  0  0  0  0  0  0
    4.8437    4.5803   -1.9596 H   0  0  0  0  0  0  0  0  0  0  0  0
    1.0157    4.1734   -1.9599 H   0  0  0  0  0  0  0  0  0  0  0  0
    0.5898    4.2932    0.7770 H   0  0  0  0  0  0  0  0  0  0  0  0
    4.0021    5.7541    2.9163 H   0  0  0  0  0  0  0  0  0  0  0  0
    5.2326    6.0694    0.8082 H   0  0  0  0  0  0  0  0  0  0  0  0
    2.0316    5.3003    4.1174 H   0  0  0  0  0  0  0  0  0  0  0  0
    0.0752    3.3910    2.7428 H   0  0  0  0  0  0  0  0  0  0  0  0
    0.1367    3.8529    4.5064 H   0  0  0  0  0  0  0  0  0  0  0  0
  1  2  2  0  0  0  0
  2  3  1  0  0  0  0
  3  4  2  0  0  0  0
  4  5  1  0  0  0  0
  5  6  2  0  0  0  0
  4  7  1  0  0  0  0
  7  8  1  0  0  0  0
  8  9  2  0  0  0  0
  8 10  1  0  0  0  0
 10 11  1  0  0  0  0
 11 12  1  0  0  0  0
  7 13  1  0  0  0  0
 13 14  1  0  0  0  0
 14 15  2  0  0  0  0
 14 16  1  0  0  0  0
 16 17  1  0  0  0  0
 17 18  2  0  0  0  0
 18 19  1  0  0  0  0
 19 20  2  0  0  0  0
 20 21  1  0  0  0  0
 21 22  2  0  0  0  0
 19 23  1  0  0  0  0
 23 24  2  0  0  0  0
 24 25  1  0  0  0  0
 25 26  2  0  0  0  0
 26 27  1  0  0  0  0
 27 28  2  0  0  0  0
 28 29  1  0  0  0  0
 29 30  2  0  0  0  0
 28 31  1  0  0  0  0
 31 32  1  0  0  0  0
 32 33  2  0  0  0  0
 32 34  1  0  0  0  0
 34 35  1  0  0  0  0
 35 36  1  0  0  0  0
 31 37  1  0  0  0  0
 37 38  1  0  0  0  0
 38 39  2  0  0  0  0
 38 40  1  0  0  0  0
 40 41  1  0  0  0  0
 41 42  2  0  0  0  0
 42 43  1  0  0  0  0
 43 44  2  0  0  0  0
 44 45  1  0  0  0  0
 45 46  2  0  0  0  0
 43 47  1  0  0  0  0
 47 48  2  0  0  0  0
 48 49  1  0  0  0  0
 49 50  2  0  0  0  0
 50 51  1  0  0  0  0
 51 52  2  0  0  0  0
 52 53  1  0  0  0  0
 53 54  2  0  0  0  0
 52 55  1  0  0  0  0
 55 56  1  0  0  0  0
 56 57  2  0  0  0  0
 56 58  1  0  0  0  0
 58 59  1  0  0  0  0
 59 60  1  0  0  0  0
 55 61  1  0  0  0  0
 61 62  1  0  0  0  0
 62 63  2  0  0  0  0
 62 64  1  0  0  0  0
 64 65  1  0  0  0  0
 65 66  2  0  0  0  0
 66 67  1  0  0  0  0
 67 68  2  0  0  0  0
 68 69  1  0  0  0  0
 69 70  2  0  0  0  0
 67 71  1  0  0  0  0
 71 72  2  0  0  0  0
 72 73  1  0  0  0  0
 73 74  1  0  0  0  0
 74 75  1  0  0  0  0
 75 76  1  0  0  0  0
 76 77  2  0  0  0  0
 77 78  1  0  0  0  0
 78 79  1  0  0  0  0
 79 80  1  0  0  0  0
 78 81  1  0  0  0  0
 81 82  1  0  0  0  0
 78 83  1  0  0  0  0
 83 84  1  0  0  0  0
 77 85  1  0  0  0  0
 85 86  2  0  0  0  0
 86 87  1  0  0  0  0
 86 88  1  0  0  0  0
 88 89  2  0  0  0  0
 89 90  1  0  0  0  0
 90 91  2  0  0  0  0
 91 92  1  0  0  0  0
 92 93  2  0  0  0  0
 91 94  1  0  0  0  0
 94 95  1  0  0  0  0
 95 96  2  0  0  0  0
 95 97  1  0  0  0  0
 97 98  1  0  0  0  0
 98 99  1  0  0  0  0
 94100  1  0  0  0  0
100101  1  0  0  0  0
101102  2  0  0  0  0
101103  1  0  0  0  0
103104  1  0  0  0  0
104105  2  0  0  0  0
105106  1  0  0  0  0
106107  2  0  0  0  0
107108  1  0  0  0  0
108109  2  0  0  0  0
106110  1  0  0  0  0
110111  2  0  0  0  0
111112  1  0  0  0  0
112113  2  0  0  0  0
113114  1  0  0  0  0
114115  2  0  0  0  0
115116  1  0  0  0  0
116117  2  0  0  0  0
115118  1  0  0  0  0
118119  1  0  0  0  0
119120  2  0  0  0  0
119121  1  0  0  0  0
121122  1  0  0  0  0
122123  1  0  0  0  0
118124  1  0  0  0  0
124125  1  0  0  0  0
125126  2  0  0  0  0
125127  1  0  0  0  0
127128  1  0  0  0  0
128129  2  0  0  0  0
129130  1  0  0  0  0
130131  2  0  0  0  0
131132  1  0  0  0  0
132133  2  0  0  0  0
130134  1  0  0  0  0
134135  2  0  0  0  0
  6  1  1  0  0  0  0
 22 13  1  0  0  0  0
 30 25  1  0  0  0  0
 46 37  1  0  0  0  0
 54 49  1  0  0  0  0
 70 61  1  0  0  0  0
 84 73  2  0  0  0  0
 93 88  1  0  0  0  0
109100  1  0  0  0  0
117112  1  0  0  0  0
133124  1  0  0  0  0
 10  3  1  0  0  0  0
 22 17  1  0  0  0  0
 34 27  1  0  0  0  0
 46 41  1  0  0  0  0
 58 51  1  0  0  0  0
 70 65  1  0  0  0  0
 83 75  2  0  0  0  0
 97 90  1  0  0  0  0
109104  1  0  0  0  0
121114  1  0  0  0  0
133128  1  0  0  0  0
 87 76  1  0  0  0  0
  1136  1  0  0  0  0
  2137  1  0  0  0  0
  5138  1  0  0  0  0
  6139  1  0  0  0  0
  7140  1  0  0  0  0
 11141  1  0  0  0  0
 11142  1  0  0  0  0
 12143  1  0  0  0  0
 12144  1  0  0  0  0
 12145  1  0  0  0  0
 13146  1  0  0  0  0
 16147  1  0  0  0  0
 18148  1  0  0  0  0
 20149  1  0  0  0  0
 21150  1  0  0  0  0
 23151  1  0  0  0  0
 24152  1  0  0  0  0
 26153  1  0  0  0  0
 29154  1  0  0  0  0
 30155  1  0  0  0  0
 31156  1  0  0  0  0
 35157  1  0  0  0  0
 35158  1  0  0  0  0
 36159  1  0  0  0  0
 36160  1  0  0  0  0
 36161  1  0  0  0  0
 37162  1  0  0  0  0
 40163  1  0  0  0  0
 42164  1  0  0  0  0
 44165  1  0  0  0  0
 45166  1  0  0  0  0
 47167  1  0  0  0  0
 48168  1  0  0  0  0
 50169  1  0  0  0  0
 53170  1  0  0  0  0
 54171  1  0  0  0  0
 55172  1  0  0  0  0
 59173  1  0  0  0  0
 59174  1  0  0  0  0
 60175  1  0  0  0  0
 60176  1  0  0  0  0
 60177  1  0  0  0  0
 61178  1  0  0  0  0
 64179  1  0  0  0  0
 66180  1  0  0  0  0
 68181  1  0  0  0  0
 69182  1  0  0  0  0
 71183  1  0  0  0  0
 72184  1  0  0  0  0
 79185  1  0  0  0  0
 79186  1  0  0  0  0
 80187  1  0  0  0  0
 80188  1  0  0  0  0
 80189  1  0  0  0  0
 81190  1  0  0  0  0
 81191  1  0  0  0  0
 82192  1  0  0  0  0
 82193  1  0  0  0  0
 82194  1  0  0  0  0
 84195  1  0  0  0  0
 85196  1  0  0  0  0
 89197  1  0  0  0  0
 92198  1  0  0  0  0
 93199  1  0  0  0  0
 94200  1  0  0  0  0
 98201  1  0  0  0  0
 98202  1  0  0  0  0
 99203  1  0  0  0  0
 99204  1  0  0  0  0
 99205  1  0  0  0  0
100206  1  0  0  0  0
103207  1  0  0  0  0
105208  1  0  0  0  0
107209  1  0  0  0  0
108210  1  0  0  0  0
110211  1  0  0  0  0
111212  1  0  0  0  0
113213  1  0  0  0  0
116214  1  0  0  0  0
117215  1  0  0  0  0
118216  1  0  0  0  0
122217  1  0  0  0  0
122218  1  0  0  0  0
123219  1  0  0  0  0
123220  1  0  0  0  0
123221  1  0  0  0  0
124222  1  0  0  0  0
127223  1  0  0  0  0
129224  1  0  0  0  0
131225  1  0  0  0  0
132226  1  0  0  0  0
134227  1  0  0  0  0
135228  1  0  0  0  0
135229  1  0  0  0  0
M  END
