129

C          0.96860       -0.50180       -6.53710
C         -0.07950       -1.35060       -6.55160
F         -0.58550       -2.00460       -5.50310
C         -0.60690       -1.49910       -7.89760
C          0.16680       -0.75710       -8.71100
C          1.18010       -0.07440       -7.90460
C          2.15290        0.74170       -8.41170
C          3.16310        1.56050       -7.69040
C          4.12430        1.91070       -8.60780
C          3.70780        1.43130       -9.88460
C          2.51590        0.78050       -9.80200
F          4.41440        1.62260      -11.00100
C          3.13520        2.05470       -6.36240
C          2.03530        2.17800       -5.57580
C          2.00070        2.76310       -4.28440
C          0.85670        3.26710       -3.70290
F         -0.38350        3.10750       -4.17510
C          1.16160        4.05040       -2.55030
C          2.51380        4.07340       -2.41720
C          3.09930        3.19650       -3.41030
C          4.40510        2.79120       -3.33450
C          5.08990        1.59800       -3.89960
C          6.43250        1.81200       -3.78570
C          6.62440        3.05090       -3.08440
C          5.43620        3.60870       -2.74390
F          7.83090        3.54510       -2.80330
C          4.52050        0.35580       -4.34720
C          3.43000       -0.27410       -3.86680
C          2.64010        0.13320       -2.74520
S          0.92220       -0.18240       -2.74080
C          0.76290        0.61120       -1.22340
C         -0.40010        0.87360       -0.46350
C         -0.24890        1.52510        0.75670
Ge         1.67200        1.84380        1.05750
C          2.41680        0.66490        2.49680
C          3.93690        0.67200        2.53380
C          2.16950        3.77510        1.27620
C          1.79660        4.30310        2.65280
C          1.98290        1.05190       -0.72120
C          3.03510        0.77280       -1.58840
C         -1.47160        1.74430        1.38590
C         -2.54830        1.24500        0.68040
S         -2.04590        0.53540       -0.83470
C         -3.92950        1.32820        1.03200
C         -4.53960        2.34880        1.70880
F         -3.92380        3.38950        2.28430
C         -5.96700        2.21650        1.65970
C         -6.26020        1.12150        0.91410
C         -5.02540        0.45650        0.56620
C         -4.95750       -0.80320        0.03500
C         -3.82130       -1.76010        0.04770
C         -4.09910       -2.73200       -0.87310
C         -5.40980       -2.47450       -1.38900
C         -5.96710       -1.37760       -0.80720
F         -5.99210       -3.24730       -2.30580
C         -2.76120       -1.79360        0.99960
C         -2.85070       -1.24240        2.23140
C         -1.82540       -1.19920        3.21550
C         -1.76960       -0.22330        4.18570
F         -2.73610        0.66480        4.43850
C         -0.50210       -0.21140        4.84260
C          0.24960       -1.19650        4.29280
C         -0.55670       -1.92380        3.32150
C         -0.17240       -3.13820        2.82760
C         -0.94140       -4.21880        2.16500
C         -0.02910       -5.09060        1.64100
C          1.28560       -4.65550        2.02060
C          1.22080       -3.53710        2.77700
F          2.39530       -5.31060        1.67410
C         -2.35290       -4.48800        2.07070
C         -3.39490       -4.21460        2.87520
C         -3.49250       -3.46190        4.09830
C         -4.58050       -2.68270        4.38530
F         -5.68600       -2.58970        3.63830
C         -4.37860       -1.90220        5.57800
C         -3.13680       -2.17720        6.02850
C         -2.54790       -3.22190        5.19200
C         -1.38810       -3.86160        5.51810
C         -0.82000       -5.11910        4.99350
C          0.49500       -5.15420        5.35800
C          0.75590       -4.00500        6.17940
C         -0.36280       -3.26210        6.34810
F          1.95870       -3.73790        6.69560
C         -1.53290       -6.24140        4.44020
C         -2.81920       -6.51040        4.64860
H          1.57860       -0.24210       -5.69820
H         -1.45300       -2.10830       -8.15190
H          0.04520       -0.62390       -9.76760
H          5.00460        2.49790       -8.42930
H          1.99930        0.29200      -10.60270
H          4.06950        2.47510       -6.01360
H          1.06490        1.92370       -5.98170
H          0.42800        4.53310       -1.93210
H          3.06700        4.53850       -1.62540
H          7.22360        1.15140       -4.08450
H          5.28750        4.55760       -2.27000
H          5.09250       -0.14710       -5.11730
H          3.11170       -1.18750       -4.35400
H          2.04780       -0.34380        2.31240
H          2.01200        0.98720        3.45540
H          4.31460        1.67380        2.72830
H          4.30520        0.01250        3.31780
H          4.34330        0.33390        1.58300
H          3.24190        3.87700        1.11030
H          1.65930        4.34900        0.50480
H          2.05920        5.35570        2.74290
H          2.31950        3.75350        3.43270
H          0.72700        4.20160        2.82300
H          4.06450        1.01050       -1.38310
H         -1.58390        2.23080        2.33850
H         -6.65250        2.89710        2.12800
H         -7.23540        0.72070        0.72050
H         -3.49720       -3.58390       -1.12250
H         -6.91120       -0.93270       -1.04850
H         -1.87500       -2.34250        0.71460
H         -3.74940       -0.70190        2.49840
H         -0.22520        0.47170        5.62340
H          1.23630       -1.48060        4.59890
H         -0.23530       -5.98730        1.08800
H          2.04890       -2.97380        3.15610
H         -2.58320       -5.11170        1.21410
H         -4.36650       -4.53270        2.51310
H         -5.09870       -1.21990        5.98700
H         -2.68480       -1.80220        6.92540
H          1.20840       -5.92880        5.15040
H         -0.44780       -2.34110        6.88670
H         -0.91790       -6.94530        3.89420
H         -3.27780       -7.39740        4.24810
H         -3.44870       -5.86670        5.23820
