
  xtb     03022221293D
 energy: -275.514844454741 gnorm: 0.000368808093 xtb: 6.4.1 (unknown)
149166  0     0  0            999 V2000
   -2.3485  -11.4137   11.5825 C   0  0  0  0  0  0  0  0  0  0  0  0
   -1.0447  -11.0744   11.4485 C   0  0  0  0  0  0  0  0  0  0  0  0
   -0.8533   -9.8106   10.8289 C   0  0  0  0  0  0  0  0  0  0  0  0
   -2.0578   -9.2071   10.5167 C   0  0  0  0  0  0  0  0  0  0  0  0
   -3.4048  -10.1979   10.9827 S   0  0  0  0  0  0  0  0  0  0  0  0
   -2.2445   -7.9304    9.9416 C   0  0  0  0  0  0  0  0  0  0  0  0
   -1.2919   -7.1562    9.3002 C   0  0  0  0  0  0  0  0  0  0  0  0
    0.1168   -7.4458    8.9887 C   0  0  0  0  0  0  0  0  0  0  0  0
    0.6590   -6.8019    8.1119 O   0  0  0  0  0  0  0  0  0  0  0  0
    0.8581   -8.3698    9.7150 N   0  0  0  0  0  0  0  0  0  0  0  0
    0.5189   -9.3109   10.6836 C   0  0  0  0  0  0  0  0  0  0  0  0
    1.3987   -9.8014   11.3634 O   0  0  0  0  0  0  0  0  0  0  0  0
    2.3050   -8.2826    9.4678 C   0  0  0  0  0  0  0  0  0  0  0  0
    2.9525   -7.2278   10.3548 C   0  0  0  0  0  0  0  0  0  0  0  0
   -1.8320   -5.9406    8.8282 C   0  0  0  0  0  0  0  0  0  0  0  0
   -3.1625   -5.7751    9.1075 C   0  0  0  0  0  0  0  0  0  0  0  0
   -3.7977   -7.1563    9.9568 S   0  0  0  0  0  0  0  0  0  0  0  0
   -3.9903   -4.6585    8.7985 C   0  0  0  0  0  0  0  0  0  0  0  0
   -5.3179   -4.4799    9.0870 C   0  0  0  0  0  0  0  0  0  0  0  0
   -5.8298   -3.2310    8.6778 C   0  0  0  0  0  0  0  0  0  0  0  0
   -4.8685   -2.4571    8.0482 C   0  0  0  0  0  0  0  0  0  0  0  0
   -3.3395   -3.2752    7.9642 S   0  0  0  0  0  0  0  0  0  0  0  0
   -5.0381   -1.1658    7.5098 C   0  0  0  0  0  0  0  0  0  0  0  0
   -6.0711   -0.2788    7.7729 C   0  0  0  0  0  0  0  0  0  0  0  0
   -7.2423   -0.4222    8.6517 C   0  0  0  0  0  0  0  0  0  0  0  0
   -7.8200    0.5823    9.0166 O   0  0  0  0  0  0  0  0  0  0  0  0
   -7.7520   -1.6689    9.0027 N   0  0  0  0  0  0  0  0  0  0  0  0
   -7.2609   -2.9634    8.8836 C   0  0  0  0  0  0  0  0  0  0  0  0
   -8.0136   -3.9031    9.0472 O   0  0  0  0  0  0  0  0  0  0  0  0
   -9.1102   -1.6090    9.5636 C   0  0  0  0  0  0  0  0  0  0  0  0
  -10.1589   -1.6298    8.4600 C   0  0  0  0  0  0  0  0  0  0  0  0
   -5.8778    0.9627    7.1312 C   0  0  0  0  0  0  0  0  0  0  0  0
   -4.7345    1.0293    6.3773 C   0  0  0  0  0  0  0  0  0  0  0  0
   -3.8488   -0.4674    6.4579 S   0  0  0  0  0  0  0  0  0  0  0  0
   -4.2337    2.1426    5.6403 C   0  0  0  0  0  0  0  0  0  0  0  0
   -4.6557    3.4460    5.6975 C   0  0  0  0  0  0  0  0  0  0  0  0
   -3.9023    4.3266    4.8938 C   0  0  0  0  0  0  0  0  0  0  0  0
   -2.9061    3.6675    4.1902 C   0  0  0  0  0  0  0  0  0  0  0  0
   -2.9012    1.9673    4.5322 S   0  0  0  0  0  0  0  0  0  0  0  0
   -1.9799    4.2422    3.2969 C   0  0  0  0  0  0  0  0  0  0  0  0
   -1.6124    5.5771    3.2370 C   0  0  0  0  0  0  0  0  0  0  0  0
   -2.0999    6.7187    4.0236 C   0  0  0  0  0  0  0  0  0  0  0  0
   -1.3986    7.7052    4.1320 O   0  0  0  0  0  0  0  0  0  0  0  0
   -3.3940    6.7443    4.5323 N   0  0  0  0  0  0  0  0  0  0  0  0
   -4.3037    5.7406    4.8482 C   0  0  0  0  0  0  0  0  0  0  0  0
   -5.4355    6.0380    5.1743 O   0  0  0  0  0  0  0  0  0  0  0  0
   -3.8588    8.0922    4.8897 C   0  0  0  0  0  0  0  0  0  0  0  0
   -3.5577    8.4126    6.3474 C   0  0  0  0  0  0  0  0  0  0  0  0
   -0.5793    5.8015    2.3053 C   0  0  0  0  0  0  0  0  0  0  0  0
   -0.1807    4.6745    1.6311 C   0  0  0  0  0  0  0  0  0  0  0  0
   -1.0682    3.2791    2.1768 S   0  0  0  0  0  0  0  0  0  0  0  0
    0.8255    4.5779    0.6271 C   0  0  0  0  0  0  0  0  0  0  0  0
    0.8438    3.2629   -0.5184 S   0  0  0  0  0  0  0  0  0  0  0  0
    2.2496    3.9169   -1.2691 C   0  0  0  0  0  0  0  0  0  0  0  0
    2.9816    3.4473   -2.3887 C   0  0  0  0  0  0  0  0  0  0  0  0
    4.1244    4.1481   -2.7530 C   0  0  0  0  0  0  0  0  0  0  0  0
    4.3499    5.6833   -1.5335 Ge  0  0  0  0  0  4  0  0  0  0  0  0
    4.1733    7.4608   -2.4476 C   0  0  0  0  0  0  0  0  0  0  0  0
    3.9952    8.6066   -1.4634 C   0  0  0  0  0  0  0  0  0  0  0  0
    5.9341    5.4832   -0.3215 C   0  0  0  0  0  0  0  0  0  0  0  0
    5.9880    4.1055    0.3202 C   0  0  0  0  0  0  0  0  0  0  0  0
    2.6905    5.0808   -0.6523 C   0  0  0  0  0  0  0  0  0  0  0  0
    1.8726    5.4522    0.4120 C   0  0  0  0  0  0  0  0  0  0  0  0
    4.7449    3.5968   -3.8708 C   0  0  0  0  0  0  0  0  0  0  0  0
    4.0800    2.4969   -4.3778 C   0  0  0  0  0  0  0  0  0  0  0  0
    2.6594    2.1201   -3.4385 S   0  0  0  0  0  0  0  0  0  0  0  0
    4.4278    1.7408   -5.5327 C   0  0  0  0  0  0  0  0  0  0  0  0
    5.6289    1.7313   -6.1967 C   0  0  0  0  0  0  0  0  0  0  0  0
    5.6533    0.8996   -7.3347 C   0  0  0  0  0  0  0  0  0  0  0  0
    4.4315    0.2789   -7.5507 C   0  0  0  0  0  0  0  0  0  0  0  0
    3.2732    0.7100   -6.3314 S   0  0  0  0  0  0  0  0  0  0  0  0
    4.0782   -0.5411   -8.6397 C   0  0  0  0  0  0  0  0  0  0  0  0
    4.9410   -1.1660   -9.5264 C   0  0  0  0  0  0  0  0  0  0  0  0
    6.4091   -1.2152   -9.5275 C   0  0  0  0  0  0  0  0  0  0  0  0
    6.9642   -2.1406  -10.0868 O   0  0  0  0  0  0  0  0  0  0  0  0
    7.1753   -0.1803   -9.0029 N   0  0  0  0  0  0  0  0  0  0  0  0
    6.8898    0.8639   -8.1288 C   0  0  0  0  0  0  0  0  0  0  0  0
    7.7187    1.7362   -7.9528 O   0  0  0  0  0  0  0  0  0  0  0  0
    8.5852   -0.2296   -9.4168 C   0  0  0  0  0  0  0  0  0  0  0  0
    9.4245   -1.0043   -8.4099 C   0  0  0  0  0  0  0  0  0  0  0  0
    4.2476   -1.9141  -10.5002 C   0  0  0  0  0  0  0  0  0  0  0  0
    2.8839   -1.8518  -10.3837 C   0  0  0  0  0  0  0  0  0  0  0  0
    2.4168   -0.8819   -9.0138 S   0  0  0  0  0  0  0  0  0  0  0  0
    1.9027   -2.4446  -11.2280 C   0  0  0  0  0  0  0  0  0  0  0  0
    0.5392   -2.3545  -11.1349 C   0  0  0  0  0  0  0  0  0  0  0  0
   -0.1518   -3.0292  -12.1641 C   0  0  0  0  0  0  0  0  0  0  0  0
    0.7129   -3.6574  -13.0441 C   0  0  0  0  0  0  0  0  0  0  0  0
    2.3723   -3.4090  -12.6002 S   0  0  0  0  0  0  0  0  0  0  0  0
    0.3626   -4.4537  -14.1568 C   0  0  0  0  0  0  0  0  0  0  0  0
   -0.8734   -4.5362  -14.7727 C   0  0  0  0  0  0  0  0  0  0  0  0
   -2.1203   -3.8092  -14.5049 C   0  0  0  0  0  0  0  0  0  0  0  0
   -2.9719   -3.7757  -15.3721 O   0  0  0  0  0  0  0  0  0  0  0  0
   -2.3852   -3.2192  -13.2717 N   0  0  0  0  0  0  0  0  0  0  0  0
   -1.6217   -3.0248  -12.1266 C   0  0  0  0  0  0  0  0  0  0  0  0
   -2.1785   -2.7459  -11.0829 O   0  0  0  0  0  0  0  0  0  0  0  0
   -3.7858   -2.7990  -13.1156 C   0  0  0  0  0  0  0  0  0  0  0  0
   -4.6602   -3.9519  -12.6419 C   0  0  0  0  0  0  0  0  0  0  0  0
   -0.8458   -5.4226  -15.8833 C   0  0  0  0  0  0  0  0  0  0  0  0
    0.3651   -5.9916  -16.0874 C   0  0  0  0  0  0  0  0  0  0  0  0
    1.5359   -5.4599  -14.9469 S   0  0  0  0  0  0  0  0  0  0  0  0
   -2.7620  -12.3081   12.0036 H   0  0  0  0  0  0  0  0  0  0  0  0
   -0.2187  -11.6824   11.7690 H   0  0  0  0  0  0  0  0  0  0  0  0
    2.4408   -8.0309    8.4155 H   0  0  0  0  0  0  0  0  0  0  0  0
    2.7344   -9.2628    9.6760 H   0  0  0  0  0  0  0  0  0  0  0  0
    4.0179   -7.1844   10.1478 H   0  0  0  0  0  0  0  0  0  0  0  0
    2.8090   -7.4802   11.4025 H   0  0  0  0  0  0  0  0  0  0  0  0
    2.5179   -6.2506   10.1572 H   0  0  0  0  0  0  0  0  0  0  0  0
   -1.2396   -5.2171    8.2967 H   0  0  0  0  0  0  0  0  0  0  0  0
   -5.9243   -5.2159    9.5841 H   0  0  0  0  0  0  0  0  0  0  0  0
   -9.2359   -2.4722   10.2176 H   0  0  0  0  0  0  0  0  0  0  0  0
   -9.1835   -0.6880   10.1426 H   0  0  0  0  0  0  0  0  0  0  0  0
  -10.0765   -2.5470    7.8820 H   0  0  0  0  0  0  0  0  0  0  0  0
  -11.1504   -1.5817    8.9009 H   0  0  0  0  0  0  0  0  0  0  0  0
  -10.0286   -0.7757    7.7994 H   0  0  0  0  0  0  0  0  0  0  0  0
   -6.5789    1.7701    7.2334 H   0  0  0  0  0  0  0  0  0  0  0  0
   -5.4703    3.7882    6.3084 H   0  0  0  0  0  0  0  0  0  0  0  0
   -3.3482    8.8003    4.2364 H   0  0  0  0  0  0  0  0  0  0  0  0
   -4.9336    8.1233    4.7070 H   0  0  0  0  0  0  0  0  0  0  0  0
   -3.9161    9.4112    6.5805 H   0  0  0  0  0  0  0  0  0  0  0  0
   -2.4859    8.3739    6.5255 H   0  0  0  0  0  0  0  0  0  0  0  0
   -4.0570    7.7009    7.0007 H   0  0  0  0  0  0  0  0  0  0  0  0
   -0.1700    6.7796    2.1334 H   0  0  0  0  0  0  0  0  0  0  0  0
    5.0595    7.6234   -3.0603 H   0  0  0  0  0  0  0  0  0  0  0  0
    3.3168    7.4051   -3.1192 H   0  0  0  0  0  0  0  0  0  0  0  0
    3.8794    9.5497   -1.9940 H   0  0  0  0  0  0  0  0  0  0  0  0
    4.8586    8.6888   -0.8065 H   0  0  0  0  0  0  0  0  0  0  0  0
    3.1115    8.4488   -0.8490 H   0  0  0  0  0  0  0  0  0  0  0  0
    6.8370    5.6654   -0.9038 H   0  0  0  0  0  0  0  0  0  0  0  0
    5.8805    6.2543    0.4465 H   0  0  0  0  0  0  0  0  0  0  0  0
    5.0938    3.9241    0.9137 H   0  0  0  0  0  0  0  0  0  0  0  0
    6.8556    4.0209    0.9719 H   0  0  0  0  0  0  0  0  0  0  0  0
    6.0530    3.3301   -0.4408 H   0  0  0  0  0  0  0  0  0  0  0  0
    2.0410    6.3169    1.0291 H   0  0  0  0  0  0  0  0  0  0  0  0
    5.6378    3.9940   -4.3194 H   0  0  0  0  0  0  0  0  0  0  0  0
    6.4907    2.2925   -5.8869 H   0  0  0  0  0  0  0  0  0  0  0  0
    8.9379    0.7992   -9.4967 H   0  0  0  0  0  0  0  0  0  0  0  0
    8.6262   -0.7154  -10.3920 H   0  0  0  0  0  0  0  0  0  0  0  0
    9.3767   -0.5280   -7.4332 H   0  0  0  0  0  0  0  0  0  0  0  0
   10.4596   -1.0238   -8.7388 H   0  0  0  0  0  0  0  0  0  0  0  0
    9.0630   -2.0265   -8.3290 H   0  0  0  0  0  0  0  0  0  0  0  0
    4.7552   -2.4738  -11.2656 H   0  0  0  0  0  0  0  0  0  0  0  0
    0.0287   -1.8180  -10.3550 H   0  0  0  0  0  0  0  0  0  0  0  0
   -4.1265   -2.4375  -14.0864 H   0  0  0  0  0  0  0  0  0  0  0  0
   -3.8064   -1.9883  -12.3868 H   0  0  0  0  0  0  0  0  0  0  0  0
   -4.3099   -4.3162  -11.6793 H   0  0  0  0  0  0  0  0  0  0  0  0
   -5.6853   -3.6088  -12.5350 H   0  0  0  0  0  0  0  0  0  0  0  0
   -4.6370   -4.7640  -13.3647 H   0  0  0  0  0  0  0  0  0  0  0  0
   -1.7159   -5.6044  -16.4869 H   0  0  0  0  0  0  0  0  0  0  0  0
    0.6504   -6.6939  -16.8449 H   0  0  0  0  0  0  0  0  0  0  0  0
  1  2  2  0  0  0  0
  2  3  1  0  0  0  0
  3  4  2  0  0  0  0
  4  5  1  0  0  0  0
  4  6  1  0  0  0  0
  6  7  2  0  0  0  0
  7  8  1  0  0  0  0
  8  9  2  0  0  0  0
  8 10  1  0  0  0  0
 10 11  1  0  0  0  0
 11 12  2  0  0  0  0
 10 13  1  0  0  0  0
 13 14  1  0  0  0  0
  7 15  1  0  0  0  0
 15 16  2  0  0  0  0
 16 17  1  0  0  0  0
 16 18  1  0  0  0  0
 18 19  2  0  0  0  0
 19 20  1  0  0  0  0
 20 21  2  0  0  0  0
 21 22  1  0  0  0  0
 21 23  1  0  0  0  0
 23 24  2  0  0  0  0
 24 25  1  0  0  0  0
 25 26  2  0  0  0  0
 25 27  1  0  0  0  0
 27 28  1  0  0  0  0
 28 29  2  0  0  0  0
 27 30  1  0  0  0  0
 30 31  1  0  0  0  0
 24 32  1  0  0  0  0
 32 33  2  0  0  0  0
 33 34  1  0  0  0  0
 33 35  1  0  0  0  0
 35 36  2  0  0  0  0
 36 37  1  0  0  0  0
 37 38  2  0  0  0  0
 38 39  1  0  0  0  0
 38 40  1  0  0  0  0
 40 41  2  0  0  0  0
 41 42  1  0  0  0  0
 42 43  2  0  0  0  0
 42 44  1  0  0  0  0
 44 45  1  0  0  0  0
 45 46  2  0  0  0  0
 44 47  1  0  0  0  0
 47 48  1  0  0  0  0
 41 49  1  0  0  0  0
 49 50  2  0  0  0  0
 50 51  1  0  0  0  0
 50 52  1  0  0  0  0
 52 53  1  0  0  0  0
 53 54  1  0  0  0  0
 54 55  1  0  0  0  0
 55 56  2  0  0  0  0
 56 57  1  0  0  0  0
 57 58  1  0  0  0  0
 58 59  1  0  0  0  0
 57 60  1  0  0  0  0
 60 61  1  0  0  0  0
 57 62  1  0  0  0  0
 62 63  1  0  0  0  0
 56 64  1  0  0  0  0
 64 65  2  0  0  0  0
 65 66  1  0  0  0  0
 65 67  1  0  0  0  0
 67 68  2  0  0  0  0
 68 69  1  0  0  0  0
 69 70  2  0  0  0  0
 70 71  1  0  0  0  0
 70 72  1  0  0  0  0
 72 73  2  0  0  0  0
 73 74  1  0  0  0  0
 74 75  2  0  0  0  0
 74 76  1  0  0  0  0
 76 77  1  0  0  0  0
 77 78  2  0  0  0  0
 76 79  1  0  0  0  0
 79 80  1  0  0  0  0
 73 81  1  0  0  0  0
 81 82  2  0  0  0  0
 82 83  1  0  0  0  0
 82 84  1  0  0  0  0
 84 85  2  0  0  0  0
 85 86  1  0  0  0  0
 86 87  2  0  0  0  0
 87 88  1  0  0  0  0
 87 89  1  0  0  0  0
 89 90  2  0  0  0  0
 90 91  1  0  0  0  0
 91 92  2  0  0  0  0
 91 93  1  0  0  0  0
 93 94  1  0  0  0  0
 94 95  2  0  0  0  0
 93 96  1  0  0  0  0
 96 97  1  0  0  0  0
 90 98  1  0  0  0  0
 98 99  2  0  0  0  0
 99100  1  0  0  0  0
  5  1  1  0  0  0  0
 17  6  1  0  0  0  0
 22 18  1  0  0  0  0
 34 23  1  0  0  0  0
 39 35  1  0  0  0  0
 51 40  1  0  0  0  0
 63 52  2  0  0  0  0
 71 67  1  0  0  0  0
 83 72  1  0  0  0  0
 88 84  1  0  0  0  0
100 89  1  0  0  0  0
 11  3  1  0  0  0  0
 28 20  1  0  0  0  0
 45 37  1  0  0  0  0
 62 54  2  0  0  0  0
 77 69  1  0  0  0  0
 94 86  1  0  0  0  0
 66 55  1  0  0  0  0
  1101  1  0  0  0  0
  2102  1  0  0  0  0
 13103  1  0  0  0  0
 13104  1  0  0  0  0
 14105  1  0  0  0  0
 14106  1  0  0  0  0
 14107  1  0  0  0  0
 15108  1  0  0  0  0
 19109  1  0  0  0  0
 30110  1  0  0  0  0
 30111  1  0  0  0  0
 31112  1  0  0  0  0
 31113  1  0  0  0  0
 31114  1  0  0  0  0
 32115  1  0  0  0  0
 36116  1  0  0  0  0
 47117  1  0  0  0  0
 47118  1  0  0  0  0
 48119  1  0  0  0  0
 48120  1  0  0  0  0
 48121  1  0  0  0  0
 49122  1  0  0  0  0
 58123  1  0  0  0  0
 58124  1  0  0  0  0
 59125  1  0  0  0  0
 59126  1  0  0  0  0
 59127  1  0  0  0  0
 60128  1  0  0  0  0
 60129  1  0  0  0  0
 61130  1  0  0  0  0
 61131  1  0  0  0  0
 61132  1  0  0  0  0
 63133  1  0  0  0  0
 64134  1  0  0  0  0
 68135  1  0  0  0  0
 79136  1  0  0  0  0
 79137  1  0  0  0  0
 80138  1  0  0  0  0
 80139  1  0  0  0  0
 80140  1  0  0  0  0
 81141  1  0  0  0  0
 85142  1  0  0  0  0
 96143  1  0  0  0  0
 96144  1  0  0  0  0
 97145  1  0  0  0  0
 97146  1  0  0  0  0
 97147  1  0  0  0  0
 98148  1  0  0  0  0
 99149  1  0  0  0  0
M  END
