
  xtb     03022218233D
 energy: -169.677841568470 gnorm: 0.000769078517 xtb: 6.4.1 (unknown)
119131  0     0  0            999 V2000
   -5.2262   -8.0145   -6.3222 C   0  0  0  0  0  0  0  0  0  0  0  0
   -4.4592   -9.1488   -5.0710 S   0  0  0  0  0  0  0  0  0  0  0  0
   -4.0975   -7.4385   -4.4746 C   0  0  0  0  0  0  0  0  0  0  0  0
   -4.2007   -6.9642   -5.9128 C   0  0  0  0  0  0  0  0  0  0  0  0
   -4.2202   -5.5179   -5.8204 N   0  0  0  0  0  0  0  0  0  0  0  0
   -3.1703   -5.3042   -4.7997 C   0  0  0  0  0  0  0  0  0  0  0  0
   -2.9170   -6.6403   -3.9733 C   0  0  0  0  0  0  0  0  0  0  0  0
   -2.8812   -6.4333   -2.4919 C   0  0  0  0  0  0  0  0  0  0  0  0
   -2.2118   -5.4603   -1.8968 C   0  0  0  0  0  0  0  0  0  0  0  0
   -2.1759   -5.1896   -0.4366 C   0  0  0  0  0  0  0  0  0  0  0  0
   -3.3468   -6.2024    0.5994 S   0  0  0  0  0  0  0  0  0  0  0  0
   -4.2778   -4.6835    0.1286 C   0  0  0  0  0  0  0  0  0  0  0  0
   -2.9685   -3.9436    0.0123 C   0  0  0  0  0  0  0  0  0  0  0  0
   -3.3806   -2.7628   -0.7097 N   0  0  0  0  0  0  0  0  0  0  0  0
   -4.6485   -2.3985   -0.0315 C   0  0  0  0  0  0  0  0  0  0  0  0
   -5.1898   -3.6517    0.7611 C   0  0  0  0  0  0  0  0  0  0  0  0
   -5.0080   -3.4870    2.2320 C   0  0  0  0  0  0  0  0  0  0  0  0
   -5.9942   -3.2395    3.0835 C   0  0  0  0  0  0  0  0  0  0  0  0
   -5.7920   -3.0075    4.5302 C   0  0  0  0  0  0  0  0  0  0  0  0
   -6.0592   -1.1876    4.9568 S   0  0  0  0  0  0  0  0  0  0  0  0
   -4.2554   -1.3801    4.6457 C   0  0  0  0  0  0  0  0  0  0  0  0
   -4.3598   -2.8283    5.0574 C   0  0  0  0  0  0  0  0  0  0  0  0
   -3.0881   -3.3508    4.6100 N   0  0  0  0  0  0  0  0  0  0  0  0
   -2.1352   -2.2671    4.9619 C   0  0  0  0  0  0  0  0  0  0  0  0
   -2.9440   -0.9622    5.2808 C   0  0  0  0  0  0  0  0  0  0  0  0
   -2.3929    0.3091    4.7229 C   0  0  0  0  0  0  0  0  0  0  0  0
   -1.1335    0.5183    4.3332 C   0  0  0  0  0  0  0  0  0  0  0  0
   -0.6383    1.7349    3.7538 C   0  0  0  0  0  0  0  0  0  0  0  0
    0.9890    1.7487    3.1192 S   0  0  0  0  0  0  0  0  0  0  0  0
    0.8001    3.3766    2.5965 C   0  0  0  0  0  0  0  0  0  0  0  0
    1.7086    4.2109    1.8900 C   0  0  0  0  0  0  0  0  0  0  0  0
    1.2897    5.4905    1.5678 C   0  0  0  0  0  0  0  0  0  0  0  0
   -0.5424    5.7436    2.2426 Ge  0  0  0  0  0  4  0  0  0  0  0  0
   -0.6425    7.1305    3.6953 C   0  0  0  0  0  0  0  0  0  0  0  0
    0.1494    8.3858    3.3615 C   0  0  0  0  0  0  0  0  0  0  0  0
   -1.8833    5.9688    0.7658 C   0  0  0  0  0  0  0  0  0  0  0  0
   -1.7009    7.2626   -0.0120 C   0  0  0  0  0  0  0  0  0  0  0  0
   -0.4490    3.8880    2.9095 C   0  0  0  0  0  0  0  0  0  0  0  0
   -1.2549    2.9506    3.5615 C   0  0  0  0  0  0  0  0  0  0  0  0
    2.2674    6.1901    0.8508 C   0  0  0  0  0  0  0  0  0  0  0  0
    3.4054    5.4580    0.6287 C   0  0  0  0  0  0  0  0  0  0  0  0
    3.2976    3.8650    1.3207 S   0  0  0  0  0  0  0  0  0  0  0  0
    4.6007    5.8822   -0.1083 C   0  0  0  0  0  0  0  0  0  0  0  0
    4.4135    5.7530   -1.9979 S   0  0  0  0  0  0  0  0  0  0  0  0
    5.1169    4.1471   -1.4317 C   0  0  0  0  0  0  0  0  0  0  0  0
    5.7248    4.8496   -0.2418 C   0  0  0  0  0  0  0  0  0  0  0  0
    6.0524    3.7351    0.6075 N   0  0  0  0  0  0  0  0  0  0  0  0
    6.5679    2.7187   -0.3428 C   0  0  0  0  0  0  0  0  0  0  0  0
    6.2089    3.1677   -1.8033 C   0  0  0  0  0  0  0  0  0  0  0  0
    5.7649    2.0716   -2.7168 C   0  0  0  0  0  0  0  0  0  0  0  0
    6.1395    0.8021   -2.6389 C   0  0  0  0  0  0  0  0  0  0  0  0
    5.6451   -0.2459   -3.5519 C   0  0  0  0  0  0  0  0  0  0  0  0
    4.4368   -1.4132   -2.6964 S   0  0  0  0  0  0  0  0  0  0  0  0
    6.0914   -2.2149   -2.5379 C   0  0  0  0  0  0  0  0  0  0  0  0
    6.5449   -1.4711   -3.7707 C   0  0  0  0  0  0  0  0  0  0  0  0
    7.9781   -1.6086   -3.6700 N   0  0  0  0  0  0  0  0  0  0  0  0
    8.1401   -3.0243   -3.2526 C   0  0  0  0  0  0  0  0  0  0  0  0
    6.7603   -3.5626   -2.7256 C   0  0  0  0  0  0  0  0  0  0  0  0
    6.1060   -4.5069   -3.6917 C   0  0  0  0  0  0  0  0  0  0  0  0
    4.8094   -4.5868   -3.9233 C   0  0  0  0  0  0  0  0  0  0  0  0
   -6.2509   -7.7897   -6.0318 H   0  0  0  0  0  0  0  0  0  0  0  0
   -5.1809   -8.3811   -7.3425 H   0  0  0  0  0  0  0  0  0  0  0  0
   -4.9906   -7.1568   -3.9049 H   0  0  0  0  0  0  0  0  0  0  0  0
   -3.2664   -7.2166   -6.4314 H   0  0  0  0  0  0  0  0  0  0  0  0
   -5.1203   -5.2031   -5.4662 H   0  0  0  0  0  0  0  0  0  0  0  0
   -2.2562   -5.0229   -5.3260 H   0  0  0  0  0  0  0  0  0  0  0  0
   -3.4516   -4.4894   -4.1339 H   0  0  0  0  0  0  0  0  0  0  0  0
   -1.9754   -7.0897   -4.3034 H   0  0  0  0  0  0  0  0  0  0  0  0
   -3.4337   -7.1492   -1.8970 H   0  0  0  0  0  0  0  0  0  0  0  0
   -1.6409   -4.7437   -2.4742 H   0  0  0  0  0  0  0  0  0  0  0  0
   -1.1548   -5.2326   -0.0540 H   0  0  0  0  0  0  0  0  0  0  0  0
   -4.6556   -4.9046   -0.8735 H   0  0  0  0  0  0  0  0  0  0  0  0
   -2.5855   -3.6957    1.0170 H   0  0  0  0  0  0  0  0  0  0  0  0
   -2.7108   -2.0020   -0.6678 H   0  0  0  0  0  0  0  0  0  0  0  0
   -5.3666   -2.0992   -0.7982 H   0  0  0  0  0  0  0  0  0  0  0  0
   -4.5163   -1.5610    0.6618 H   0  0  0  0  0  0  0  0  0  0  0  0
   -6.2441   -3.8186    0.5317 H   0  0  0  0  0  0  0  0  0  0  0  0
   -4.0006   -3.5800    2.6121 H   0  0  0  0  0  0  0  0  0  0  0  0
   -7.0195   -3.1534    2.7450 H   0  0  0  0  0  0  0  0  0  0  0  0
   -6.4401   -3.6372    5.1402 H   0  0  0  0  0  0  0  0  0  0  0  0
   -4.1554   -1.2988    3.5604 H   0  0  0  0  0  0  0  0  0  0  0  0
   -4.4466   -2.8767    6.1594 H   0  0  0  0  0  0  0  0  0  0  0  0
   -2.8327   -4.2317    5.0426 H   0  0  0  0  0  0  0  0  0  0  0  0
   -1.5014   -2.5378    5.8108 H   0  0  0  0  0  0  0  0  0  0  0  0
   -1.4971   -2.1059    4.0896 H   0  0  0  0  0  0  0  0  0  0  0  0
   -3.0658   -0.8578    6.3659 H   0  0  0  0  0  0  0  0  0  0  0  0
   -3.1224    1.1034    4.6428 H   0  0  0  0  0  0  0  0  0  0  0  0
   -0.3973   -0.2689    4.4232 H   0  0  0  0  0  0  0  0  0  0  0  0
   -1.6896    7.3786    3.8666 H   0  0  0  0  0  0  0  0  0  0  0  0
   -0.2588    6.6838    4.6122 H   0  0  0  0  0  0  0  0  0  0  0  0
    1.1972    8.1411    3.2006 H   0  0  0  0  0  0  0  0  0  0  0  0
   -0.2310    8.8574    2.4584 H   0  0  0  0  0  0  0  0  0  0  0  0
    0.0852    9.1058    4.1759 H   0  0  0  0  0  0  0  0  0  0  0  0
   -2.8832    5.9264    1.1980 H   0  0  0  0  0  0  0  0  0  0  0  0
   -1.7804    5.1141    0.0970 H   0  0  0  0  0  0  0  0  0  0  0  0
   -1.8468    8.1256    0.6343 H   0  0  0  0  0  0  0  0  0  0  0  0
   -2.4205    7.3234   -0.8269 H   0  0  0  0  0  0  0  0  0  0  0  0
   -0.6999    7.3147   -0.4348 H   0  0  0  0  0  0  0  0  0  0  0  0
   -2.2601    3.1559    3.8849 H   0  0  0  0  0  0  0  0  0  0  0  0
    2.1487    7.1977    0.4899 H   0  0  0  0  0  0  0  0  0  0  0  0
    4.9087    6.8938    0.1571 H   0  0  0  0  0  0  0  0  0  0  0  0
    4.2444    3.5656   -1.1234 H   0  0  0  0  0  0  0  0  0  0  0  0
    6.6214    5.4095   -0.5678 H   0  0  0  0  0  0  0  0  0  0  0  0
    6.7178    3.9452    1.3423 H   0  0  0  0  0  0  0  0  0  0  0  0
    6.0646    1.7756   -0.1162 H   0  0  0  0  0  0  0  0  0  0  0  0
    7.6472    2.5767   -0.2401 H   0  0  0  0  0  0  0  0  0  0  0  0
    7.0605    3.6910   -2.2541 H   0  0  0  0  0  0  0  0  0  0  0  0
    5.0858    2.3867   -3.4993 H   0  0  0  0  0  0  0  0  0  0  0  0
    6.8281    0.4728   -1.8750 H   0  0  0  0  0  0  0  0  0  0  0  0
    5.1958    0.1718   -4.4520 H   0  0  0  0  0  0  0  0  0  0  0  0
    6.5193   -1.7565   -1.6435 H   0  0  0  0  0  0  0  0  0  0  0  0
    6.1432   -1.9869   -4.6624 H   0  0  0  0  0  0  0  0  0  0  0  0
    8.4710   -1.4186   -4.5357 H   0  0  0  0  0  0  0  0  0  0  0  0
    8.4921   -3.6517   -4.0774 H   0  0  0  0  0  0  0  0  0  0  0  0
    8.8902   -3.0510   -2.4579 H   0  0  0  0  0  0  0  0  0  0  0  0
    6.9046   -4.0895   -1.7769 H   0  0  0  0  0  0  0  0  0  0  0  0
    6.7896   -5.1840   -4.1903 H   0  0  0  0  0  0  0  0  0  0  0  0
    4.0991   -3.9369   -3.4413 H   0  0  0  0  0  0  0  0  0  0  0  0
    4.4073   -5.3039   -4.6187 H   0  0  0  0  0  0  0  0  0  0  0  0
  1  2  1  0  0  0  0
  2  3  1  0  0  0  0
  3  4  1  0  0  0  0
  4  5  1  0  0  0  0
  5  6  1  0  0  0  0
  6  7  1  0  0  0  0
  7  8  1  0  0  0  0
  8  9  2  0  0  0  0
  9 10  1  0  0  0  0
 10 11  1  0  0  0  0
 11 12  1  0  0  0  0
 12 13  1  0  0  0  0
 13 14  1  0  0  0  0
 14 15  1  0  0  0  0
 15 16  1  0  0  0  0
 16 17  1  0  0  0  0
 17 18  2  0  0  0  0
 18 19  1  0  0  0  0
 19 20  1  0  0  0  0
 20 21  1  0  0  0  0
 21 22  1  0  0  0  0
 22 23  1  0  0  0  0
 23 24  1  0  0  0  0
 24 25  1  0  0  0  0
 25 26  1  0  0  0  0
 26 27  2  0  0  0  0
 27 28  1  0  0  0  0
 28 29  1  0  0  0  0
 29 30  1  0  0  0  0
 30 31  1  0  0  0  0
 31 32  2  0  0  0  0
 32 33  1  0  0  0  0
 33 34  1  0  0  0  0
 34 35  1  0  0  0  0
 33 36  1  0  0  0  0
 36 37  1  0  0  0  0
 33 38  1  0  0  0  0
 38 39  1  0  0  0  0
 32 40  1  0  0  0  0
 40 41  2  0  0  0  0
 41 42  1  0  0  0  0
 41 43  1  0  0  0  0
 43 44  1  0  0  0  0
 44 45  1  0  0  0  0
 45 46  1  0  0  0  0
 46 47  1  0  0  0  0
 47 48  1  0  0  0  0
 48 49  1  0  0  0  0
 49 50  1  0  0  0  0
 50 51  2  0  0  0  0
 51 52  1  0  0  0  0
 52 53  1  0  0  0  0
 53 54  1  0  0  0  0
 54 55  1  0  0  0  0
 55 56  1  0  0  0  0
 56 57  1  0  0  0  0
 57 58  1  0  0  0  0
 58 59  1  0  0  0  0
 59 60  2  0  0  0  0
  4  1  1  0  0  0  0
 13 10  1  0  0  0  0
 22 19  1  0  0  0  0
 39 28  2  0  0  0  0
 46 43  1  0  0  0  0
 55 52  1  0  0  0  0
  7  3  1  0  0  0  0
 16 12  1  0  0  0  0
 25 21  1  0  0  0  0
 38 30  2  0  0  0  0
 49 45  1  0  0  0  0
 58 54  1  0  0  0  0
 42 31  1  0  0  0  0
  1 61  1  0  0  0  0
  1 62  1  0  0  0  0
  3 63  1  0  0  0  0
  4 64  1  0  0  0  0
  5 65  1  0  0  0  0
  6 66  1  0  0  0  0
  6 67  1  0  0  0  0
  7 68  1  0  0  0  0
  8 69  1  0  0  0  0
  9 70  1  0  0  0  0
 10 71  1  0  0  0  0
 12 72  1  0  0  0  0
 13 73  1  0  0  0  0
 14 74  1  0  0  0  0
 15 75  1  0  0  0  0
 15 76  1  0  0  0  0
 16 77  1  0  0  0  0
 17 78  1  0  0  0  0
 18 79  1  0  0  0  0
 19 80  1  0  0  0  0
 21 81  1  0  0  0  0
 22 82  1  0  0  0  0
 23 83  1  0  0  0  0
 24 84  1  0  0  0  0
 24 85  1  0  0  0  0
 25 86  1  0  0  0  0
 26 87  1  0  0  0  0
 27 88  1  0  0  0  0
 34 89  1  0  0  0  0
 34 90  1  0  0  0  0
 35 91  1  0  0  0  0
 35 92  1  0  0  0  0
 35 93  1  0  0  0  0
 36 94  1  0  0  0  0
 36 95  1  0  0  0  0
 37 96  1  0  0  0  0
 37 97  1  0  0  0  0
 37 98  1  0  0  0  0
 39 99  1  0  0  0  0
 40100  1  0  0  0  0
 43101  1  0  0  0  0
 45102  1  0  0  0  0
 46103  1  0  0  0  0
 47104  1  0  0  0  0
 48105  1  0  0  0  0
 48106  1  0  0  0  0
 49107  1  0  0  0  0
 50108  1  0  0  0  0
 51109  1  0  0  0  0
 52110  1  0  0  0  0
 54111  1  0  0  0  0
 55112  1  0  0  0  0
 56113  1  0  0  0  0
 57114  1  0  0  0  0
 57115  1  0  0  0  0
 58116  1  0  0  0  0
 59117  1  0  0  0  0
 60118  1  0  0  0  0
 60119  1  0  0  0  0
M  END
