119

C         -5.22620       -8.01450       -6.32220
S         -4.45920       -9.14880       -5.07100
C         -4.09750       -7.43850       -4.47460
C         -4.20070       -6.96420       -5.91280
N         -4.22020       -5.51790       -5.82040
C         -3.17030       -5.30420       -4.79970
C         -2.91700       -6.64030       -3.97330
C         -2.88120       -6.43330       -2.49190
C         -2.21180       -5.46030       -1.89680
C         -2.17590       -5.18960       -0.43660
S         -3.34680       -6.20240        0.59940
C         -4.27780       -4.68350        0.12860
C         -2.96850       -3.94360        0.01230
N         -3.38060       -2.76280       -0.70970
C         -4.64850       -2.39850       -0.03150
C         -5.18980       -3.65170        0.76110
C         -5.00800       -3.48700        2.23200
C         -5.99420       -3.23950        3.08350
C         -5.79200       -3.00750        4.53020
S         -6.05920       -1.18760        4.95680
C         -4.25540       -1.38010        4.64570
C         -4.35980       -2.82830        5.05740
N         -3.08810       -3.35080        4.61000
C         -2.13520       -2.26710        4.96190
C         -2.94400       -0.96220        5.28080
C         -2.39290        0.30910        4.72290
C         -1.13350        0.51830        4.33320
C         -0.63830        1.73490        3.75380
S          0.98900        1.74870        3.11920
C          0.80010        3.37660        2.59650
C          1.70860        4.21090        1.89000
C          1.28970        5.49050        1.56780
Ge        -0.54240        5.74360        2.24260
C         -0.64250        7.13050        3.69530
C          0.14940        8.38580        3.36150
C         -1.88330        5.96880        0.76580
C         -1.70090        7.26260       -0.01200
C         -0.44900        3.88800        2.90950
C         -1.25490        2.95060        3.56150
C          2.26740        6.19010        0.85080
C          3.40540        5.45800        0.62870
S          3.29760        3.86500        1.32070
C          4.60070        5.88220       -0.10830
S          4.41350        5.75300       -1.99790
C          5.11690        4.14710       -1.43170
C          5.72480        4.84960       -0.24180
N          6.05240        3.73510        0.60750
C          6.56790        2.71870       -0.34280
C          6.20890        3.16770       -1.80330
C          5.76490        2.07160       -2.71680
C          6.13950        0.80210       -2.63890
C          5.64510       -0.24590       -3.55190
S          4.43680       -1.41320       -2.69640
C          6.09140       -2.21490       -2.53790
C          6.54490       -1.47110       -3.77070
N          7.97810       -1.60860       -3.67000
C          8.14010       -3.02430       -3.25260
C          6.76030       -3.56260       -2.72560
C          6.10600       -4.50690       -3.69170
C          4.80940       -4.58680       -3.92330
H         -6.25090       -7.78970       -6.03180
H         -5.18090       -8.38110       -7.34250
H         -4.99060       -7.15680       -3.90490
H         -3.26640       -7.21660       -6.43140
H         -5.12030       -5.20310       -5.46620
H         -2.25620       -5.02290       -5.32600
H         -3.45160       -4.48940       -4.13390
H         -1.97540       -7.08970       -4.30340
H         -3.43370       -7.14920       -1.89700
H         -1.64090       -4.74370       -2.47420
H         -1.15480       -5.23260       -0.05400
H         -4.65560       -4.90460       -0.87350
H         -2.58550       -3.69570        1.01700
H         -2.71080       -2.00200       -0.66780
H         -5.36660       -2.09920       -0.79820
H         -4.51630       -1.56100        0.66180
H         -6.24410       -3.81860        0.53170
H         -4.00060       -3.58000        2.61210
H         -7.01950       -3.15340        2.74500
H         -6.44010       -3.63720        5.14020
H         -4.15540       -1.29880        3.56040
H         -4.44660       -2.87670        6.15940
H         -2.83270       -4.23170        5.04260
H         -1.50140       -2.53780        5.81080
H         -1.49710       -2.10590        4.08960
H         -3.06580       -0.85780        6.36590
H         -3.12240        1.10340        4.64280
H         -0.39730       -0.26890        4.42320
H         -1.68960        7.37860        3.86660
H         -0.25880        6.68380        4.61220
H          1.19720        8.14110        3.20060
H         -0.23100        8.85740        2.45840
H          0.08520        9.10580        4.17590
H         -2.88320        5.92640        1.19800
H         -1.78040        5.11410        0.09700
H         -1.84680        8.12560        0.63430
H         -2.42050        7.32340       -0.82690
H         -0.69990        7.31470       -0.43480
H         -2.26010        3.15590        3.88490
H          2.14870        7.19770        0.48990
H          4.90870        6.89380        0.15710
H          4.24440        3.56560       -1.12340
H          6.62140        5.40950       -0.56780
H          6.71780        3.94520        1.34230
H          6.06460        1.77560       -0.11620
H          7.64720        2.57670       -0.24010
H          7.06050        3.69100       -2.25410
H          5.08580        2.38670       -3.49930
H          6.82810        0.47280       -1.87500
H          5.19580        0.17180       -4.45200
H          6.51930       -1.75650       -1.64350
H          6.14320       -1.98690       -4.66240
H          8.47100       -1.41860       -4.53570
H          8.49210       -3.65170       -4.07740
H          8.89020       -3.05100       -2.45790
H          6.90460       -4.08950       -1.77690
H          6.78960       -5.18400       -4.19030
H          4.09910       -3.93690       -3.44130
H          4.40730       -5.30390       -4.61870
