
  xtb     03022219473D
 energy: -330.855339024273 gnorm: 0.000470807868 xtb: 6.4.1 (unknown)
194215  0     0  0            999 V2000
   10.8240   -5.2736   11.9546 C   0  0  0  0  0  0  0  0  0  0  0  0
   10.5446   -4.7514   10.7434 C   0  0  0  0  0  0  0  0  0  0  0  0
    9.4601   -5.4103   10.0939 C   0  0  0  0  0  0  0  0  0  0  0  0
    8.9298   -5.1654    8.8172 C   0  0  0  0  0  0  0  0  0  0  0  0
    9.4037   -4.0591    8.0014 C   0  0  0  0  0  0  0  0  0  0  0  0
    9.9602   -4.3073    6.3738 S   0  0  0  0  0  0  0  0  0  0  0  0
   10.3107   -2.6269    6.1549 C   0  0  0  0  0  0  0  0  0  0  0  0
   10.8153   -2.1115    4.8526 C   0  0  0  0  0  0  0  0  0  0  0  0
    9.6648   -1.9188    3.8617 C   0  0  0  0  0  0  0  0  0  0  0  0
    9.9962   -1.9263    7.2808 C   0  0  0  0  0  0  0  0  0  0  0  0
   10.1948   -0.2288    7.4400 Cl  0  0  0  0  0  0  0  0  0  0  0  0
    9.4879   -2.7355    8.3324 C   0  0  0  0  0  0  0  0  0  0  0  0
    8.9651   -2.0841    9.8322 Cl  0  0  0  0  0  0  0  0  0  0  0  0
    7.9425   -6.0302    8.3668 C   0  0  0  0  0  0  0  0  0  0  0  0
    7.4407   -7.1037    9.1429 C   0  0  0  0  0  0  0  0  0  0  0  0
    7.9359   -7.3173   10.4404 C   0  0  0  0  0  0  0  0  0  0  0  0
    7.4328   -8.3909   11.2815 C   0  0  0  0  0  0  0  0  0  0  0  0
    7.4265  -10.0438   10.7385 S   0  0  0  0  0  0  0  0  0  0  0  0
    6.7733  -10.6184   12.2355 C   0  0  0  0  0  0  0  0  0  0  0  0
    6.4501  -12.0581   12.4363 C   0  0  0  0  0  0  0  0  0  0  0  0
    5.0759  -12.3964   11.8532 C   0  0  0  0  0  0  0  0  0  0  0  0
    6.5657   -9.5774   13.0892 C   0  0  0  0  0  0  0  0  0  0  0  0
    6.9441   -8.3154   12.5558 C   0  0  0  0  0  0  0  0  0  0  0  0
    6.7183   -6.8504   13.4159 Cl  0  0  0  0  0  0  0  0  0  0  0  0
    5.9150   -9.7501   14.6674 Cl  0  0  0  0  0  0  0  0  0  0  0  0
    8.9442   -6.4667   10.8808 C   0  0  0  0  0  0  0  0  0  0  0  0
    9.7974   -6.5948   12.3930 S   0  0  0  0  0  0  0  0  0  0  0  0
    6.4278   -7.8210    8.4610 C   0  0  0  0  0  0  0  0  0  0  0  0
    6.1548   -7.3320    7.2148 C   0  0  0  0  0  0  0  0  0  0  0  0
    7.1385   -5.9337    6.8268 S   0  0  0  0  0  0  0  0  0  0  0  0
    5.2261   -7.8445    6.2647 C   0  0  0  0  0  0  0  0  0  0  0  0
    4.8118   -6.9378    4.8327 S   0  0  0  0  0  0  0  0  0  0  0  0
    3.7760   -8.2079    4.3049 C   0  0  0  0  0  0  0  0  0  0  0  0
    2.9995   -8.3124    3.1238 C   0  0  0  0  0  0  0  0  0  0  0  0
    2.3052   -9.4951    2.9081 C   0  0  0  0  0  0  0  0  0  0  0  0
    2.6057  -10.6930    4.4431 Ge  0  0  0  0  0  4  0  0  0  0  0  0
    0.9410  -11.0434    5.5104 C   0  0  0  0  0  0  0  0  0  0  0  0
   -0.0889  -11.8532    4.7386 C   0  0  0  0  0  0  0  0  0  0  0  0
    3.6411  -12.3378    3.9469 C   0  0  0  0  0  0  0  0  0  0  0  0
    4.9074  -11.9974    3.1770 C   0  0  0  0  0  0  0  0  0  0  0  0
    3.7550   -9.2779    5.1908 C   0  0  0  0  0  0  0  0  0  0  0  0
    4.5725   -9.0605    6.2972 C   0  0  0  0  0  0  0  0  0  0  0  0
    1.6057   -9.4828    1.7030 C   0  0  0  0  0  0  0  0  0  0  0  0
    1.7422   -8.3005    1.0010 C   0  0  0  0  0  0  0  0  0  0  0  0
    2.7702   -7.1740    1.8491 S   0  0  0  0  0  0  0  0  0  0  0  0
    1.1610   -7.9683   -0.2543 C   0  0  0  0  0  0  0  0  0  0  0  0
    1.0530   -6.3103   -0.7917 S   0  0  0  0  0  0  0  0  0  0  0  0
    0.2765   -6.8110   -2.2470 C   0  0  0  0  0  0  0  0  0  0  0  0
   -0.2157   -6.0354   -3.3260 C   0  0  0  0  0  0  0  0  0  0  0  0
   -0.7764   -6.7085   -4.4034 C   0  0  0  0  0  0  0  0  0  0  0  0
   -0.7378   -8.6413   -4.0300 Ge  0  0  0  0  0  4  0  0  0  0  0  0
   -2.5848   -9.3909   -3.8038 C   0  0  0  0  0  0  0  0  0  0  0  0
   -3.4144   -8.5631   -2.8349 C   0  0  0  0  0  0  0  0  0  0  0  0
    0.4365   -9.6868   -5.2796 C   0  0  0  0  0  0  0  0  0  0  0  0
   -0.0628   -9.6488   -6.7154 C   0  0  0  0  0  0  0  0  0  0  0  0
    0.1246   -8.1897   -2.3172 C   0  0  0  0  0  0  0  0  0  0  0  0
    0.6185   -8.8333   -1.1846 C   0  0  0  0  0  0  0  0  0  0  0  0
   -1.2504   -5.8368   -5.3809 C   0  0  0  0  0  0  0  0  0  0  0  0
   -1.0709   -4.5037   -5.0628 C   0  0  0  0  0  0  0  0  0  0  0  0
   -0.2781   -4.3229   -3.5178 S   0  0  0  0  0  0  0  0  0  0  0  0
   -1.4843   -3.3721   -5.8175 C   0  0  0  0  0  0  0  0  0  0  0  0
   -1.5177   -1.7771   -5.1079 S   0  0  0  0  0  0  0  0  0  0  0  0
   -2.1633   -1.1199   -6.5652 C   0  0  0  0  0  0  0  0  0  0  0  0
   -2.5717    0.2041   -6.8589 C   0  0  0  0  0  0  0  0  0  0  0  0
   -3.0932    0.4596   -8.1211 C   0  0  0  0  0  0  0  0  0  0  0  0
   -3.0644   -1.2158   -9.1594 Ge  0  0  0  0  0  4  0  0  0  0  0  0
   -1.7575   -1.2060  -10.6874 C   0  0  0  0  0  0  0  0  0  0  0  0
   -1.0870   -2.5556  -10.8961 C   0  0  0  0  0  0  0  0  0  0  0  0
   -4.9071   -1.8646   -9.6247 C   0  0  0  0  0  0  0  0  0  0  0  0
   -4.9242   -3.2889  -10.1566 C   0  0  0  0  0  0  0  0  0  0  0  0
   -2.3254   -2.0825   -7.5534 C   0  0  0  0  0  0  0  0  0  0  0  0
   -1.9420   -3.3501   -7.1216 C   0  0  0  0  0  0  0  0  0  0  0  0
   -3.5090    1.7811   -8.2627 C   0  0  0  0  0  0  0  0  0  0  0  0
   -3.3181    2.5431   -7.1249 C   0  0  0  0  0  0  0  0  0  0  0  0
   -2.5868    1.6008   -5.8492 S   0  0  0  0  0  0  0  0  0  0  0  0
   -3.6810    3.9007   -6.9154 C   0  0  0  0  0  0  0  0  0  0  0  0
   -3.3819    4.6856   -5.3855 S   0  0  0  0  0  0  0  0  0  0  0  0
   -4.1329    6.1292   -5.9557 C   0  0  0  0  0  0  0  0  0  0  0  0
   -4.3691    7.3542   -5.2847 C   0  0  0  0  0  0  0  0  0  0  0  0
   -5.0453    8.3525   -5.9743 C   0  0  0  0  0  0  0  0  0  0  0  0
   -5.4631    7.6955   -7.7844 Ge  0  0  0  0  0  4  0  0  0  0  0  0
   -7.4310    7.4491   -8.0835 C   0  0  0  0  0  0  0  0  0  0  0  0
   -8.0931    6.7270   -6.9205 C   0  0  0  0  0  0  0  0  0  0  0  0
   -4.5056    8.6801   -9.2488 C   0  0  0  0  0  0  0  0  0  0  0  0
   -4.5265    7.9249  -10.5686 C   0  0  0  0  0  0  0  0  0  0  0  0
   -4.5819    6.0107   -7.2644 C   0  0  0  0  0  0  0  0  0  0  0  0
   -4.3215    4.7511   -7.7983 C   0  0  0  0  0  0  0  0  0  0  0  0
   -5.2400    9.4897   -5.1934 C   0  0  0  0  0  0  0  0  0  0  0  0
   -4.7168    9.3779   -3.9223 C   0  0  0  0  0  0  0  0  0  0  0  0
   -3.9605    7.8220   -3.6769 S   0  0  0  0  0  0  0  0  0  0  0  0
   -4.7472   10.3367   -2.8739 C   0  0  0  0  0  0  0  0  0  0  0  0
   -4.1510   10.2594   -1.6488 C   0  0  0  0  0  0  0  0  0  0  0  0
   -4.3953   11.3852   -0.8256 C   0  0  0  0  0  0  0  0  0  0  0  0
   -3.9500   11.6152    0.4860 C   0  0  0  0  0  0  0  0  0  0  0  0
   -3.1147   10.6510    1.1839 C   0  0  0  0  0  0  0  0  0  0  0  0
   -3.6061    8.9937    1.3788 S   0  0  0  0  0  0  0  0  0  0  0  0
   -2.1745    8.5894    2.2628 C   0  0  0  0  0  0  0  0  0  0  0  0
   -1.9657    7.2222    2.8139 C   0  0  0  0  0  0  0  0  0  0  0  0
   -2.6170    7.0836    4.1921 C   0  0  0  0  0  0  0  0  0  0  0  0
   -1.3768    9.6858    2.3968 C   0  0  0  0  0  0  0  0  0  0  0  0
    0.1328    9.6755    3.2125 Cl  0  0  0  0  0  0  0  0  0  0  0  0
   -1.9036   10.8545    1.7842 C   0  0  0  0  0  0  0  0  0  0  0  0
   -1.0448   12.3369    1.7428 Cl  0  0  0  0  0  0  0  0  0  0  0  0
   -4.3560   12.7982    1.0934 C   0  0  0  0  0  0  0  0  0  0  0  0
   -5.1669   13.7587    0.4450 C   0  0  0  0  0  0  0  0  0  0  0  0
   -5.5856   13.5439   -0.8779 C   0  0  0  0  0  0  0  0  0  0  0  0
   -6.4208   14.5073   -1.5794 C   0  0  0  0  0  0  0  0  0  0  0  0
   -7.9510   15.0177   -0.9295 S   0  0  0  0  0  0  0  0  0  0  0  0
   -8.2813   16.0346   -2.2911 C   0  0  0  0  0  0  0  0  0  0  0  0
   -9.5146   16.8666   -2.3516 C   0  0  0  0  0  0  0  0  0  0  0  0
   -9.3417   18.1615   -1.5541 C   0  0  0  0  0  0  0  0  0  0  0  0
   -7.2517   15.9789   -3.1813 C   0  0  0  0  0  0  0  0  0  0  0  0
   -6.1992   15.1092   -2.7857 C   0  0  0  0  0  0  0  0  0  0  0  0
   -4.7699   14.9148   -3.7110 Cl  0  0  0  0  0  0  0  0  0  0  0  0
   -7.2098   16.8620   -4.6520 Cl  0  0  0  0  0  0  0  0  0  0  0  0
   -5.1924   12.3570   -1.4805 C   0  0  0  0  0  0  0  0  0  0  0  0
   -5.6395   11.8331   -3.0791 S   0  0  0  0  0  0  0  0  0  0  0  0
   -5.4468   14.8690    1.2937 C   0  0  0  0  0  0  0  0  0  0  0  0
   -4.9035   14.7387    2.5212 C   0  0  0  0  0  0  0  0  0  0  0  0
   -4.0050   13.2765    2.7299 S   0  0  0  0  0  0  0  0  0  0  0  0
   11.5852   -4.9670   12.6450 H   0  0  0  0  0  0  0  0  0  0  0  0
   11.0914   -3.9372   10.3050 H   0  0  0  0  0  0  0  0  0  0  0  0
   11.3176   -1.1576    5.0236 H   0  0  0  0  0  0  0  0  0  0  0  0
   11.5364   -2.8183    4.4377 H   0  0  0  0  0  0  0  0  0  0  0  0
   10.0462   -1.5491    2.9137 H   0  0  0  0  0  0  0  0  0  0  0  0
    9.1537   -2.8631    3.6899 H   0  0  0  0  0  0  0  0  0  0  0  0
    8.9471   -1.2019    4.2523 H   0  0  0  0  0  0  0  0  0  0  0  0
    7.2112  -12.6725   11.9522 H   0  0  0  0  0  0  0  0  0  0  0  0
    6.4558  -12.2708   13.5067 H   0  0  0  0  0  0  0  0  0  0  0  0
    5.0603  -12.1950   10.7847 H   0  0  0  0  0  0  0  0  0  0  0  0
    4.8498  -13.4469   12.0141 H   0  0  0  0  0  0  0  0  0  0  0  0
    4.3062  -11.7965   12.3321 H   0  0  0  0  0  0  0  0  0  0  0  0
    5.9118   -8.6614    8.8856 H   0  0  0  0  0  0  0  0  0  0  0  0
    0.5215  -10.0794    5.7970 H   0  0  0  0  0  0  0  0  0  0  0  0
    1.2200  -11.5633    6.4267 H   0  0  0  0  0  0  0  0  0  0  0  0
   -0.9848  -12.0039    5.3384 H   0  0  0  0  0  0  0  0  0  0  0  0
    0.3103  -12.8293    4.4703 H   0  0  0  0  0  0  0  0  0  0  0  0
   -0.3718  -11.3363    3.8241 H   0  0  0  0  0  0  0  0  0  0  0  0
    3.8874  -12.8800    4.8597 H   0  0  0  0  0  0  0  0  0  0  0  0
    2.9990  -12.9836    3.3482 H   0  0  0  0  0  0  0  0  0  0  0  0
    5.4511  -12.9022    2.9109 H   0  0  0  0  0  0  0  0  0  0  0  0
    5.5612  -11.3667    3.7764 H   0  0  0  0  0  0  0  0  0  0  0  0
    4.6649  -11.4597    2.2622 H   0  0  0  0  0  0  0  0  0  0  0  0
    4.7045   -9.7711    7.0938 H   0  0  0  0  0  0  0  0  0  0  0  0
    1.0025  -10.3009    1.3505 H   0  0  0  0  0  0  0  0  0  0  0  0
   -2.5017  -10.4182   -3.4491 H   0  0  0  0  0  0  0  0  0  0  0  0
   -3.0680   -9.4225   -4.7800 H   0  0  0  0  0  0  0  0  0  0  0  0
   -4.4147   -8.9799   -2.7298 H   0  0  0  0  0  0  0  0  0  0  0  0
   -2.9455   -8.5409   -1.8530 H   0  0  0  0  0  0  0  0  0  0  0  0
   -3.5042   -7.5379   -3.1891 H   0  0  0  0  0  0  0  0  0  0  0  0
    1.4413   -9.2691   -5.2214 H   0  0  0  0  0  0  0  0  0  0  0  0
    0.4899  -10.7162   -4.9260 H   0  0  0  0  0  0  0  0  0  0  0  0
   -0.1076   -8.6229   -7.0746 H   0  0  0  0  0  0  0  0  0  0  0  0
   -1.0589  -10.0807   -6.7890 H   0  0  0  0  0  0  0  0  0  0  0  0
    0.6025  -10.2121   -7.3676 H   0  0  0  0  0  0  0  0  0  0  0  0
    0.6003   -9.9000   -1.0465 H   0  0  0  0  0  0  0  0  0  0  0  0
   -1.7332   -6.1590   -6.2867 H   0  0  0  0  0  0  0  0  0  0  0  0
   -1.0038   -0.4480  -10.4750 H   0  0  0  0  0  0  0  0  0  0  0  0
   -2.2822   -0.9000  -11.5921 H   0  0  0  0  0  0  0  0  0  0  0  0
   -0.5533   -2.8567   -9.9972 H   0  0  0  0  0  0  0  0  0  0  0  0
   -0.3745   -2.5042  -11.7179 H   0  0  0  0  0  0  0  0  0  0  0  0
   -1.8210   -3.3238  -11.1287 H   0  0  0  0  0  0  0  0  0  0  0  0
   -5.3357   -1.1838  -10.3602 H   0  0  0  0  0  0  0  0  0  0  0  0
   -5.5156   -1.7948   -8.7229 H   0  0  0  0  0  0  0  0  0  0  0  0
   -4.4826   -3.9713   -9.4335 H   0  0  0  0  0  0  0  0  0  0  0  0
   -4.3614   -3.3605  -11.0849 H   0  0  0  0  0  0  0  0  0  0  0  0
   -5.9454   -3.6117  -10.3530 H   0  0  0  0  0  0  0  0  0  0  0  0
   -1.9883   -4.2320   -7.7361 H   0  0  0  0  0  0  0  0  0  0  0  0
   -3.9450    2.1757   -9.1632 H   0  0  0  0  0  0  0  0  0  0  0  0
   -7.8839    8.4299   -8.2271 H   0  0  0  0  0  0  0  0  0  0  0  0
   -7.5734    6.8863   -9.0058 H   0  0  0  0  0  0  0  0  0  0  0  0
   -9.1588    6.5999   -7.1029 H   0  0  0  0  0  0  0  0  0  0  0  0
   -7.9668    7.2914   -5.9985 H   0  0  0  0  0  0  0  0  0  0  0  0
   -7.6484    5.7436   -6.7784 H   0  0  0  0  0  0  0  0  0  0  0  0
   -3.4776    8.8415   -8.9253 H   0  0  0  0  0  0  0  0  0  0  0  0
   -4.9684    9.6594   -9.3667 H   0  0  0  0  0  0  0  0  0  0  0  0
   -5.5485    7.7737  -10.9103 H   0  0  0  0  0  0  0  0  0  0  0  0
   -3.9888    8.4797  -11.3355 H   0  0  0  0  0  0  0  0  0  0  0  0
   -4.0556    6.9506  -10.4565 H   0  0  0  0  0  0  0  0  0  0  0  0
   -4.5980    4.4550   -8.7948 H   0  0  0  0  0  0  0  0  0  0  0  0
   -5.7454   10.3792   -5.5292 H   0  0  0  0  0  0  0  0  0  0  0  0
   -3.5540    9.4168   -1.3507 H   0  0  0  0  0  0  0  0  0  0  0  0
   -2.3958    6.4868    2.1320 H   0  0  0  0  0  0  0  0  0  0  0  0
   -0.8928    7.0385    2.8972 H   0  0  0  0  0  0  0  0  0  0  0  0
   -3.6880    7.2579    4.1224 H   0  0  0  0  0  0  0  0  0  0  0  0
   -2.1914    7.8061    4.8838 H   0  0  0  0  0  0  0  0  0  0  0  0
   -2.4500    6.0843    4.5848 H   0  0  0  0  0  0  0  0  0  0  0  0
   -9.7237   17.1046   -3.3960 H   0  0  0  0  0  0  0  0  0  0  0  0
  -10.3549   16.3005   -1.9457 H   0  0  0  0  0  0  0  0  0  0  0  0
   -9.1424   17.9365   -0.5090 H   0  0  0  0  0  0  0  0  0  0  0  0
  -10.2454   18.7619   -1.6158 H   0  0  0  0  0  0  0  0  0  0  0  0
   -8.5112   18.7401   -1.9506 H   0  0  0  0  0  0  0  0  0  0  0  0
   -6.0293   15.7182    0.9871 H   0  0  0  0  0  0  0  0  0  0  0  0
   -4.9636   15.4237    3.3442 H   0  0  0  0  0  0  0  0  0  0  0  0
  1  2  2  0  0  0  0
  2  3  1  0  0  0  0
  3  4  2  0  0  0  0
  4  5  1  0  0  0  0
  5  6  1  0  0  0  0
  6  7  1  0  0  0  0
  7  8  1  0  0  0  0
  8  9  1  0  0  0  0
  7 10  2  0  0  0  0
 10 11  1  0  0  0  0
 10 12  1  0  0  0  0
 12 13  1  0  0  0  0
  4 14  1  0  0  0  0
 14 15  2  0  0  0  0
 15 16  1  0  0  0  0
 16 17  1  0  0  0  0
 17 18  1  0  0  0  0
 18 19  1  0  0  0  0
 19 20  1  0  0  0  0
 20 21  1  0  0  0  0
 19 22  2  0  0  0  0
 22 23  1  0  0  0  0
 23 24  1  0  0  0  0
 22 25  1  0  0  0  0
 16 26  2  0  0  0  0
 26 27  1  0  0  0  0
 15 28  1  0  0  0  0
 28 29  2  0  0  0  0
 29 30  1  0  0  0  0
 29 31  1  0  0  0  0
 31 32  1  0  0  0  0
 32 33  1  0  0  0  0
 33 34  1  0  0  0  0
 34 35  2  0  0  0  0
 35 36  1  0  0  0  0
 36 37  1  0  0  0  0
 37 38  1  0  0  0  0
 36 39  1  0  0  0  0
 39 40  1  0  0  0  0
 36 41  1  0  0  0  0
 41 42  1  0  0  0  0
 35 43  1  0  0  0  0
 43 44  2  0  0  0  0
 44 45  1  0  0  0  0
 44 46  1  0  0  0  0
 46 47  1  0  0  0  0
 47 48  1  0  0  0  0
 48 49  1  0  0  0  0
 49 50  2  0  0  0  0
 50 51  1  0  0  0  0
 51 52  1  0  0  0  0
 52 53  1  0  0  0  0
 51 54  1  0  0  0  0
 54 55  1  0  0  0  0
 51 56  1  0  0  0  0
 56 57  1  0  0  0  0
 50 58  1  0  0  0  0
 58 59  2  0  0  0  0
 59 60  1  0  0  0  0
 59 61  1  0  0  0  0
 61 62  1  0  0  0  0
 62 63  1  0  0  0  0
 63 64  1  0  0  0  0
 64 65  2  0  0  0  0
 65 66  1  0  0  0  0
 66 67  1  0  0  0  0
 67 68  1  0  0  0  0
 66 69  1  0  0  0  0
 69 70  1  0  0  0  0
 66 71  1  0  0  0  0
 71 72  1  0  0  0  0
 65 73  1  0  0  0  0
 73 74  2  0  0  0  0
 74 75  1  0  0  0  0
 74 76  1  0  0  0  0
 76 77  1  0  0  0  0
 77 78  1  0  0  0  0
 78 79  1  0  0  0  0
 79 80  2  0  0  0  0
 80 81  1  0  0  0  0
 81 82  1  0  0  0  0
 82 83  1  0  0  0  0
 81 84  1  0  0  0  0
 84 85  1  0  0  0  0
 81 86  1  0  0  0  0
 86 87  1  0  0  0  0
 80 88  1  0  0  0  0
 88 89  2  0  0  0  0
 89 90  1  0  0  0  0
 89 91  1  0  0  0  0
 91 92  2  0  0  0  0
 92 93  1  0  0  0  0
 93 94  2  0  0  0  0
 94 95  1  0  0  0  0
 95 96  1  0  0  0  0
 96 97  1  0  0  0  0
 97 98  1  0  0  0  0
 98 99  1  0  0  0  0
 97100  2  0  0  0  0
100101  1  0  0  0  0
100102  1  0  0  0  0
102103  1  0  0  0  0
 94104  1  0  0  0  0
104105  2  0  0  0  0
105106  1  0  0  0  0
106107  1  0  0  0  0
107108  1  0  0  0  0
108109  1  0  0  0  0
109110  1  0  0  0  0
110111  1  0  0  0  0
109112  2  0  0  0  0
112113  1  0  0  0  0
113114  1  0  0  0  0
112115  1  0  0  0  0
106116  2  0  0  0  0
116117  1  0  0  0  0
105118  1  0  0  0  0
118119  2  0  0  0  0
119120  1  0  0  0  0
 27  1  1  0  0  0  0
 42 31  2  0  0  0  0
 57 46  2  0  0  0  0
 72 61  2  0  0  0  0
 87 76  2  0  0  0  0
117 91  1  0  0  0  0
 26  3  1  0  0  0  0
 41 33  2  0  0  0  0
 56 48  2  0  0  0  0
 71 63  2  0  0  0  0
 86 78  2  0  0  0  0
116 93  1  0  0  0  0
 12  5  2  0  0  0  0
 30 14  1  0  0  0  0
 45 34  1  0  0  0  0
 60 49  1  0  0  0  0
 75 64  1  0  0  0  0
 90 79  1  0  0  0  0
102 95  2  0  0  0  0
120104  1  0  0  0  0
 23 17  2  0  0  0  0
113107  2  0  0  0  0
  1121  1  0  0  0  0
  2122  1  0  0  0  0
  8123  1  0  0  0  0
  8124  1  0  0  0  0
  9125  1  0  0  0  0
  9126  1  0  0  0  0
  9127  1  0  0  0  0
 20128  1  0  0  0  0
 20129  1  0  0  0  0
 21130  1  0  0  0  0
 21131  1  0  0  0  0
 21132  1  0  0  0  0
 28133  1  0  0  0  0
 37134  1  0  0  0  0
 37135  1  0  0  0  0
 38136  1  0  0  0  0
 38137  1  0  0  0  0
 38138  1  0  0  0  0
 39139  1  0  0  0  0
 39140  1  0  0  0  0
 40141  1  0  0  0  0
 40142  1  0  0  0  0
 40143  1  0  0  0  0
 42144  1  0  0  0  0
 43145  1  0  0  0  0
 52146  1  0  0  0  0
 52147  1  0  0  0  0
 53148  1  0  0  0  0
 53149  1  0  0  0  0
 53150  1  0  0  0  0
 54151  1  0  0  0  0
 54152  1  0  0  0  0
 55153  1  0  0  0  0
 55154  1  0  0  0  0
 55155  1  0  0  0  0
 57156  1  0  0  0  0
 58157  1  0  0  0  0
 67158  1  0  0  0  0
 67159  1  0  0  0  0
 68160  1  0  0  0  0
 68161  1  0  0  0  0
 68162  1  0  0  0  0
 69163  1  0  0  0  0
 69164  1  0  0  0  0
 70165  1  0  0  0  0
 70166  1  0  0  0  0
 70167  1  0  0  0  0
 72168  1  0  0  0  0
 73169  1  0  0  0  0
 82170  1  0  0  0  0
 82171  1  0  0  0  0
 83172  1  0  0  0  0
 83173  1  0  0  0  0
 83174  1  0  0  0  0
 84175  1  0  0  0  0
 84176  1  0  0  0  0
 85177  1  0  0  0  0
 85178  1  0  0  0  0
 85179  1  0  0  0  0
 87180  1  0  0  0  0
 88181  1  0  0  0  0
 92182  1  0  0  0  0
 98183  1  0  0  0  0
 98184  1  0  0  0  0
 99185  1  0  0  0  0
 99186  1  0  0  0  0
 99187  1  0  0  0  0
110188  1  0  0  0  0
110189  1  0  0  0  0
111190  1  0  0  0  0
111191  1  0  0  0  0
111192  1  0  0  0  0
118193  1  0  0  0  0
119194  1  0  0  0  0
M  END
