194

C         10.82400       -5.27360       11.95460
C         10.54460       -4.75140       10.74340
C          9.46010       -5.41030       10.09390
C          8.92980       -5.16540        8.81720
C          9.40370       -4.05910        8.00140
S          9.96020       -4.30730        6.37380
C         10.31070       -2.62690        6.15490
C         10.81530       -2.11150        4.85260
C          9.66480       -1.91880        3.86170
C          9.99620       -1.92630        7.28080
Cl        10.19480       -0.22880        7.44000
C          9.48790       -2.73550        8.33240
Cl         8.96510       -2.08410        9.83220
C          7.94250       -6.03020        8.36680
C          7.44070       -7.10370        9.14290
C          7.93590       -7.31730       10.44040
C          7.43280       -8.39090       11.28150
S          7.42650      -10.04380       10.73850
C          6.77330      -10.61840       12.23550
C          6.45010      -12.05810       12.43630
C          5.07590      -12.39640       11.85320
C          6.56570       -9.57740       13.08920
C          6.94410       -8.31540       12.55580
Cl         6.71830       -6.85040       13.41590
Cl         5.91500       -9.75010       14.66740
C          8.94420       -6.46670       10.88080
S          9.79740       -6.59480       12.39300
C          6.42780       -7.82100        8.46100
C          6.15480       -7.33200        7.21480
S          7.13850       -5.93370        6.82680
C          5.22610       -7.84450        6.26470
S          4.81180       -6.93780        4.83270
C          3.77600       -8.20790        4.30490
C          2.99950       -8.31240        3.12380
C          2.30520       -9.49510        2.90810
Ge         2.60570      -10.69300        4.44310
C          0.94100      -11.04340        5.51040
C         -0.08890      -11.85320        4.73860
C          3.64110      -12.33780        3.94690
C          4.90740      -11.99740        3.17700
C          3.75500       -9.27790        5.19080
C          4.57250       -9.06050        6.29720
C          1.60570       -9.48280        1.70300
C          1.74220       -8.30050        1.00100
S          2.77020       -7.17400        1.84910
C          1.16100       -7.96830       -0.25430
S          1.05300       -6.31030       -0.79170
C          0.27650       -6.81100       -2.24700
C         -0.21570       -6.03540       -3.32600
C         -0.77640       -6.70850       -4.40340
Ge        -0.73780       -8.64130       -4.03000
C         -2.58480       -9.39090       -3.80380
C         -3.41440       -8.56310       -2.83490
C          0.43650       -9.68680       -5.27960
C         -0.06280       -9.64880       -6.71540
C          0.12460       -8.18970       -2.31720
C          0.61850       -8.83330       -1.18460
C         -1.25040       -5.83680       -5.38090
C         -1.07090       -4.50370       -5.06280
S         -0.27810       -4.32290       -3.51780
C         -1.48430       -3.37210       -5.81750
S         -1.51770       -1.77710       -5.10790
C         -2.16330       -1.11990       -6.56520
C         -2.57170        0.20410       -6.85890
C         -3.09320        0.45960       -8.12110
Ge        -3.06440       -1.21580       -9.15940
C         -1.75750       -1.20600      -10.68740
C         -1.08700       -2.55560      -10.89610
C         -4.90710       -1.86460       -9.62470
C         -4.92420       -3.28890      -10.15660
C         -2.32540       -2.08250       -7.55340
C         -1.94200       -3.35010       -7.12160
C         -3.50900        1.78110       -8.26270
C         -3.31810        2.54310       -7.12490
S         -2.58680        1.60080       -5.84920
C         -3.68100        3.90070       -6.91540
S         -3.38190        4.68560       -5.38550
C         -4.13290        6.12920       -5.95570
C         -4.36910        7.35420       -5.28470
C         -5.04530        8.35250       -5.97430
Ge        -5.46310        7.69550       -7.78440
C         -7.43100        7.44910       -8.08350
C         -8.09310        6.72700       -6.92050
C         -4.50560        8.68010       -9.24880
C         -4.52650        7.92490      -10.56860
C         -4.58190        6.01070       -7.26440
C         -4.32150        4.75110       -7.79830
C         -5.24000        9.48970       -5.19340
C         -4.71680        9.37790       -3.92230
S         -3.96050        7.82200       -3.67690
C         -4.74720       10.33670       -2.87390
C         -4.15100       10.25940       -1.64880
C         -4.39530       11.38520       -0.82560
C         -3.95000       11.61520        0.48600
C         -3.11470       10.65100        1.18390
S         -3.60610        8.99370        1.37880
C         -2.17450        8.58940        2.26280
C         -1.96570        7.22220        2.81390
C         -2.61700        7.08360        4.19210
C         -1.37680        9.68580        2.39680
Cl         0.13280        9.67550        3.21250
C         -1.90360       10.85450        1.78420
Cl        -1.04480       12.33690        1.74280
C         -4.35600       12.79820        1.09340
C         -5.16690       13.75870        0.44500
C         -5.58560       13.54390       -0.87790
C         -6.42080       14.50730       -1.57940
S         -7.95100       15.01770       -0.92950
C         -8.28130       16.03460       -2.29110
C         -9.51460       16.86660       -2.35160
C         -9.34170       18.16150       -1.55410
C         -7.25170       15.97890       -3.18130
C         -6.19920       15.10920       -2.78570
Cl        -4.76990       14.91480       -3.71100
Cl        -7.20980       16.86200       -4.65200
C         -5.19240       12.35700       -1.48050
S         -5.63950       11.83310       -3.07910
C         -5.44680       14.86900        1.29370
C         -4.90350       14.73870        2.52120
S         -4.00500       13.27650        2.72990
H         11.58520       -4.96700       12.64500
H         11.09140       -3.93720       10.30500
H         11.31760       -1.15760        5.02360
H         11.53640       -2.81830        4.43770
H         10.04620       -1.54910        2.91370
H          9.15370       -2.86310        3.68990
H          8.94710       -1.20190        4.25230
H          7.21120      -12.67250       11.95220
H          6.45580      -12.27080       13.50670
H          5.06030      -12.19500       10.78470
H          4.84980      -13.44690       12.01410
H          4.30620      -11.79650       12.33210
H          5.91180       -8.66140        8.88560
H          0.52150      -10.07940        5.79700
H          1.22000      -11.56330        6.42670
H         -0.98480      -12.00390        5.33840
H          0.31030      -12.82930        4.47030
H         -0.37180      -11.33630        3.82410
H          3.88740      -12.88000        4.85970
H          2.99900      -12.98360        3.34820
H          5.45110      -12.90220        2.91090
H          5.56120      -11.36670        3.77640
H          4.66490      -11.45970        2.26220
H          4.70450       -9.77110        7.09380
H          1.00250      -10.30090        1.35050
H         -2.50170      -10.41820       -3.44910
H         -3.06800       -9.42250       -4.78000
H         -4.41470       -8.97990       -2.72980
H         -2.94550       -8.54090       -1.85300
H         -3.50420       -7.53790       -3.18910
H          1.44130       -9.26910       -5.22140
H          0.48990      -10.71620       -4.92600
H         -0.10760       -8.62290       -7.07460
H         -1.05890      -10.08070       -6.78900
H          0.60250      -10.21210       -7.36760
H          0.60030       -9.90000       -1.04650
H         -1.73320       -6.15900       -6.28670
H         -1.00380       -0.44800      -10.47500
H         -2.28220       -0.90000      -11.59210
H         -0.55330       -2.85670       -9.99720
H         -0.37450       -2.50420      -11.71790
H         -1.82100       -3.32380      -11.12870
H         -5.33570       -1.18380      -10.36020
H         -5.51560       -1.79480       -8.72290
H         -4.48260       -3.97130       -9.43350
H         -4.36140       -3.36050      -11.08490
H         -5.94540       -3.61170      -10.35300
H         -1.98830       -4.23200       -7.73610
H         -3.94500        2.17570       -9.16320
H         -7.88390        8.42990       -8.22710
H         -7.57340        6.88630       -9.00580
H         -9.15880        6.59990       -7.10290
H         -7.96680        7.29140       -5.99850
H         -7.64840        5.74360       -6.77840
H         -3.47760        8.84150       -8.92530
H         -4.96840        9.65940       -9.36670
H         -5.54850        7.77370      -10.91030
H         -3.98880        8.47970      -11.33550
H         -4.05560        6.95060      -10.45650
H         -4.59800        4.45500       -8.79480
H         -5.74540       10.37920       -5.52920
H         -3.55400        9.41680       -1.35070
H         -2.39580        6.48680        2.13200
H         -0.89280        7.03850        2.89720
H         -3.68800        7.25790        4.12240
H         -2.19140        7.80610        4.88380
H         -2.45000        6.08430        4.58480
H         -9.72370       17.10460       -3.39600
H        -10.35490       16.30050       -1.94570
H         -9.14240       17.93650       -0.50900
H        -10.24540       18.76190       -1.61580
H         -8.51120       18.74010       -1.95060
H         -6.02930       15.71820        0.98710
H         -4.96360       15.42370        3.34420
