
  xtb     03022217453D
 energy: -463.662941982531 gnorm: 0.000339766339 xtb: 6.4.1 (unknown)
239266  0     0  0            999 V2000
    9.0393   -4.7464   10.3971 C   0  0  0  0  0  0  0  0  0  0  0  0
    9.0432   -3.4003   10.4709 C   0  0  0  0  0  0  0  0  0  0  0  0
    8.0772   -2.7968    9.6137 C   0  0  0  0  0  0  0  0  0  0  0  0
    7.7939   -1.4325    9.4443 C   0  0  0  0  0  0  0  0  0  0  0  0
    8.5925   -0.3989   10.0820 C   0  0  0  0  0  0  0  0  0  0  0  0
    7.8581    0.8825   10.9976 S   0  0  0  0  0  0  0  0  0  0  0  0
    9.3834    1.6360   11.3138 C   0  0  0  0  0  0  0  0  0  0  0  0
    9.4608    2.9209   12.0613 C   0  0  0  0  0  0  0  0  0  0  0  0
    9.0412    4.0924   11.1701 C   0  0  0  0  0  0  0  0  0  0  0  0
   10.3921    0.9274   10.7321 C   0  0  0  0  0  0  0  0  0  0  0  0
   12.0488    1.3690   10.8154 Cl  0  0  0  0  0  0  0  0  0  0  0  0
    9.9486   -0.2297   10.0371 C   0  0  0  0  0  0  0  0  0  0  0  0
   11.0184   -1.2469    9.1608 Cl  0  0  0  0  0  0  0  0  0  0  0  0
    6.7310   -1.1086    8.6113 C   0  0  0  0  0  0  0  0  0  0  0  0
    5.9760   -2.0802    7.9105 C   0  0  0  0  0  0  0  0  0  0  0  0
    6.2805   -3.4445    8.0534 C   0  0  0  0  0  0  0  0  0  0  0  0
    5.5446   -4.4592    7.3181 C   0  0  0  0  0  0  0  0  0  0  0  0
    6.3859   -5.6302    6.3455 S   0  0  0  0  0  0  0  0  0  0  0  0
    4.9122   -6.3600    5.8087 C   0  0  0  0  0  0  0  0  0  0  0  0
    4.9243   -7.4864    4.8360 C   0  0  0  0  0  0  0  0  0  0  0  0
    5.1307   -6.9758    3.4080 C   0  0  0  0  0  0  0  0  0  0  0  0
    3.8404   -5.7223    6.3577 C   0  0  0  0  0  0  0  0  0  0  0  0
    4.1936   -4.6491    7.2198 C   0  0  0  0  0  0  0  0  0  0  0  0
    3.0209   -3.7574    8.1040 Cl  0  0  0  0  0  0  0  0  0  0  0  0
    2.2098   -6.1533    6.0486 Cl  0  0  0  0  0  0  0  0  0  0  0  0
    7.3309   -3.7674    8.9044 C   0  0  0  0  0  0  0  0  0  0  0  0
    7.8665   -5.3781    9.2932 S   0  0  0  0  0  0  0  0  0  0  0  0
    4.9930   -1.4835    7.0832 C   0  0  0  0  0  0  0  0  0  0  0  0
    4.9747   -0.1235    7.1541 C   0  0  0  0  0  0  0  0  0  0  0  0
    6.1991    0.5066    8.2349 S   0  0  0  0  0  0  0  0  0  0  0  0
    4.0849    0.7568    6.4707 C   0  0  0  0  0  0  0  0  0  0  0  0
    4.1853    2.1060    6.3131 C   0  0  0  0  0  0  0  0  0  0  0  0
    3.1248    2.6654    5.5567 C   0  0  0  0  0  0  0  0  0  0  0  0
    2.9441    4.0085    5.1772 C   0  0  0  0  0  0  0  0  0  0  0  0
    3.8394    5.0441    5.6611 C   0  0  0  0  0  0  0  0  0  0  0  0
    4.6052    6.1685    4.5787 S   0  0  0  0  0  0  0  0  0  0  0  0
    5.4411    6.9618    5.8695 C   0  0  0  0  0  0  0  0  0  0  0  0
    6.3097    8.1428    5.6113 C   0  0  0  0  0  0  0  0  0  0  0  0
    5.4704    9.4139    5.4620 C   0  0  0  0  0  0  0  0  0  0  0  0
    5.1232    6.3878    7.0642 C   0  0  0  0  0  0  0  0  0  0  0  0
    5.7513    6.9062    8.5747 Cl  0  0  0  0  0  0  0  0  0  0  0  0
    4.2195    5.2978    6.9511 C   0  0  0  0  0  0  0  0  0  0  0  0
    3.6156    4.4593    8.3225 Cl  0  0  0  0  0  0  0  0  0  0  0  0
    1.8908    4.2798    4.3128 C   0  0  0  0  0  0  0  0  0  0  0  0
    0.9707    3.2874    3.8960 C   0  0  0  0  0  0  0  0  0  0  0  0
    1.1044    1.9583    4.3332 C   0  0  0  0  0  0  0  0  0  0  0  0
    0.1552    0.9317    3.9418 C   0  0  0  0  0  0  0  0  0  0  0  0
    0.6990   -0.5991    3.3172 S   0  0  0  0  0  0  0  0  0  0  0  0
   -0.9163   -1.1852    3.1157 C   0  0  0  0  0  0  0  0  0  0  0  0
   -1.1697   -2.5692    2.6305 C   0  0  0  0  0  0  0  0  0  0  0  0
   -0.9147   -3.5923    3.7396 C   0  0  0  0  0  0  0  0  0  0  0  0
   -1.8141   -0.2428    3.5208 C   0  0  0  0  0  0  0  0  0  0  0  0
   -1.2127    0.9587    3.9835 C   0  0  0  0  0  0  0  0  0  0  0  0
   -2.1412    2.2555    4.6155 Cl  0  0  0  0  0  0  0  0  0  0  0  0
   -3.5156   -0.4576    3.4788 Cl  0  0  0  0  0  0  0  0  0  0  0  0
    2.2091    1.6748    5.1251 C   0  0  0  0  0  0  0  0  0  0  0  0
    2.6564    0.0970    5.7024 S   0  0  0  0  0  0  0  0  0  0  0  0
    0.0292    3.7997    2.9736 C   0  0  0  0  0  0  0  0  0  0  0  0
    0.1986    5.1232    2.6963 C   0  0  0  0  0  0  0  0  0  0  0  0
    1.5326    5.8227    3.5815 S   0  0  0  0  0  0  0  0  0  0  0  0
   -0.5643    5.7988    1.6879 C   0  0  0  0  0  0  0  0  0  0  0  0
   -1.8547    5.4990    1.3733 C   0  0  0  0  0  0  0  0  0  0  0  0
   -2.2583    5.9997    0.1124 C   0  0  0  0  0  0  0  0  0  0  0  0
   -3.4490    5.7131   -0.5749 C   0  0  0  0  0  0  0  0  0  0  0  0
   -4.4859    4.8781    0.0148 C   0  0  0  0  0  0  0  0  0  0  0  0
   -6.1288    5.4285    0.1321 S   0  0  0  0  0  0  0  0  0  0  0  0
   -6.6571    3.9442    0.8480 C   0  0  0  0  0  0  0  0  0  0  0  0
   -8.0675    3.7544    1.2858 C   0  0  0  0  0  0  0  0  0  0  0  0
   -8.2690    4.2626    2.7155 C   0  0  0  0  0  0  0  0  0  0  0  0
   -5.6094    3.0831    0.9837 C   0  0  0  0  0  0  0  0  0  0  0  0
   -5.7399    1.5091    1.6547 Cl  0  0  0  0  0  0  0  0  0  0  0  0
   -4.3782    3.6066    0.5055 C   0  0  0  0  0  0  0  0  0  0  0  0
   -2.9367    2.6747    0.4833 Cl  0  0  0  0  0  0  0  0  0  0  0  0
   -3.5253    6.1319   -1.8939 C   0  0  0  0  0  0  0  0  0  0  0  0
   -2.4827    6.8418   -2.5362 C   0  0  0  0  0  0  0  0  0  0  0  0
   -1.3414    7.2347   -1.8098 C   0  0  0  0  0  0  0  0  0  0  0  0
   -0.3063    8.0152   -2.4580 C   0  0  0  0  0  0  0  0  0  0  0  0
    1.3758    7.5832   -2.3776 S   0  0  0  0  0  0  0  0  0  0  0  0
    1.8423    8.9006   -3.3966 C   0  0  0  0  0  0  0  0  0  0  0  0
    3.2567    9.0881   -3.8217 C   0  0  0  0  0  0  0  0  0  0  0  0
    3.5345    8.3375   -5.1270 C   0  0  0  0  0  0  0  0  0  0  0  0
    0.7493    9.6274   -3.7664 C   0  0  0  0  0  0  0  0  0  0  0  0
   -0.4698    9.1301   -3.2371 C   0  0  0  0  0  0  0  0  0  0  0  0
   -1.9759    9.9082   -3.5023 Cl  0  0  0  0  0  0  0  0  0  0  0  0
    0.8211   11.0164   -4.7716 Cl  0  0  0  0  0  0  0  0  0  0  0  0
   -1.2340    6.7550   -0.5098 C   0  0  0  0  0  0  0  0  0  0  0  0
    0.1782    6.8600    0.5071 S   0  0  0  0  0  0  0  0  0  0  0  0
   -2.6381    6.8381   -3.9448 C   0  0  0  0  0  0  0  0  0  0  0  0
   -3.7354    6.1491   -4.3717 C   0  0  0  0  0  0  0  0  0  0  0  0
   -4.7366    5.6069   -3.0314 S   0  0  0  0  0  0  0  0  0  0  0  0
   -3.9147    5.5340   -5.6462 C   0  0  0  0  0  0  0  0  0  0  0  0
   -4.8740    4.6249   -5.9854 C   0  0  0  0  0  0  0  0  0  0  0  0
   -4.4820    3.7529   -7.0295 C   0  0  0  0  0  0  0  0  0  0  0  0
   -5.1260    2.5748   -7.4533 C   0  0  0  0  0  0  0  0  0  0  0  0
   -6.4778    2.2168   -7.0648 C   0  0  0  0  0  0  0  0  0  0  0  0
   -7.0439    2.2821   -5.4212 S   0  0  0  0  0  0  0  0  0  0  0  0
   -8.5955    1.6444   -5.8419 C   0  0  0  0  0  0  0  0  0  0  0  0
   -9.6302    1.3844   -4.8038 C   0  0  0  0  0  0  0  0  0  0  0  0
   -9.4462   -0.0036   -4.1852 C   0  0  0  0  0  0  0  0  0  0  0  0
   -8.6562    1.3935   -7.1800 C   0  0  0  0  0  0  0  0  0  0  0  0
  -10.0397    0.7591   -7.9715 Cl  0  0  0  0  0  0  0  0  0  0  0  0
   -7.4602    1.7133   -7.8751 C   0  0  0  0  0  0  0  0  0  0  0  0
   -7.3161    1.5509   -9.5747 Cl  0  0  0  0  0  0  0  0  0  0  0  0
   -4.3474    1.6737   -8.1697 C   0  0  0  0  0  0  0  0  0  0  0  0
   -3.0251    1.9493   -8.5915 C   0  0  0  0  0  0  0  0  0  0  0  0
   -2.4732    3.2293   -8.3709 C   0  0  0  0  0  0  0  0  0  0  0  0
   -1.1717    3.5739   -8.9025 C   0  0  0  0  0  0  0  0  0  0  0  0
    0.0386    4.3873   -7.9531 S   0  0  0  0  0  0  0  0  0  0  0  0
    1.1746    4.3972   -9.2606 C   0  0  0  0  0  0  0  0  0  0  0  0
    2.5167    5.0210   -9.0966 C   0  0  0  0  0  0  0  0  0  0  0  0
    2.4029    6.5129   -8.7815 C   0  0  0  0  0  0  0  0  0  0  0  0
    0.6318    3.8075  -10.3629 C   0  0  0  0  0  0  0  0  0  0  0  0
   -0.6928    3.3344  -10.1639 C   0  0  0  0  0  0  0  0  0  0  0  0
   -1.6085    2.6147  -11.4242 Cl  0  0  0  0  0  0  0  0  0  0  0  0
    1.4475    3.6376  -11.8642 Cl  0  0  0  0  0  0  0  0  0  0  0  0
   -3.1900    4.0653   -7.5228 C   0  0  0  0  0  0  0  0  0  0  0  0
   -2.5576    5.5010   -6.7629 S   0  0  0  0  0  0  0  0  0  0  0  0
   -2.3287    0.7718   -8.9557 C   0  0  0  0  0  0  0  0  0  0  0  0
   -3.0630   -0.3701   -8.7805 C   0  0  0  0  0  0  0  0  0  0  0  0
   -4.7276   -0.0148   -8.3578 S   0  0  0  0  0  0  0  0  0  0  0  0
   -2.5701   -1.6966   -8.6118 C   0  0  0  0  0  0  0  0  0  0  0  0
   -3.5859   -2.8787   -7.8226 S   0  0  0  0  0  0  0  0  0  0  0  0
   -2.2159   -3.8718   -7.5076 C   0  0  0  0  0  0  0  0  0  0  0  0
   -2.1060   -4.9636   -6.6102 C   0  0  0  0  0  0  0  0  0  0  0  0
   -0.8336   -5.4184   -6.2929 C   0  0  0  0  0  0  0  0  0  0  0  0
    0.4661   -4.4623   -7.4310 Ge  0  0  0  0  0  4  0  0  0  0  0  0
    1.2500   -5.6278   -8.8630 C   0  0  0  0  0  0  0  0  0  0  0  0
    2.0089   -4.8262   -9.9089 C   0  0  0  0  0  0  0  0  0  0  0  0
    1.8160   -3.4011   -6.3943 C   0  0  0  0  0  0  0  0  0  0  0  0
    2.8294   -4.2860   -5.6854 C   0  0  0  0  0  0  0  0  0  0  0  0
   -1.0474   -3.3564   -8.0536 C   0  0  0  0  0  0  0  0  0  0  0  0
   -1.2599   -2.1319   -8.6851 C   0  0  0  0  0  0  0  0  0  0  0  0
   -0.8522   -6.3166   -5.2244 C   0  0  0  0  0  0  0  0  0  0  0  0
   -2.1177   -6.5634   -4.7400 C   0  0  0  0  0  0  0  0  0  0  0  0
   -3.3316   -5.6874   -5.6394 S   0  0  0  0  0  0  0  0  0  0  0  0
   -2.5113   -7.3167   -3.5951 C   0  0  0  0  0  0  0  0  0  0  0  0
   -3.7472   -7.8216   -3.3218 C   0  0  0  0  0  0  0  0  0  0  0  0
   -3.8456   -8.4287   -2.0456 C   0  0  0  0  0  0  0  0  0  0  0  0
   -4.9527   -9.0788   -1.4778 C   0  0  0  0  0  0  0  0  0  0  0  0
   -6.2154   -9.1829   -2.1911 C   0  0  0  0  0  0  0  0  0  0  0  0
   -7.0262   -7.7703   -2.8017 S   0  0  0  0  0  0  0  0  0  0  0  0
   -8.3443   -8.7004   -3.4296 C   0  0  0  0  0  0  0  0  0  0  0  0
   -9.4526   -8.0507   -4.1817 C   0  0  0  0  0  0  0  0  0  0  0  0
   -9.0126   -7.6899   -5.6025 C   0  0  0  0  0  0  0  0  0  0  0  0
   -8.1480  -10.0253   -3.1801 C   0  0  0  0  0  0  0  0  0  0  0  0
   -9.2348  -11.2635   -3.6603 Cl  0  0  0  0  0  0  0  0  0  0  0  0
   -6.9468  -10.3025   -2.4727 C   0  0  0  0  0  0  0  0  0  0  0  0
   -6.4474  -11.8992   -2.1015 Cl  0  0  0  0  0  0  0  0  0  0  0  0
   -4.7909   -9.6035   -0.2003 C   0  0  0  0  0  0  0  0  0  0  0  0
   -3.5848   -9.4889    0.5304 C   0  0  0  0  0  0  0  0  0  0  0  0
   -2.4785   -8.8384   -0.0381 C   0  0  0  0  0  0  0  0  0  0  0  0
   -1.2486   -8.6428    0.7171 C   0  0  0  0  0  0  0  0  0  0  0  0
   -0.3453   -9.9763    1.3671 S   0  0  0  0  0  0  0  0  0  0  0  0
    0.8356   -8.9301    2.0801 C   0  0  0  0  0  0  0  0  0  0  0  0
    1.9562   -9.4749    2.8945 C   0  0  0  0  0  0  0  0  0  0  0  0
    1.5262   -9.6800    4.3494 C   0  0  0  0  0  0  0  0  0  0  0  0
    0.5278   -7.6270    1.8283 C   0  0  0  0  0  0  0  0  0  0  0  0
   -0.6486   -7.4607    1.0486 C   0  0  0  0  0  0  0  0  0  0  0  0
   -1.2755   -5.9190    0.6350 Cl  0  0  0  0  0  0  0  0  0  0  0  0
    1.4514   -6.2988    2.3960 Cl  0  0  0  0  0  0  0  0  0  0  0  0
   -2.6280   -8.3448   -1.3265 C   0  0  0  0  0  0  0  0  0  0  0  0
   -1.3858   -7.5733   -2.2734 S   0  0  0  0  0  0  0  0  0  0  0  0
   -3.7086  -10.0416    1.8385 C   0  0  0  0  0  0  0  0  0  0  0  0
   -4.9366  -10.5446    2.0789 C   0  0  0  0  0  0  0  0  0  0  0  0
   -6.0250  -10.3851    0.7457 S   0  0  0  0  0  0  0  0  0  0  0  0
    9.6606   -5.4371   10.9328 H   0  0  0  0  0  0  0  0  0  0  0  0
    9.6920   -2.8402   11.1184 H   0  0  0  0  0  0  0  0  0  0  0  0
    8.8038    2.8762   12.9321 H   0  0  0  0  0  0  0  0  0  0  0  0
   10.4867    3.0658   12.4039 H   0  0  0  0  0  0  0  0  0  0  0  0
    9.6946    4.1606   10.3039 H   0  0  0  0  0  0  0  0  0  0  0  0
    9.1003    5.0245   11.7254 H   0  0  0  0  0  0  0  0  0  0  0  0
    8.0195    3.9555   10.8240 H   0  0  0  0  0  0  0  0  0  0  0  0
    5.7302   -8.1763    5.0932 H   0  0  0  0  0  0  0  0  0  0  0  0
    3.9726   -8.0148    4.9068 H   0  0  0  0  0  0  0  0  0  0  0  0
    6.0645   -6.4230    3.3380 H   0  0  0  0  0  0  0  0  0  0  0  0
    5.1691   -7.8101    2.7120 H   0  0  0  0  0  0  0  0  0  0  0  0
    4.3152   -6.3171    3.1207 H   0  0  0  0  0  0  0  0  0  0  0  0
    4.3306   -2.0337    6.4409 H   0  0  0  0  0  0  0  0  0  0  0  0
    5.0135    2.6717    6.6993 H   0  0  0  0  0  0  0  0  0  0  0  0
    6.8834    7.9786    4.6974 H   0  0  0  0  0  0  0  0  0  0  0  0
    7.0040    8.2558    6.4458 H   0  0  0  0  0  0  0  0  0  0  0  0
    6.1159   10.2675    5.2741 H   0  0  0  0  0  0  0  0  0  0  0  0
    4.7752    9.3104    4.6324 H   0  0  0  0  0  0  0  0  0  0  0  0
    4.9027    9.5994    6.3703 H   0  0  0  0  0  0  0  0  0  0  0  0
   -2.2054   -2.6402    2.2936 H   0  0  0  0  0  0  0  0  0  0  0  0
   -0.5130   -2.7858    1.7855 H   0  0  0  0  0  0  0  0  0  0  0  0
    0.1169   -3.5318    4.0790 H   0  0  0  0  0  0  0  0  0  0  0  0
   -1.1016   -4.5956    3.3670 H   0  0  0  0  0  0  0  0  0  0  0  0
   -1.5713   -3.4065    4.5861 H   0  0  0  0  0  0  0  0  0  0  0  0
   -0.7047    3.1952    2.4753 H   0  0  0  0  0  0  0  0  0  0  0  0
   -2.4861    4.9104    2.0116 H   0  0  0  0  0  0  0  0  0  0  0  0
   -8.3080    2.6905    1.2396 H   0  0  0  0  0  0  0  0  0  0  0  0
   -8.7320    4.2948    0.6098 H   0  0  0  0  0  0  0  0  0  0  0  0
   -7.6200    3.7238    3.4011 H   0  0  0  0  0  0  0  0  0  0  0  0
   -9.3005    4.1142    3.0229 H   0  0  0  0  0  0  0  0  0  0  0  0
   -8.0350    5.3228    2.7755 H   0  0  0  0  0  0  0  0  0  0  0  0
    3.9213    8.7195   -3.0391 H   0  0  0  0  0  0  0  0  0  0  0  0
    3.4426   10.1537   -3.9686 H   0  0  0  0  0  0  0  0  0  0  0  0
    2.8885    8.7081   -5.9187 H   0  0  0  0  0  0  0  0  0  0  0  0
    3.3507    7.2737   -4.9965 H   0  0  0  0  0  0  0  0  0  0  0  0
    4.5694    8.4802   -5.4259 H   0  0  0  0  0  0  0  0  0  0  0  0
   -1.9007    7.2243   -4.6255 H   0  0  0  0  0  0  0  0  0  0  0  0
   -5.7832    4.5145   -5.4232 H   0  0  0  0  0  0  0  0  0  0  0  0
   -9.5581    2.1434   -4.0229 H   0  0  0  0  0  0  0  0  0  0  0  0
  -10.6160    1.4496   -5.2681 H   0  0  0  0  0  0  0  0  0  0  0  0
  -10.2113   -0.1816   -3.4343 H   0  0  0  0  0  0  0  0  0  0  0  0
   -8.4691   -0.0806   -3.7143 H   0  0  0  0  0  0  0  0  0  0  0  0
   -9.5240   -0.7707   -4.9514 H   0  0  0  0  0  0  0  0  0  0  0  0
    3.0499    4.5234   -8.2825 H   0  0  0  0  0  0  0  0  0  0  0  0
    3.0816    4.8744  -10.0185 H   0  0  0  0  0  0  0  0  0  0  0  0
    1.8381    6.6604   -7.8640 H   0  0  0  0  0  0  0  0  0  0  0  0
    1.8938    7.0322   -9.5895 H   0  0  0  0  0  0  0  0  0  0  0  0
    3.3919    6.9456   -8.6573 H   0  0  0  0  0  0  0  0  0  0  0  0
   -1.2852    0.7639   -9.2103 H   0  0  0  0  0  0  0  0  0  0  0  0
    0.4344   -6.1794   -9.3299 H   0  0  0  0  0  0  0  0  0  0  0  0
    1.9091   -6.3573   -8.3930 H   0  0  0  0  0  0  0  0  0  0  0  0
    2.4051   -5.4828  -10.6814 H   0  0  0  0  0  0  0  0  0  0  0  0
    2.8415   -4.2911   -9.4565 H   0  0  0  0  0  0  0  0  0  0  0  0
    1.3526   -4.0982  -10.3813 H   0  0  0  0  0  0  0  0  0  0  0  0
    2.3220   -2.7221   -7.0805 H   0  0  0  0  0  0  0  0  0  0  0  0
    1.2784   -2.7899   -5.6698 H   0  0  0  0  0  0  0  0  0  0  0  0
    3.3803   -4.8929   -6.4013 H   0  0  0  0  0  0  0  0  0  0  0  0
    2.3298   -4.9530   -4.9862 H   0  0  0  0  0  0  0  0  0  0  0  0
    3.5437   -3.6808   -5.1298 H   0  0  0  0  0  0  0  0  0  0  0  0
   -0.4778   -1.5496   -9.1395 H   0  0  0  0  0  0  0  0  0  0  0  0
    0.0247   -6.7700   -4.7946 H   0  0  0  0  0  0  0  0  0  0  0  0
   -4.5608   -7.7625   -4.0216 H   0  0  0  0  0  0  0  0  0  0  0  0
  -10.2972   -8.7404   -4.2209 H   0  0  0  0  0  0  0  0  0  0  0  0
   -9.7648   -7.1441   -3.6596 H   0  0  0  0  0  0  0  0  0  0  0  0
   -8.1762   -6.9955   -5.5737 H   0  0  0  0  0  0  0  0  0  0  0  0
   -8.7053   -8.5834   -6.1403 H   0  0  0  0  0  0  0  0  0  0  0  0
   -9.8340   -7.2249   -6.1409 H   0  0  0  0  0  0  0  0  0  0  0  0
    2.2789  -10.4287    2.4736 H   0  0  0  0  0  0  0  0  0  0  0  0
    2.7893   -8.7717    2.8533 H   0  0  0  0  0  0  0  0  0  0  0  0
    2.3444  -10.1035    4.9263 H   0  0  0  0  0  0  0  0  0  0  0  0
    1.2372   -8.7317    4.7953 H   0  0  0  0  0  0  0  0  0  0  0  0
    0.6794  -10.3604    4.3997 H   0  0  0  0  0  0  0  0  0  0  0  0
   -2.9090  -10.0514    2.5560 H   0  0  0  0  0  0  0  0  0  0  0  0
   -5.2914  -11.0147    2.9752 H   0  0  0  0  0  0  0  0  0  0  0  0
  1  2  2  0  0  0  0
  2  3  1  0  0  0  0
  3  4  2  0  0  0  0
  4  5  1  0  0  0  0
  5  6  1  0  0  0  0
  6  7  1  0  0  0  0
  7  8  1  0  0  0  0
  8  9  1  0  0  0  0
  7 10  2  0  0  0  0
 10 11  1  0  0  0  0
 10 12  1  0  0  0  0
 12 13  1  0  0  0  0
  4 14  1  0  0  0  0
 14 15  2  0  0  0  0
 15 16  1  0  0  0  0
 16 17  1  0  0  0  0
 17 18  1  0  0  0  0
 18 19  1  0  0  0  0
 19 20  1  0  0  0  0
 20 21  1  0  0  0  0
 19 22  2  0  0  0  0
 22 23  1  0  0  0  0
 23 24  1  0  0  0  0
 22 25  1  0  0  0  0
 16 26  2  0  0  0  0
 26 27  1  0  0  0  0
 15 28  1  0  0  0  0
 28 29  2  0  0  0  0
 29 30  1  0  0  0  0
 29 31  1  0  0  0  0
 31 32  2  0  0  0  0
 32 33  1  0  0  0  0
 33 34  2  0  0  0  0
 34 35  1  0  0  0  0
 35 36  1  0  0  0  0
 36 37  1  0  0  0  0
 37 38  1  0  0  0  0
 38 39  1  0  0  0  0
 37 40  2  0  0  0  0
 40 41  1  0  0  0  0
 40 42  1  0  0  0  0
 42 43  1  0  0  0  0
 34 44  1  0  0  0  0
 44 45  2  0  0  0  0
 45 46  1  0  0  0  0
 46 47  1  0  0  0  0
 47 48  1  0  0  0  0
 48 49  1  0  0  0  0
 49 50  1  0  0  0  0
 50 51  1  0  0  0  0
 49 52  2  0  0  0  0
 52 53  1  0  0  0  0
 53 54  1  0  0  0  0
 52 55  1  0  0  0  0
 46 56  2  0  0  0  0
 56 57  1  0  0  0  0
 45 58  1  0  0  0  0
 58 59  2  0  0  0  0
 59 60  1  0  0  0  0
 59 61  1  0  0  0  0
 61 62  2  0  0  0  0
 62 63  1  0  0  0  0
 63 64  2  0  0  0  0
 64 65  1  0  0  0  0
 65 66  1  0  0  0  0
 66 67  1  0  0  0  0
 67 68  1  0  0  0  0
 68 69  1  0  0  0  0
 67 70  2  0  0  0  0
 70 71  1  0  0  0  0
 70 72  1  0  0  0  0
 72 73  1  0  0  0  0
 64 74  1  0  0  0  0
 74 75  2  0  0  0  0
 75 76  1  0  0  0  0
 76 77  1  0  0  0  0
 77 78  1  0  0  0  0
 78 79  1  0  0  0  0
 79 80  1  0  0  0  0
 80 81  1  0  0  0  0
 79 82  2  0  0  0  0
 82 83  1  0  0  0  0
 83 84  1  0  0  0  0
 82 85  1  0  0  0  0
 76 86  2  0  0  0  0
 86 87  1  0  0  0  0
 75 88  1  0  0  0  0
 88 89  2  0  0  0  0
 89 90  1  0  0  0  0
 89 91  1  0  0  0  0
 91 92  2  0  0  0  0
 92 93  1  0  0  0  0
 93 94  2  0  0  0  0
 94 95  1  0  0  0  0
 95 96  1  0  0  0  0
 96 97  1  0  0  0  0
 97 98  1  0  0  0  0
 98 99  1  0  0  0  0
 97100  2  0  0  0  0
100101  1  0  0  0  0
100102  1  0  0  0  0
102103  1  0  0  0  0
 94104  1  0  0  0  0
104105  2  0  0  0  0
105106  1  0  0  0  0
106107  1  0  0  0  0
107108  1  0  0  0  0
108109  1  0  0  0  0
109110  1  0  0  0  0
110111  1  0  0  0  0
109112  2  0  0  0  0
112113  1  0  0  0  0
113114  1  0  0  0  0
112115  1  0  0  0  0
106116  2  0  0  0  0
116117  1  0  0  0  0
105118  1  0  0  0  0
118119  2  0  0  0  0
119120  1  0  0  0  0
119121  1  0  0  0  0
121122  1  0  0  0  0
122123  1  0  0  0  0
123124  1  0  0  0  0
124125  2  0  0  0  0
125126  1  0  0  0  0
126127  1  0  0  0  0
127128  1  0  0  0  0
126129  1  0  0  0  0
129130  1  0  0  0  0
126131  1  0  0  0  0
131132  1  0  0  0  0
125133  1  0  0  0  0
133134  2  0  0  0  0
134135  1  0  0  0  0
134136  1  0  0  0  0
136137  2  0  0  0  0
137138  1  0  0  0  0
138139  2  0  0  0  0
139140  1  0  0  0  0
140141  1  0  0  0  0
141142  1  0  0  0  0
142143  1  0  0  0  0
143144  1  0  0  0  0
142145  2  0  0  0  0
145146  1  0  0  0  0
145147  1  0  0  0  0
147148  1  0  0  0  0
139149  1  0  0  0  0
149150  2  0  0  0  0
150151  1  0  0  0  0
151152  1  0  0  0  0
152153  1  0  0  0  0
153154  1  0  0  0  0
154155  1  0  0  0  0
155156  1  0  0  0  0
154157  2  0  0  0  0
157158  1  0  0  0  0
158159  1  0  0  0  0
157160  1  0  0  0  0
151161  2  0  0  0  0
161162  1  0  0  0  0
150163  1  0  0  0  0
163164  2  0  0  0  0
164165  1  0  0  0  0
 27  1  1  0  0  0  0
 57 31  1  0  0  0  0
 87 61  1  0  0  0  0
117 91  1  0  0  0  0
132121  2  0  0  0  0
162136  1  0  0  0  0
 26  3  1  0  0  0  0
 56 33  1  0  0  0  0
 86 63  1  0  0  0  0
116 93  1  0  0  0  0
131123  2  0  0  0  0
161138  1  0  0  0  0
 12  5  2  0  0  0  0
 30 14  1  0  0  0  0
 42 35  2  0  0  0  0
 60 44  1  0  0  0  0
 72 65  2  0  0  0  0
 90 74  1  0  0  0  0
102 95  2  0  0  0  0
120104  1  0  0  0  0
135124  1  0  0  0  0
147140  2  0  0  0  0
165149  1  0  0  0  0
 23 17  2  0  0  0  0
 53 47  2  0  0  0  0
 83 77  2  0  0  0  0
113107  2  0  0  0  0
158152  2  0  0  0  0
  1166  1  0  0  0  0
  2167  1  0  0  0  0
  8168  1  0  0  0  0
  8169  1  0  0  0  0
  9170  1  0  0  0  0
  9171  1  0  0  0  0
  9172  1  0  0  0  0
 20173  1  0  0  0  0
 20174  1  0  0  0  0
 21175  1  0  0  0  0
 21176  1  0  0  0  0
 21177  1  0  0  0  0
 28178  1  0  0  0  0
 32179  1  0  0  0  0
 38180  1  0  0  0  0
 38181  1  0  0  0  0
 39182  1  0  0  0  0
 39183  1  0  0  0  0
 39184  1  0  0  0  0
 50185  1  0  0  0  0
 50186  1  0  0  0  0
 51187  1  0  0  0  0
 51188  1  0  0  0  0
 51189  1  0  0  0  0
 58190  1  0  0  0  0
 62191  1  0  0  0  0
 68192  1  0  0  0  0
 68193  1  0  0  0  0
 69194  1  0  0  0  0
 69195  1  0  0  0  0
 69196  1  0  0  0  0
 80197  1  0  0  0  0
 80198  1  0  0  0  0
 81199  1  0  0  0  0
 81200  1  0  0  0  0
 81201  1  0  0  0  0
 88202  1  0  0  0  0
 92203  1  0  0  0  0
 98204  1  0  0  0  0
 98205  1  0  0  0  0
 99206  1  0  0  0  0
 99207  1  0  0  0  0
 99208  1  0  0  0  0
110209  1  0  0  0  0
110210  1  0  0  0  0
111211  1  0  0  0  0
111212  1  0  0  0  0
111213  1  0  0  0  0
118214  1  0  0  0  0
127215  1  0  0  0  0
127216  1  0  0  0  0
128217  1  0  0  0  0
128218  1  0  0  0  0
128219  1  0  0  0  0
129220  1  0  0  0  0
129221  1  0  0  0  0
130222  1  0  0  0  0
130223  1  0  0  0  0
130224  1  0  0  0  0
132225  1  0  0  0  0
133226  1  0  0  0  0
137227  1  0  0  0  0
143228  1  0  0  0  0
143229  1  0  0  0  0
144230  1  0  0  0  0
144231  1  0  0  0  0
144232  1  0  0  0  0
155233  1  0  0  0  0
155234  1  0  0  0  0
156235  1  0  0  0  0
156236  1  0  0  0  0
156237  1  0  0  0  0
163238  1  0  0  0  0
164239  1  0  0  0  0
M  END
