209

C          2.03230       -7.37650       13.72880
S          1.35040       -7.68590       12.17780
C          2.22180       -6.35140       11.51780
C          2.24610       -5.85040       10.18720
C          3.05030       -4.75170        9.92690
Ge         3.95570       -4.22260       11.59660
C          5.93630       -4.52420       11.50470
C          6.27450       -5.93170       11.03950
C          3.41500       -2.39910       12.23930
C          3.86790       -1.29420       11.29780
C          2.99630       -5.70880       12.46620
C          2.87760       -6.30930       13.73110
C          2.98410       -4.35960        8.59020
C          2.14050       -5.14220        7.83120
S          1.40550       -6.40420        8.78970
C          1.83370       -5.01370        6.44940
C          1.00050       -5.79070        5.69790
C          0.90250       -5.37730        4.34800
C          0.11800       -5.93390        3.32350
C         -0.74310       -7.08070        3.56350
S         -1.94600       -7.06940        4.81980
C         -2.48380       -8.66730        4.42940
C         -3.62100       -9.29960        5.15270
C         -4.95820       -8.89990        4.52440
C         -1.76770       -9.16420        3.38200
Cl        -2.01110      -10.72480        2.71200
C         -0.77820       -8.27050        2.89090
Cl         0.30600       -8.70160        1.63580
C          0.19620       -5.33530        2.07320
C          1.03770       -4.22930        1.79420
C          1.80100       -3.65540        2.82570
C          2.60000       -2.45540        2.62610
S          4.27180       -2.40730        3.09420
C          4.42160       -0.73060        2.68640
C          5.70800       -0.01510        2.90630
C          6.13790       -0.09130        4.37060
C          3.23860       -0.25080        2.20960
C          2.20600       -1.22990        2.16640
Cl         0.60930       -0.86250        1.65690
Cl         2.98030        1.38360        1.73050
C          1.72260       -4.25530        4.07490
S          2.55810       -3.72250        5.50750
C          0.95950       -3.83820        0.43490
C          0.04810       -4.55430       -0.28330
S         -0.73880       -5.78760        0.67800
C         -0.33500       -4.36630       -1.64530
C         -1.50480       -4.74370       -2.23500
C         -1.63770       -4.29540       -3.57300
C         -2.78830       -4.32890       -4.38730
C         -3.99520       -5.01120       -3.95510
S         -5.54420       -4.21920       -3.97990
C         -6.35750       -5.61820       -3.36470
C         -7.82150       -5.59560       -3.09530
C         -8.12950       -4.86810       -1.78470
C         -5.46770       -6.62810       -3.15220
Cl        -5.89850       -8.17570       -2.54910
C         -4.12870       -6.29000       -3.48840
Cl        -2.84130       -7.42110       -3.38690
C         -2.74150       -3.60170       -5.56870
C         -1.56910       -2.94780       -6.01860
C         -0.42330       -2.91120       -5.20920
C          0.69940       -2.04990       -5.55510
S          2.32120       -2.64750       -5.71110
C          2.94700       -1.07460       -6.07410
C          4.40380       -0.85010       -6.28360
C          5.12430       -0.68000       -4.94390
C          1.94530       -0.15070       -6.05700
C          0.66780       -0.69870       -5.76630
Cl        -0.74230        0.27620       -5.62670
Cl         2.17780        1.52160       -6.35150
C         -0.49180       -3.57730       -3.99560
S          0.70670       -3.47810       -2.73760
C         -1.79170       -2.19420       -7.19310
C         -3.10830       -2.13090       -7.55230
S         -4.09830       -3.22700       -6.60230
C         -3.67290       -0.98180       -8.18720
C         -4.83850       -0.38650       -7.79300
C         -4.80030        1.02750       -7.87860
C         -5.65470        1.94030       -7.22770
C         -6.88390        1.52740       -6.57130
S         -6.93370        0.18570       -5.46390
C         -8.60870        0.43440       -5.10620
C         -9.32770       -0.45480       -4.15140
C         -9.05430       -1.93210       -4.42700
C         -9.08460        1.50320       -5.80460
Cl       -10.70560        2.06090       -5.72080
C         -8.10890        2.13190       -6.62530
Cl        -8.47130        3.47240       -7.62920
C         -5.16850        3.23090       -7.05760
C         -3.92980        3.66440       -7.58810
C         -3.16180        2.80110       -8.39410
C         -1.88550        3.24210       -8.92270
S         -0.42050        2.33970       -8.67410
C          0.54270        3.52500       -9.48640
C          2.01530        3.35370       -9.62960
C          2.38120        1.95560      -10.12220
C         -0.23990        4.55330       -9.92140
C         -1.61350        4.40200       -9.59560
Cl        -2.80940        5.53990      -10.06440
Cl         0.35210        5.91610      -10.78270
C         -3.59180        1.48510       -8.46090
S         -2.59560        0.15400       -8.98460
C         -3.45690        4.83120       -6.94510
C         -4.25790        5.25790       -5.92420
S         -5.77350        4.36540       -5.87300
C         -3.83060        6.01610       -4.79720
S         -2.10010        6.11280       -4.52680
C         -2.36920        6.54560       -2.88350
C         -1.44220        6.52760       -1.81440
C         -1.92920        6.68750       -0.52530
Ge        -3.86860        7.04590       -0.64330
C         -4.94980        5.64430        0.29840
C         -4.53600        4.23960       -0.11110
C         -4.35050        8.94140       -0.18910
C         -4.11270        9.26570        1.27740
C         -3.71540        6.70740       -2.58450
C         -4.53290        6.39920       -3.67360
C         -0.96150        6.39970        0.43800
C          0.24930        6.00900       -0.09890
S          0.21440        6.04890       -1.84530
C          1.40860        5.52310        0.56220
S          1.45220        5.33210        2.29800
C          3.04220        4.66750        2.20210
C          3.90340        4.21520        3.23810
C          5.15720        3.75120        2.88420
Ge         5.36420        3.93540        0.93210
C          6.62910        5.44920        0.54510
C          7.87630        5.41980        1.41600
C          5.79370        2.32220       -0.19220
C          7.26500        1.94470       -0.14130
C          3.50880        4.59810        0.89980
C          2.58060        5.08360       -0.01900
C          5.90880        3.36880        4.00850
C          5.22620        3.52340        5.17590
S          3.63920        4.15370        4.94190
H          1.76060       -8.01160       14.54930
H          6.36080       -4.33940       12.49140
H          6.36520       -3.79010       10.82310
H          5.86150       -6.11630       10.04960
H          5.85900       -6.67050       11.72240
H          7.35290       -6.07310       10.99430
H          3.83310       -2.24300       13.23340
H          2.32960       -2.38760       12.33620
H          4.95240       -1.28240       11.21060
H          3.44680       -1.44240       10.30580
H          3.54450       -0.32210       11.66580
H          3.39690       -5.96640       14.60910
H          3.53000       -3.53220        8.16940
H          0.47340       -6.63390        6.10580
H         -3.60290       -8.98950        6.19890
H         -3.50540      -10.38410        5.10570
H         -4.99290       -9.21120        3.48350
H         -5.77780       -9.37380        5.05780
H         -5.08860       -7.82120        4.56930
H          6.48350       -0.46300        2.27930
H          5.57980        1.02790        2.61070
H          5.39600        0.38690        5.00470
H          7.09000        0.41310        4.51040
H          6.24400       -1.12870        4.67900
H          1.54560       -3.04600        0.00540
H         -2.27050       -5.27550       -1.70050
H         -8.18120       -6.62420       -3.03840
H         -8.33080       -5.09010       -3.91800
H         -9.20130       -4.85820       -1.60570
H         -7.77070       -3.84280       -1.83050
H         -7.64310       -5.36970       -0.95200
H          4.82960       -1.69970       -6.81980
H          4.53530        0.04940       -6.88770
H          4.71790        0.17140       -4.40390
H          4.99830       -1.57070       -4.33310
H          6.18570       -0.51530       -5.10860
H         -1.02920       -1.61460       -7.67970
H         -5.62220       -0.93800       -7.30770
H         -9.01120       -0.21660       -3.13130
H        -10.39640       -0.24630       -4.22900
H         -9.60550       -2.54870       -3.72190
H         -9.36600       -2.19260       -5.43540
H         -7.99240       -2.14780       -4.32680
H          2.38290        4.10980      -10.32560
H          2.49190        3.52630       -8.65990
H          1.91700        1.75840      -11.08520
H          3.45910        1.86720      -10.22960
H          2.03870        1.20600       -9.41270
H         -2.48800        5.25800       -7.13330
H         -6.00280        5.81000        0.07160
H         -4.82350        5.77490        1.37300
H         -3.48690        4.06670        0.12220
H         -5.13160        3.49490        0.41420
H         -4.67250        4.09610       -1.18150
H         -3.75160        9.59750       -0.82050
H         -5.39630        9.10470       -0.44780
H         -4.72970        8.63700        1.91610
H         -3.07000        9.09970        1.54000
H         -4.35730       10.30620        1.48380
H         -5.60930        6.39690       -3.64200
H         -1.13200        6.43520        1.50080
H          6.90570        5.41160       -0.50830
H          6.09390        6.38520        0.70470
H          8.43660        4.49970        1.26460
H          8.52810        6.25930        1.17930
H          7.60550        5.48280        2.46800
H          5.51150        2.57440       -1.21460
H          5.17890        1.48090        0.11690
H          7.88450        2.75710       -0.51490
H          7.45240        1.06540       -0.75590
H          7.57210        1.72060        0.87820
H          2.74040        5.11400       -1.08320
H          6.91770        2.99720        3.95750
H          5.55630        3.30820        6.17350
