
  xtb     03022218293D
 energy: -463.677247917727 gnorm: 0.000194604720 xtb: 6.4.1 (unknown)
239266  0     0  0            999 V2000
    6.2591   -4.5268  -15.1387 C   0  0  0  0  0  0  0  0  0  0  0  0
    6.9824   -4.4398  -14.0041 C   0  0  0  0  0  0  0  0  0  0  0  0
    6.6858   -3.2690  -13.2461 C   0  0  0  0  0  0  0  0  0  0  0  0
    7.2404   -2.8621  -12.0219 C   0  0  0  0  0  0  0  0  0  0  0  0
    8.2595   -3.6499  -11.3443 C   0  0  0  0  0  0  0  0  0  0  0  0
    9.7627   -4.0599  -12.1156 S   0  0  0  0  0  0  0  0  0  0  0  0
   10.3393   -4.9052  -10.7202 C   0  0  0  0  0  0  0  0  0  0  0  0
   11.6992   -5.5103  -10.6832 C   0  0  0  0  0  0  0  0  0  0  0  0
   12.7185   -4.5256  -10.1046 C   0  0  0  0  0  0  0  0  0  0  0  0
    9.4123   -4.8581   -9.7224 C   0  0  0  0  0  0  0  0  0  0  0  0
    9.6258   -5.5922   -8.1867 Cl  0  0  0  0  0  0  0  0  0  0  0  0
    8.2317   -4.1495  -10.0723 C   0  0  0  0  0  0  0  0  0  0  0  0
    6.8890   -4.0190   -9.0154 Cl  0  0  0  0  0  0  0  0  0  0  0  0
    6.7647   -1.6771  -11.4746 C   0  0  0  0  0  0  0  0  0  0  0  0
    5.7566   -0.9041  -12.0994 C   0  0  0  0  0  0  0  0  0  0  0  0
    5.2110   -1.3005  -13.3307 C   0  0  0  0  0  0  0  0  0  0  0  0
    4.2011   -0.4741  -13.9719 C   0  0  0  0  0  0  0  0  0  0  0  0
    2.6481   -1.1091  -14.4253 S   0  0  0  0  0  0  0  0  0  0  0  0
    2.0830    0.4382  -14.9553 C   0  0  0  0  0  0  0  0  0  0  0  0
    0.6862    0.6325  -15.4325 C   0  0  0  0  0  0  0  0  0  0  0  0
   -0.2374    0.9997  -14.2678 C   0  0  0  0  0  0  0  0  0  0  0  0
    3.0539    1.3806  -14.7893 C   0  0  0  0  0  0  0  0  0  0  0  0
    4.2562    0.8674  -14.2360 C   0  0  0  0  0  0  0  0  0  0  0  0
    5.6498    1.8434  -13.9995 Cl  0  0  0  0  0  0  0  0  0  0  0  0
    2.8618    3.0343  -15.1992 Cl  0  0  0  0  0  0  0  0  0  0  0  0
    5.6826   -2.4890  -13.8702 C   0  0  0  0  0  0  0  0  0  0  0  0
    5.1669   -3.2050  -15.3706 S   0  0  0  0  0  0  0  0  0  0  0  0
    5.4054    0.2267  -11.3278 C   0  0  0  0  0  0  0  0  0  0  0  0
    6.1453    0.3633  -10.1903 C   0  0  0  0  0  0  0  0  0  0  0  0
    7.3005   -0.9336   -9.9925 S   0  0  0  0  0  0  0  0  0  0  0  0
    5.9709    1.4174   -9.2423 C   0  0  0  0  0  0  0  0  0  0  0  0
    5.3003    2.5791   -9.4922 C   0  0  0  0  0  0  0  0  0  0  0  0
    5.1193    3.3845   -8.3459 C   0  0  0  0  0  0  0  0  0  0  0  0
    4.3472    4.5551   -8.2414 C   0  0  0  0  0  0  0  0  0  0  0  0
    3.6042    5.0397   -9.3943 C   0  0  0  0  0  0  0  0  0  0  0  0
    3.7795    6.6627   -9.9892 S   0  0  0  0  0  0  0  0  0  0  0  0
    2.6865    6.3834  -11.3015 C   0  0  0  0  0  0  0  0  0  0  0  0
    2.4150    7.4280  -12.3272 C   0  0  0  0  0  0  0  0  0  0  0  0
    3.3496    7.2644  -13.5288 C   0  0  0  0  0  0  0  0  0  0  0  0
    2.2186    5.1036  -11.2645 C   0  0  0  0  0  0  0  0  0  0  0  0
    1.1145    4.4572  -12.4049 Cl  0  0  0  0  0  0  0  0  0  0  0  0
    2.7319    4.3405  -10.1834 C   0  0  0  0  0  0  0  0  0  0  0  0
    2.2291    2.7250   -9.8824 Cl  0  0  0  0  0  0  0  0  0  0  0  0
    4.2815    5.1518   -6.9931 C   0  0  0  0  0  0  0  0  0  0  0  0
    4.9394    4.6189   -5.8559 C   0  0  0  0  0  0  0  0  0  0  0  0
    5.6991    3.4384   -5.9573 C   0  0  0  0  0  0  0  0  0  0  0  0
    6.3344    2.8463   -4.7916 C   0  0  0  0  0  0  0  0  0  0  0  0
    5.4358    2.5281   -3.3347 S   0  0  0  0  0  0  0  0  0  0  0  0
    6.8145    1.8569   -2.5323 C   0  0  0  0  0  0  0  0  0  0  0  0
    6.7121    1.3265   -1.1448 C   0  0  0  0  0  0  0  0  0  0  0  0
    6.0328   -0.0444   -1.1253 C   0  0  0  0  0  0  0  0  0  0  0  0
    7.8956    1.8734   -3.3612 C   0  0  0  0  0  0  0  0  0  0  0  0
    7.6291    2.4335   -4.6403 C   0  0  0  0  0  0  0  0  0  0  0  0
    8.8527    2.6403   -5.8219 Cl  0  0  0  0  0  0  0  0  0  0  0  0
    9.4498    1.2943   -2.9210 Cl  0  0  0  0  0  0  0  0  0  0  0  0
    5.7606    2.8370   -7.2081 C   0  0  0  0  0  0  0  0  0  0  0  0
    6.5051    1.3072   -7.5813 S   0  0  0  0  0  0  0  0  0  0  0  0
    4.6537    5.3652   -4.6909 C   0  0  0  0  0  0  0  0  0  0  0  0
    3.7755    6.3918   -4.8916 C   0  0  0  0  0  0  0  0  0  0  0  0
    3.3148    6.5423   -6.5773 S   0  0  0  0  0  0  0  0  0  0  0  0
    3.1488    7.1608   -3.8731 C   0  0  0  0  0  0  0  0  0  0  0  0
    3.4911    6.7569   -2.2076 S   0  0  0  0  0  0  0  0  0  0  0  0
    2.2154    7.7865   -1.6869 C   0  0  0  0  0  0  0  0  0  0  0  0
    1.6239    7.8516   -0.4035 C   0  0  0  0  0  0  0  0  0  0  0  0
    0.4471    8.5738   -0.2594 C   0  0  0  0  0  0  0  0  0  0  0  0
    0.0442    9.4346   -1.9941 Ge  0  0  0  0  0  4  0  0  0  0  0  0
   -1.7006    8.7893   -2.7414 C   0  0  0  0  0  0  0  0  0  0  0  0
   -1.8137    7.2735   -2.6922 C   0  0  0  0  0  0  0  0  0  0  0  0
    0.2805   11.4285   -1.9670 C   0  0  0  0  0  0  0  0  0  0  0  0
   -0.7464   12.1226   -1.0858 C   0  0  0  0  0  0  0  0  0  0  0  0
    1.5935    8.4507   -2.7341 C   0  0  0  0  0  0  0  0  0  0  0  0
    2.1354    8.0922   -3.9700 C   0  0  0  0  0  0  0  0  0  0  0  0
   -0.1656    8.3268    0.9697 C   0  0  0  0  0  0  0  0  0  0  0  0
    0.5286    7.4260    1.7549 C   0  0  0  0  0  0  0  0  0  0  0  0
    2.0125    6.9205    0.9876 S   0  0  0  0  0  0  0  0  0  0  0  0
    0.0964    6.7106    2.9085 C   0  0  0  0  0  0  0  0  0  0  0  0
   -1.1613    6.6266    3.4366 C   0  0  0  0  0  0  0  0  0  0  0  0
   -1.3195    5.5492    4.3431 C   0  0  0  0  0  0  0  0  0  0  0  0
   -2.5041    5.0802    4.9384 C   0  0  0  0  0  0  0  0  0  0  0  0
   -3.7832    5.7347    4.7106 C   0  0  0  0  0  0  0  0  0  0  0  0
   -4.7704    6.2656    6.0388 S   0  0  0  0  0  0  0  0  0  0  0  0
   -6.0072    6.8583    4.9842 C   0  0  0  0  0  0  0  0  0  0  0  0
   -7.2160    7.5441    5.5184 C   0  0  0  0  0  0  0  0  0  0  0  0
   -6.9550    9.0395    5.7148 C   0  0  0  0  0  0  0  0  0  0  0  0
   -5.6589    6.6523    3.6827 C   0  0  0  0  0  0  0  0  0  0  0  0
   -6.6365    7.1071    2.3471 Cl  0  0  0  0  0  0  0  0  0  0  0  0
   -4.4024    6.0094    3.5233 C   0  0  0  0  0  0  0  0  0  0  0  0
   -3.7846    5.5586    1.9851 Cl  0  0  0  0  0  0  0  0  0  0  0  0
   -2.4166    3.9147    5.6885 C   0  0  0  0  0  0  0  0  0  0  0  0
   -1.2009    3.2190    5.8913 C   0  0  0  0  0  0  0  0  0  0  0  0
   -0.0018    3.7189    5.3500 C   0  0  0  0  0  0  0  0  0  0  0  0
    1.2575    3.0287    5.5593 C   0  0  0  0  0  0  0  0  0  0  0  0
    2.3204    2.6665    4.2311 S   0  0  0  0  0  0  0  0  0  0  0  0
    3.4632    1.8737    5.2568 C   0  0  0  0  0  0  0  0  0  0  0  0
    4.7175    1.2649    4.7278 C   0  0  0  0  0  0  0  0  0  0  0  0
    5.0073    1.6719    3.2896 C   0  0  0  0  0  0  0  0  0  0  0  0
    3.0340    1.8991    6.5516 C   0  0  0  0  0  0  0  0  0  0  0  0
    1.7865    2.5520    6.7290 C   0  0  0  0  0  0  0  0  0  0  0  0
    1.0834    2.7792    8.2795 Cl  0  0  0  0  0  0  0  0  0  0  0  0
    3.9107    1.2042    7.8543 Cl  0  0  0  0  0  0  0  0  0  0  0  0
   -0.1043    4.8493    4.5534 C   0  0  0  0  0  0  0  0  0  0  0  0
    1.1924    5.5478    3.6320 S   0  0  0  0  0  0  0  0  0  0  0  0
   -1.4055    1.9721    6.5243 C   0  0  0  0  0  0  0  0  0  0  0  0
   -2.7152    1.7087    6.8038 C   0  0  0  0  0  0  0  0  0  0  0  0
   -3.7683    3.0264    6.3374 S   0  0  0  0  0  0  0  0  0  0  0  0
   -3.2233    0.4698    7.2997 C   0  0  0  0  0  0  0  0  0  0  0  0
   -2.4856   -0.5508    7.8263 C   0  0  0  0  0  0  0  0  0  0  0  0
   -3.2348   -1.7260    8.0654 C   0  0  0  0  0  0  0  0  0  0  0  0
   -2.7479   -2.9776    8.4863 C   0  0  0  0  0  0  0  0  0  0  0  0
   -1.3764   -3.1254    8.9357 C   0  0  0  0  0  0  0  0  0  0  0  0
   -0.3403   -4.3796    8.3213 S   0  0  0  0  0  0  0  0  0  0  0  0
    1.0008   -3.8482    9.2771 C   0  0  0  0  0  0  0  0  0  0  0  0
    2.2974   -4.5791    9.2568 C   0  0  0  0  0  0  0  0  0  0  0  0
    2.2502   -5.7948   10.1855 C   0  0  0  0  0  0  0  0  0  0  0  0
    0.6469   -2.7721   10.0356 C   0  0  0  0  0  0  0  0  0  0  0  0
    1.7111   -1.9701   11.1170 Cl  0  0  0  0  0  0  0  0  0  0  0  0
   -0.6972   -2.3560    9.8423 C   0  0  0  0  0  0  0  0  0  0  0  0
   -1.3964   -1.0674   10.7357 Cl  0  0  0  0  0  0  0  0  0  0  0  0
   -3.6283   -4.0478    8.4050 C   0  0  0  0  0  0  0  0  0  0  0  0
   -4.9797   -3.9004    8.0054 C   0  0  0  0  0  0  0  0  0  0  0  0
   -5.4913   -2.6321    7.6706 C   0  0  0  0  0  0  0  0  0  0  0  0
   -6.8704   -2.4593    7.2484 C   0  0  0  0  0  0  0  0  0  0  0  0
   -7.5735   -3.4704    6.0163 S   0  0  0  0  0  0  0  0  0  0  0  0
   -9.0938   -2.6491    6.0908 C   0  0  0  0  0  0  0  0  0  0  0  0
  -10.2179   -3.0342    5.1943 C   0  0  0  0  0  0  0  0  0  0  0  0
  -10.0516   -2.4112    3.8064 C   0  0  0  0  0  0  0  0  0  0  0  0
   -9.0412   -1.6447    7.0102 C   0  0  0  0  0  0  0  0  0  0  0  0
   -7.7864   -1.5340    7.6684 C   0  0  0  0  0  0  0  0  0  0  0  0
   -7.5110   -0.4036    8.9263 Cl  0  0  0  0  0  0  0  0  0  0  0  0
  -10.3598   -0.6069    7.3694 Cl  0  0  0  0  0  0  0  0  0  0  0  0
   -4.5933   -1.5718    7.6917 C   0  0  0  0  0  0  0  0  0  0  0  0
   -4.9098    0.0426    7.1236 S   0  0  0  0  0  0  0  0  0  0  0  0
   -5.6540   -5.1421    7.9729 C   0  0  0  0  0  0  0  0  0  0  0  0
   -4.8606   -6.2063    8.2925 C   0  0  0  0  0  0  0  0  0  0  0  0
   -3.2407   -5.7136    8.7308 S   0  0  0  0  0  0  0  0  0  0  0  0
   -5.2236   -7.5824    8.1818 C   0  0  0  0  0  0  0  0  0  0  0  0
   -6.4251   -8.0606    7.7452 C   0  0  0  0  0  0  0  0  0  0  0  0
   -6.4487   -9.4650    7.5814 C   0  0  0  0  0  0  0  0  0  0  0  0
   -7.4839  -10.2497    7.0467 C   0  0  0  0  0  0  0  0  0  0  0  0
   -8.6805   -9.6238    6.5099 C   0  0  0  0  0  0  0  0  0  0  0  0
  -10.2756  -10.1245    6.9862 S   0  0  0  0  0  0  0  0  0  0  0  0
  -11.0346   -8.9447    5.9740 C   0  0  0  0  0  0  0  0  0  0  0  0
  -12.5143   -8.7829    5.9390 C   0  0  0  0  0  0  0  0  0  0  0  0
  -12.9760   -7.7358    6.9557 C   0  0  0  0  0  0  0  0  0  0  0  0
  -10.0931   -8.2109    5.3157 C   0  0  0  0  0  0  0  0  0  0  0  0
  -10.4640   -6.9401    4.2251 Cl  0  0  0  0  0  0  0  0  0  0  0  0
   -8.7586   -8.5964    5.6079 C   0  0  0  0  0  0  0  0  0  0  0  0
   -7.4078   -7.8812    4.8209 Cl  0  0  0  0  0  0  0  0  0  0  0  0
   -7.2773  -11.6231    7.0167 C   0  0  0  0  0  0  0  0  0  0  0  0
   -6.0723  -12.2280    7.4469 C   0  0  0  0  0  0  0  0  0  0  0  0
   -5.0198  -11.4375    7.9359 C   0  0  0  0  0  0  0  0  0  0  0  0
   -3.7490  -12.0191    8.3397 C   0  0  0  0  0  0  0  0  0  0  0  0
   -2.8267  -13.0170    7.2540 S   0  0  0  0  0  0  0  0  0  0  0  0
   -1.5471  -13.2209    8.4010 C   0  0  0  0  0  0  0  0  0  0  0  0
   -0.3173  -13.9880    8.0609 C   0  0  0  0  0  0  0  0  0  0  0  0
    0.7134  -13.0894    7.3730 C   0  0  0  0  0  0  0  0  0  0  0  0
   -1.8309  -12.5457    9.5502 C   0  0  0  0  0  0  0  0  0  0  0  0
   -3.0781  -11.8653    9.5207 C   0  0  0  0  0  0  0  0  0  0  0  0
   -3.6925  -11.0139   10.8749 Cl  0  0  0  0  0  0  0  0  0  0  0  0
   -0.7987  -12.5152   10.9203 Cl  0  0  0  0  0  0  0  0  0  0  0  0
   -5.2331  -10.0657    7.9912 C   0  0  0  0  0  0  0  0  0  0  0  0
   -4.0730   -8.8646    8.4820 S   0  0  0  0  0  0  0  0  0  0  0  0
   -6.1176  -13.6456    7.3005 C   0  0  0  0  0  0  0  0  0  0  0  0
   -7.2797  -14.0808    6.7732 C   0  0  0  0  0  0  0  0  0  0  0  0
   -8.4004  -12.8115    6.4188 S   0  0  0  0  0  0  0  0  0  0  0  0
    6.2883   -5.3010  -15.8802 H   0  0  0  0  0  0  0  0  0  0  0  0
    7.7048   -5.1747  -13.6999 H   0  0  0  0  0  0  0  0  0  0  0  0
   11.6676   -6.4072  -10.0610 H   0  0  0  0  0  0  0  0  0  0  0  0
   11.9972   -5.7940  -11.6937 H   0  0  0  0  0  0  0  0  0  0  0  0
   12.4373   -4.2447   -9.0930 H   0  0  0  0  0  0  0  0  0  0  0  0
   12.7644   -3.6267  -10.7148 H   0  0  0  0  0  0  0  0  0  0  0  0
   13.7045   -4.9814  -10.0788 H   0  0  0  0  0  0  0  0  0  0  0  0
    0.6741    1.4350  -16.1729 H   0  0  0  0  0  0  0  0  0  0  0  0
    0.3332   -0.2859  -15.9039 H   0  0  0  0  0  0  0  0  0  0  0  0
   -0.2411    0.2065  -13.5240 H   0  0  0  0  0  0  0  0  0  0  0  0
    0.1000    1.9178  -13.7939 H   0  0  0  0  0  0  0  0  0  0  0  0
   -1.2522    1.1466  -14.6276 H   0  0  0  0  0  0  0  0  0  0  0  0
    4.6037    0.8915  -11.5861 H   0  0  0  0  0  0  0  0  0  0  0  0
    4.9543    2.8558  -10.4697 H   0  0  0  0  0  0  0  0  0  0  0  0
    2.5560    8.4150  -11.8843 H   0  0  0  0  0  0  0  0  0  0  0  0
    1.3785    7.3366  -12.6592 H   0  0  0  0  0  0  0  0  0  0  0  0
    3.2114    6.2868  -13.9837 H   0  0  0  0  0  0  0  0  0  0  0  0
    3.1379    8.0273  -14.2731 H   0  0  0  0  0  0  0  0  0  0  0  0
    4.3868    7.3586  -13.2165 H   0  0  0  0  0  0  0  0  0  0  0  0
    6.1358    2.0229   -0.5321 H   0  0  0  0  0  0  0  0  0  0  0  0
    7.7184    1.2454   -0.7303 H   0  0  0  0  0  0  0  0  0  0  0  0
    5.0273    0.0280   -1.5329 H   0  0  0  0  0  0  0  0  0  0  0  0
    6.5993   -0.7551   -1.7216 H   0  0  0  0  0  0  0  0  0  0  0  0
    5.9703   -0.4158   -0.1059 H   0  0  0  0  0  0  0  0  0  0  0  0
    5.0511    5.1343   -3.7196 H   0  0  0  0  0  0  0  0  0  0  0  0
   -2.5093    9.2444   -2.1700 H   0  0  0  0  0  0  0  0  0  0  0  0
   -1.7887    9.1425   -3.7687 H   0  0  0  0  0  0  0  0  0  0  0  0
   -1.7424    6.9172   -1.6661 H   0  0  0  0  0  0  0  0  0  0  0  0
   -1.0148    6.8099   -3.2681 H   0  0  0  0  0  0  0  0  0  0  0  0
   -2.7674    6.9472   -3.1029 H   0  0  0  0  0  0  0  0  0  0  0  0
    1.2876   11.6400   -1.6085 H   0  0  0  0  0  0  0  0  0  0  0  0
    0.2131   11.7985   -2.9896 H   0  0  0  0  0  0  0  0  0  0  0  0
   -0.5776   13.1979   -1.0769 H   0  0  0  0  0  0  0  0  0  0  0  0
   -0.6811   11.7565   -0.0634 H   0  0  0  0  0  0  0  0  0  0  0  0
   -1.7549   11.9390   -1.4508 H   0  0  0  0  0  0  0  0  0  0  0  0
    1.7824    8.4582   -4.9191 H   0  0  0  0  0  0  0  0  0  0  0  0
   -1.1063    8.7546    1.2691 H   0  0  0  0  0  0  0  0  0  0  0  0
   -1.9642    7.2754    3.1422 H   0  0  0  0  0  0  0  0  0  0  0  0
   -8.0381    7.4067    4.8133 H   0  0  0  0  0  0  0  0  0  0  0  0
   -7.4939    7.0946    6.4729 H   0  0  0  0  0  0  0  0  0  0  0  0
   -6.1384    9.1906    6.4167 H   0  0  0  0  0  0  0  0  0  0  0  0
   -6.6904    9.5032    4.7678 H   0  0  0  0  0  0  0  0  0  0  0  0
   -7.8451    9.5258    6.1042 H   0  0  0  0  0  0  0  0  0  0  0  0
    4.6349    0.1750    4.7939 H   0  0  0  0  0  0  0  0  0  0  0  0
    5.5448    1.5627    5.3784 H   0  0  0  0  0  0  0  0  0  0  0  0
    5.9383    1.2230    2.9534 H   0  0  0  0  0  0  0  0  0  0  0  0
    5.0931    2.7528    3.2102 H   0  0  0  0  0  0  0  0  0  0  0  0
    4.2049    1.3438    2.6327 H   0  0  0  0  0  0  0  0  0  0  0  0
   -0.6177    1.2649    6.7004 H   0  0  0  0  0  0  0  0  0  0  0  0
   -1.4293   -0.4788    8.0025 H   0  0  0  0  0  0  0  0  0  0  0  0
    3.0876   -3.8995    9.5807 H   0  0  0  0  0  0  0  0  0  0  0  0
    2.5127   -4.9086    8.2388 H   0  0  0  0  0  0  0  0  0  0  0  0
    2.0525   -5.4808   11.2072 H   0  0  0  0  0  0  0  0  0  0  0  0
    3.2007   -6.3210   10.1603 H   0  0  0  0  0  0  0  0  0  0  0  0
    1.4631   -6.4770    9.8729 H   0  0  0  0  0  0  0  0  0  0  0  0
  -10.2496   -4.1211    5.0989 H   0  0  0  0  0  0  0  0  0  0  0  0
  -11.1537   -2.6931    5.6407 H   0  0  0  0  0  0  0  0  0  0  0  0
  -10.0309   -1.3266    3.8788 H   0  0  0  0  0  0  0  0  0  0  0  0
   -9.1228   -2.7478    3.3519 H   0  0  0  0  0  0  0  0  0  0  0  0
  -10.8792   -2.7032    3.1657 H   0  0  0  0  0  0  0  0  0  0  0  0
   -6.6851   -5.2468    7.6964 H   0  0  0  0  0  0  0  0  0  0  0  0
   -7.2695   -7.4304    7.5424 H   0  0  0  0  0  0  0  0  0  0  0  0
  -12.8103   -8.4689    4.9358 H   0  0  0  0  0  0  0  0  0  0  0  0
  -12.9869   -9.7407    6.1603 H   0  0  0  0  0  0  0  0  0  0  0  0
  -14.0563   -7.6275    6.9142 H   0  0  0  0  0  0  0  0  0  0  0  0
  -12.5206   -6.7731    6.7382 H   0  0  0  0  0  0  0  0  0  0  0  0
  -12.6930   -8.0358    7.9617 H   0  0  0  0  0  0  0  0  0  0  0  0
    0.1082  -14.3932    8.9809 H   0  0  0  0  0  0  0  0  0  0  0  0
   -0.5770  -14.8162    7.3994 H   0  0  0  0  0  0  0  0  0  0  0  0
    0.9879  -12.2643    8.0252 H   0  0  0  0  0  0  0  0  0  0  0  0
    0.3043  -12.6826    6.4513 H   0  0  0  0  0  0  0  0  0  0  0  0
    1.6074  -13.6601    7.1369 H   0  0  0  0  0  0  0  0  0  0  0  0
   -5.3114  -14.2963    7.5849 H   0  0  0  0  0  0  0  0  0  0  0  0
   -7.5693  -15.0915    6.5623 H   0  0  0  0  0  0  0  0  0  0  0  0
  1  2  2  0  0  0  0
  2  3  1  0  0  0  0
  3  4  2  0  0  0  0
  4  5  1  0  0  0  0
  5  6  1  0  0  0  0
  6  7  1  0  0  0  0
  7  8  1  0  0  0  0
  8  9  1  0  0  0  0
  7 10  2  0  0  0  0
 10 11  1  0  0  0  0
 10 12  1  0  0  0  0
 12 13  1  0  0  0  0
  4 14  1  0  0  0  0
 14 15  2  0  0  0  0
 15 16  1  0  0  0  0
 16 17  1  0  0  0  0
 17 18  1  0  0  0  0
 18 19  1  0  0  0  0
 19 20  1  0  0  0  0
 20 21  1  0  0  0  0
 19 22  2  0  0  0  0
 22 23  1  0  0  0  0
 23 24  1  0  0  0  0
 22 25  1  0  0  0  0
 16 26  2  0  0  0  0
 26 27  1  0  0  0  0
 15 28  1  0  0  0  0
 28 29  2  0  0  0  0
 29 30  1  0  0  0  0
 29 31  1  0  0  0  0
 31 32  2  0  0  0  0
 32 33  1  0  0  0  0
 33 34  2  0  0  0  0
 34 35  1  0  0  0  0
 35 36  1  0  0  0  0
 36 37  1  0  0  0  0
 37 38  1  0  0  0  0
 38 39  1  0  0  0  0
 37 40  2  0  0  0  0
 40 41  1  0  0  0  0
 40 42  1  0  0  0  0
 42 43  1  0  0  0  0
 34 44  1  0  0  0  0
 44 45  2  0  0  0  0
 45 46  1  0  0  0  0
 46 47  1  0  0  0  0
 47 48  1  0  0  0  0
 48 49  1  0  0  0  0
 49 50  1  0  0  0  0
 50 51  1  0  0  0  0
 49 52  2  0  0  0  0
 52 53  1  0  0  0  0
 53 54  1  0  0  0  0
 52 55  1  0  0  0  0
 46 56  2  0  0  0  0
 56 57  1  0  0  0  0
 45 58  1  0  0  0  0
 58 59  2  0  0  0  0
 59 60  1  0  0  0  0
 59 61  1  0  0  0  0
 61 62  1  0  0  0  0
 62 63  1  0  0  0  0
 63 64  1  0  0  0  0
 64 65  2  0  0  0  0
 65 66  1  0  0  0  0
 66 67  1  0  0  0  0
 67 68  1  0  0  0  0
 66 69  1  0  0  0  0
 69 70  1  0  0  0  0
 66 71  1  0  0  0  0
 71 72  1  0  0  0  0
 65 73  1  0  0  0  0
 73 74  2  0  0  0  0
 74 75  1  0  0  0  0
 74 76  1  0  0  0  0
 76 77  2  0  0  0  0
 77 78  1  0  0  0  0
 78 79  2  0  0  0  0
 79 80  1  0  0  0  0
 80 81  1  0  0  0  0
 81 82  1  0  0  0  0
 82 83  1  0  0  0  0
 83 84  1  0  0  0  0
 82 85  2  0  0  0  0
 85 86  1  0  0  0  0
 85 87  1  0  0  0  0
 87 88  1  0  0  0  0
 79 89  1  0  0  0  0
 89 90  2  0  0  0  0
 90 91  1  0  0  0  0
 91 92  1  0  0  0  0
 92 93  1  0  0  0  0
 93 94  1  0  0  0  0
 94 95  1  0  0  0  0
 95 96  1  0  0  0  0
 94 97  2  0  0  0  0
 97 98  1  0  0  0  0
 98 99  1  0  0  0  0
 97100  1  0  0  0  0
 91101  2  0  0  0  0
101102  1  0  0  0  0
 90103  1  0  0  0  0
103104  2  0  0  0  0
104105  1  0  0  0  0
104106  1  0  0  0  0
106107  2  0  0  0  0
107108  1  0  0  0  0
108109  2  0  0  0  0
109110  1  0  0  0  0
110111  1  0  0  0  0
111112  1  0  0  0  0
112113  1  0  0  0  0
113114  1  0  0  0  0
112115  2  0  0  0  0
115116  1  0  0  0  0
115117  1  0  0  0  0
117118  1  0  0  0  0
109119  1  0  0  0  0
119120  2  0  0  0  0
120121  1  0  0  0  0
121122  1  0  0  0  0
122123  1  0  0  0  0
123124  1  0  0  0  0
124125  1  0  0  0  0
125126  1  0  0  0  0
124127  2  0  0  0  0
127128  1  0  0  0  0
128129  1  0  0  0  0
127130  1  0  0  0  0
121131  2  0  0  0  0
131132  1  0  0  0  0
120133  1  0  0  0  0
133134  2  0  0  0  0
134135  1  0  0  0  0
134136  1  0  0  0  0
136137  2  0  0  0  0
137138  1  0  0  0  0
138139  2  0  0  0  0
139140  1  0  0  0  0
140141  1  0  0  0  0
141142  1  0  0  0  0
142143  1  0  0  0  0
143144  1  0  0  0  0
142145  2  0  0  0  0
145146  1  0  0  0  0
145147  1  0  0  0  0
147148  1  0  0  0  0
139149  1  0  0  0  0
149150  2  0  0  0  0
150151  1  0  0  0  0
151152  1  0  0  0  0
152153  1  0  0  0  0
153154  1  0  0  0  0
154155  1  0  0  0  0
155156  1  0  0  0  0
154157  2  0  0  0  0
157158  1  0  0  0  0
158159  1  0  0  0  0
157160  1  0  0  0  0
151161  2  0  0  0  0
161162  1  0  0  0  0
150163  1  0  0  0  0
163164  2  0  0  0  0
164165  1  0  0  0  0
 27  1  1  0  0  0  0
 57 31  1  0  0  0  0
 72 61  2  0  0  0  0
102 76  1  0  0  0  0
132106  1  0  0  0  0
162136  1  0  0  0  0
 26  3  1  0  0  0  0
 56 33  1  0  0  0  0
 71 63  2  0  0  0  0
101 78  1  0  0  0  0
131108  1  0  0  0  0
161138  1  0  0  0  0
 12  5  2  0  0  0  0
 30 14  1  0  0  0  0
 42 35  2  0  0  0  0
 60 44  1  0  0  0  0
 75 64  1  0  0  0  0
 87 80  2  0  0  0  0
105 89  1  0  0  0  0
117110  2  0  0  0  0
135119  1  0  0  0  0
147140  2  0  0  0  0
165149  1  0  0  0  0
 23 17  2  0  0  0  0
 53 47  2  0  0  0  0
 98 92  2  0  0  0  0
128122  2  0  0  0  0
158152  2  0  0  0  0
  1166  1  0  0  0  0
  2167  1  0  0  0  0
  8168  1  0  0  0  0
  8169  1  0  0  0  0
  9170  1  0  0  0  0
  9171  1  0  0  0  0
  9172  1  0  0  0  0
 20173  1  0  0  0  0
 20174  1  0  0  0  0
 21175  1  0  0  0  0
 21176  1  0  0  0  0
 21177  1  0  0  0  0
 28178  1  0  0  0  0
 32179  1  0  0  0  0
 38180  1  0  0  0  0
 38181  1  0  0  0  0
 39182  1  0  0  0  0
 39183  1  0  0  0  0
 39184  1  0  0  0  0
 50185  1  0  0  0  0
 50186  1  0  0  0  0
 51187  1  0  0  0  0
 51188  1  0  0  0  0
 51189  1  0  0  0  0
 58190  1  0  0  0  0
 67191  1  0  0  0  0
 67192  1  0  0  0  0
 68193  1  0  0  0  0
 68194  1  0  0  0  0
 68195  1  0  0  0  0
 69196  1  0  0  0  0
 69197  1  0  0  0  0
 70198  1  0  0  0  0
 70199  1  0  0  0  0
 70200  1  0  0  0  0
 72201  1  0  0  0  0
 73202  1  0  0  0  0
 77203  1  0  0  0  0
 83204  1  0  0  0  0
 83205  1  0  0  0  0
 84206  1  0  0  0  0
 84207  1  0  0  0  0
 84208  1  0  0  0  0
 95209  1  0  0  0  0
 95210  1  0  0  0  0
 96211  1  0  0  0  0
 96212  1  0  0  0  0
 96213  1  0  0  0  0
103214  1  0  0  0  0
107215  1  0  0  0  0
113216  1  0  0  0  0
113217  1  0  0  0  0
114218  1  0  0  0  0
114219  1  0  0  0  0
114220  1  0  0  0  0
125221  1  0  0  0  0
125222  1  0  0  0  0
126223  1  0  0  0  0
126224  1  0  0  0  0
126225  1  0  0  0  0
133226  1  0  0  0  0
137227  1  0  0  0  0
143228  1  0  0  0  0
143229  1  0  0  0  0
144230  1  0  0  0  0
144231  1  0  0  0  0
144232  1  0  0  0  0
155233  1  0  0  0  0
155234  1  0  0  0  0
156235  1  0  0  0  0
156236  1  0  0  0  0
156237  1  0  0  0  0
163238  1  0  0  0  0
164239  1  0  0  0  0
M  END
