209

C          2.06830       -9.71850       14.74120
S          0.88690       -9.37420       13.53620
C          1.98750       -9.86830       12.30300
C          1.81440       -9.90810       10.89210
C          2.87580      -10.36110       10.12410
Ge         4.37260      -10.81750       11.32490
C          4.78160      -12.78040       11.34450
C          3.52340      -13.61850       11.50690
C          5.97100       -9.62560       11.08850
C          6.95230       -9.72580       12.24570
C          3.20540      -10.27480       12.81660
C          3.23620      -10.18410       14.21870
C          2.58130      -10.34450        8.76100
C          1.31420       -9.88020        8.48050
S          0.45160       -9.45810        9.93990
C          0.71630       -9.68090        7.20640
C         -0.49740       -9.12150        6.92840
C         -0.75840       -8.98840        5.54400
C         -1.86890       -8.39380        4.91980
C         -2.97180       -7.83370        5.68320
S         -2.71300       -6.64980        6.93100
C         -4.40720       -6.49260        7.24470
C         -4.92350       -5.51900        8.24580
C         -5.16000       -4.15040        7.60230
C         -5.11840       -7.31240        6.42080
Cl        -6.82990       -7.43370        6.43920
C         -4.30970       -8.07570        5.53700
Cl        -4.96740       -9.23770        4.46280
C         -1.84970       -8.32080        3.53290
C         -0.79910       -8.85190        2.74500
C          0.30480       -9.45830        3.36920
C          1.42880       -9.95440        2.59080
S          1.98900      -11.59130        2.75310
C          3.23230      -11.36500        1.57040
C          4.18760      -12.45760        1.23870
C          5.30380      -12.53890        2.28260
C          3.21000      -10.08690        1.09860
C          2.18710       -9.28440        1.67170
Cl         1.99840       -7.62040        1.29010
Cl         4.29690       -9.48240       -0.08400
C          0.29640       -9.50980        4.75470
S          1.58880      -10.12140        5.74880
C         -1.00100       -8.61350        1.36420
C         -2.10810       -7.86290        1.09930
S         -3.01970       -7.49030        2.54860
C         -2.47880       -7.27240       -0.14300
C         -3.46460       -6.35450       -0.35540
C         -3.43070       -5.77680       -1.64710
C         -4.19810       -4.70790       -2.14290
C         -5.26620       -4.09780       -1.36910
S         -5.02500       -3.52710        0.25580
C         -6.65390       -2.96060        0.38510
C         -7.13770       -2.26060        1.60680
C         -6.93680       -0.74820        1.48320
C         -7.33150       -3.20060       -0.77270
Cl        -8.97680       -2.78230       -1.01980
C         -6.55020       -3.84530       -1.76800
Cl        -7.20170       -4.32370       -3.27880
C         -3.85430       -4.21530       -3.39420
C         -2.84600       -4.79090       -4.20810
C         -2.10320       -5.88160       -3.72440
C         -0.99760       -6.45140       -4.47900
S         -0.92000       -8.15600       -4.80990
C          0.59430       -8.00710       -5.63330
C          1.30750       -9.20380       -6.15860
C          2.18280       -9.83110       -5.07060
C          1.00670       -6.70840       -5.63440
C          0.10660       -5.82270       -4.98310
Cl         0.44240       -4.14960       -4.78640
Cl         2.47040       -6.17080       -6.35120
C         -2.40490       -6.33520       -2.44760
S         -1.50250       -7.54190       -1.57390
C         -2.65230       -4.06180       -5.40640
C         -3.38900       -2.91320       -5.46600
S         -4.47270       -2.75190       -4.09980
C         -3.23290       -1.83090       -6.38180
S         -3.58250       -0.21170       -5.83070
C         -2.87350        0.44020       -7.25520
C         -2.55140        1.78730       -7.54950
C         -1.85330        2.05290       -8.71910
Ge        -1.57430        0.34590       -9.67170
C          0.37070       -0.12440       -9.80540
C          1.04610       -0.12470       -8.44280
C         -2.59450        0.21450      -11.39650
C         -2.08360        1.18870      -12.44640
C         -2.44790       -0.54150       -8.14000
C         -2.64780       -1.82520       -7.63100
C         -1.45200        3.38640       -8.79780
C         -1.81980        4.13580       -7.69570
S         -2.73200        3.18050       -6.55430
C         -1.44920        5.46750       -7.36170
S         -1.78950        6.08100       -5.76290
C         -0.91910        7.52520       -6.11090
C         -0.59870        8.60490       -5.25310
C          0.20250        9.62090       -5.75560
Ge         0.62340        9.20760       -7.63750
C          2.57910        8.84830       -7.90030
C          3.10760        7.83750       -6.89460
C         -0.17910       10.51510       -8.93270
C          0.39080       11.91520       -8.76710
C         -0.41770        7.54560       -7.40520
C         -0.72320        6.37890       -8.10540
C          0.50970       10.57190       -4.78320
C         -0.04550       10.29520       -3.55120
S         -0.98970        8.82570       -3.59030
C          0.09790       11.01010       -2.33120
C         -0.45860       10.70630       -1.12270
C         -0.09220       11.59850       -0.08650
C         -0.48140       11.56750        1.26240
C         -1.39290       10.54990        1.76090
S         -2.96070       10.31290        1.04570
C         -3.36350        9.04640        2.15420
C         -4.65570        8.31410        2.05190
C         -4.57430        7.20830        0.99660
C         -2.32950        8.82460        3.01320
Cl        -2.35110        7.63500        4.24980
C         -1.21380        9.67800        2.79800
Cl         0.23270        9.54520        3.70710
C          0.04010       12.55180        2.09370
C          0.93370       13.54950        1.63770
C          1.31320       13.58630        0.28630
C          2.20410       14.62190       -0.21460
S          3.68420       14.22840       -1.03520
C          4.09920       15.89510       -1.24830
C          5.38720       16.29420       -1.87970
C          6.52200       16.29200       -0.85240
C          3.13730       16.69600       -0.70940
C          2.05940       15.97770       -0.12560
Cl         0.68810       16.75400        0.55610
Cl         3.19690       18.41130       -0.72950
C          0.79780       12.60100       -0.54250
S          1.11800       12.43630       -2.24730
C          1.33880       14.41470        2.69550
C          0.75010       14.11420        3.87080
S         -0.31690       12.75630        3.78490
H          1.82030       -9.55230       15.77140
H          5.28890      -13.03540       10.41420
H          5.47600      -12.98190       12.15980
H          3.76640      -14.67950       11.51680
H          2.83130      -13.43130       10.68810
H          3.01850      -13.37230       12.43930
H          5.61070       -8.60180       10.99020
H          6.46300       -9.88940       10.15270
H          7.79470       -9.05350       12.09210
H          6.46640       -9.45740       13.18140
H          7.33730      -10.73920       12.33870
H          4.08740      -10.45410       14.81960
H          3.26420      -10.65140        7.98720
H         -1.17230       -8.79660        7.69940
H         -4.20390       -5.42010        9.06000
H         -5.86360       -5.89800        8.65150
H         -5.88570       -4.23420        6.79730
H         -4.23100       -3.75980        7.19380
H         -5.53850       -3.45030        8.34210
H          3.65390      -13.40900        1.20400
H          4.61740      -12.26010        0.25510
H          4.88410      -12.73070        3.26720
H          5.85620      -11.60320        2.31650
H          5.99230      -13.34160        2.03230
H         -0.33840       -8.95710        0.59090
H         -4.16100       -6.07080        0.41260
H         -6.59330       -2.63240        2.47620
H         -8.19990       -2.47690        1.73820
H         -7.29840       -0.24910        2.37810
H         -7.48320       -0.36550        0.62500
H         -5.88220       -0.51640        1.35490
H          1.93170       -8.90140       -7.00170
H          0.57780       -9.93680       -6.50640
H          2.93310       -9.12010       -4.73400
H          2.68640      -10.71280       -5.45800
H          1.57330      -10.12160       -4.21810
H         -1.94610       -4.34190       -6.16520
H          0.85670        0.59360      -10.46580
H          0.45860       -1.10590      -10.27080
H          2.10200       -0.37180       -8.53680
H          0.57980       -0.85530       -7.78450
H          0.96220        0.85420       -7.97390
H         -2.52310       -0.80870      -11.76430
H         -3.64420        0.41170      -11.18040
H         -2.66880        1.10810      -13.36080
H         -2.15470        2.21160      -12.08260
H         -1.04260        0.98360      -12.68820
H         -2.36680       -2.72770       -8.14500
H         -0.87820        3.79280       -9.61220
H          3.11910        9.79000       -7.80560
H          2.73170        8.48630       -8.91690
H          4.16860        7.65400       -7.05460
H          2.57690        6.89180       -6.98730
H          2.97140        8.20320       -5.87850
H         -1.25670       10.52720       -8.77050
H         -0.00510       10.15340       -9.94570
H         -0.07860       12.60430       -9.46700
H          1.46320       11.91970       -8.95130
H          0.21630       12.28030       -7.75730
H         -0.41570        6.19080       -9.11900
H          1.12880       11.43710       -4.94990
H         -1.10590        9.85980       -0.98220
H         -4.88730        7.87650        3.02460
H         -5.44950        9.01360        1.78390
H         -5.52240        6.68100        0.93440
H         -3.79580        6.49550        1.25680
H         -4.34570        7.63240        0.02170
H          5.27640       17.29530       -2.30020
H          5.62590       15.59870       -2.68590
H          6.63910       15.29980       -0.42310
H          6.30630       16.99450       -0.05140
H          7.45620       16.58040       -1.32650
H          2.04400       15.21530        2.56960
H          0.87630       14.60610        4.81550
