
  xtb     03022217193D
 energy: -330.858286540993 gnorm: 0.000603773260 xtb: 6.4.1 (unknown)
194215  0     0  0            999 V2000
   13.0836   -5.2641   10.3786 C   0  0  0  0  0  0  0  0  0  0  0  0
   12.4375   -4.6952    9.3411 C   0  0  0  0  0  0  0  0  0  0  0  0
   11.3150   -5.4574    8.9030 C   0  0  0  0  0  0  0  0  0  0  0  0
   10.3960   -5.1510    7.8862 C   0  0  0  0  0  0  0  0  0  0  0  0
   10.5274   -3.9522    7.0732 C   0  0  0  0  0  0  0  0  0  0  0  0
   11.9898   -3.6157    6.1943 S   0  0  0  0  0  0  0  0  0  0  0  0
   11.3393   -2.1649    5.5097 C   0  0  0  0  0  0  0  0  0  0  0  0
   12.1247   -1.3501    4.5425 C   0  0  0  0  0  0  0  0  0  0  0  0
   12.0182   -1.9268    3.1287 C   0  0  0  0  0  0  0  0  0  0  0  0
   10.0623   -1.9704    5.9425 C   0  0  0  0  0  0  0  0  0  0  0  0
    9.0891   -0.6345    5.4821 Cl  0  0  0  0  0  0  0  0  0  0  0  0
    9.5990   -2.9792    6.8303 C   0  0  0  0  0  0  0  0  0  0  0  0
    8.0554   -2.9139    7.5712 Cl  0  0  0  0  0  0  0  0  0  0  0  0
    9.3662   -6.0568    7.6703 C   0  0  0  0  0  0  0  0  0  0  0  0
    9.2136   -7.2462    8.4259 C   0  0  0  0  0  0  0  0  0  0  0  0
   10.1073   -7.5285    9.4730 C   0  0  0  0  0  0  0  0  0  0  0  0
    9.9329   -8.7014   10.3119 C   0  0  0  0  0  0  0  0  0  0  0  0
   11.2270   -9.8287   10.5880 S   0  0  0  0  0  0  0  0  0  0  0  0
   10.2487  -10.8210   11.6140 C   0  0  0  0  0  0  0  0  0  0  0  0
   10.7767  -12.0840   12.1993 C   0  0  0  0  0  0  0  0  0  0  0  0
   10.5918  -13.2559   11.2322 C   0  0  0  0  0  0  0  0  0  0  0  0
    8.9940  -10.2997   11.7210 C   0  0  0  0  0  0  0  0  0  0  0  0
    8.8117   -9.0964   10.9887 C   0  0  0  0  0  0  0  0  0  0  0  0
    7.3463   -8.2027   11.0315 Cl  0  0  0  0  0  0  0  0  0  0  0  0
    7.7418  -11.0064   12.6583 Cl  0  0  0  0  0  0  0  0  0  0  0  0
   11.1502   -6.6317    9.6724 C   0  0  0  0  0  0  0  0  0  0  0  0
   12.3788   -6.7559   10.9008 S   0  0  0  0  0  0  0  0  0  0  0  0
    8.1431   -8.0412    7.9520 C   0  0  0  0  0  0  0  0  0  0  0  0
    7.4764   -7.4882    6.8947 C   0  0  0  0  0  0  0  0  0  0  0  0
    8.1594   -5.9456    6.4231 S   0  0  0  0  0  0  0  0  0  0  0  0
    6.3574   -8.0250    6.1980 C   0  0  0  0  0  0  0  0  0  0  0  0
    5.5381   -7.1009    4.9654 S   0  0  0  0  0  0  0  0  0  0  0  0
    4.4378   -8.3977    4.6980 C   0  0  0  0  0  0  0  0  0  0  0  0
    3.3619   -8.5004    3.7817 C   0  0  0  0  0  0  0  0  0  0  0  0
    2.6507   -9.6926    3.7474 C   0  0  0  0  0  0  0  0  0  0  0  0
    3.4092  -10.9194    5.0908 Ge  0  0  0  0  0  4  0  0  0  0  0  0
    2.1607  -11.3520    6.6026 C   0  0  0  0  0  0  0  0  0  0  0  0
    2.8841  -11.9523    7.7980 C   0  0  0  0  0  0  0  0  0  0  0  0
    4.3119  -12.5122    4.2713 C   0  0  0  0  0  0  0  0  0  0  0  0
    5.2421  -12.1132    3.1366 C   0  0  0  0  0  0  0  0  0  0  0  0
    4.6935   -9.4894    5.5193 C   0  0  0  0  0  0  0  0  0  0  0  0
    5.7769   -9.2677    6.3647 C   0  0  0  0  0  0  0  0  0  0  0  0
    1.6328   -9.6725    2.7970 C   0  0  0  0  0  0  0  0  0  0  0  0
    1.5475   -8.4766    2.1089 C   0  0  0  0  0  0  0  0  0  0  0  0
    2.7628   -7.3468    2.6491 S   0  0  0  0  0  0  0  0  0  0  0  0
    0.6280   -8.1318    1.0810 C   0  0  0  0  0  0  0  0  0  0  0  0
    0.4774   -6.4858    0.5185 S   0  0  0  0  0  0  0  0  0  0  0  0
   -0.7410   -6.9588   -0.6053 C   0  0  0  0  0  0  0  0  0  0  0  0
   -1.4761   -6.1761   -1.5292 C   0  0  0  0  0  0  0  0  0  0  0  0
   -2.3953   -6.8270   -2.3421 C   0  0  0  0  0  0  0  0  0  0  0  0
   -2.3890   -8.7442   -1.8920 Ge  0  0  0  0  0  4  0  0  0  0  0  0
   -4.1257   -9.3344   -1.0798 C   0  0  0  0  0  0  0  0  0  0  0  0
   -4.5612   -8.4190    0.0535 C   0  0  0  0  0  0  0  0  0  0  0  0
   -1.7305   -9.9169   -3.3832 C   0  0  0  0  0  0  0  0  0  0  0  0
   -2.6566   -9.9004   -4.5892 C   0  0  0  0  0  0  0  0  0  0  0  0
   -1.0086   -8.3208   -0.5517 C   0  0  0  0  0  0  0  0  0  0  0  0
   -0.2363   -8.9731    0.4061 C   0  0  0  0  0  0  0  0  0  0  0  0
   -3.0660   -5.9475   -3.1882 C   0  0  0  0  0  0  0  0  0  0  0  0
   -2.6786   -4.6296   -3.0314 C   0  0  0  0  0  0  0  0  0  0  0  0
   -1.4412   -4.4755   -1.8091 S   0  0  0  0  0  0  0  0  0  0  0  0
   -3.1871   -3.4893   -3.7104 C   0  0  0  0  0  0  0  0  0  0  0  0
   -2.7354   -1.8752   -3.2234 S   0  0  0  0  0  0  0  0  0  0  0  0
   -3.7631   -1.2006   -4.4322 C   0  0  0  0  0  0  0  0  0  0  0  0
   -4.0428    0.1561   -4.7291 C   0  0  0  0  0  0  0  0  0  0  0  0
   -4.9465    0.4227   -5.7507 C   0  0  0  0  0  0  0  0  0  0  0  0
   -5.5424   -1.2867   -6.5274 Ge  0  0  0  0  0  4  0  0  0  0  0  0
   -4.8585   -1.5699   -8.3913 C   0  0  0  0  0  0  0  0  0  0  0  0
   -3.3801   -1.2342   -8.5084 C   0  0  0  0  0  0  0  0  0  0  0  0
   -7.5055   -1.6426   -6.2976 C   0  0  0  0  0  0  0  0  0  0  0  0
   -7.8747   -3.0905   -6.5794 C   0  0  0  0  0  0  0  0  0  0  0  0
   -4.4122   -2.1751   -5.1790 C   0  0  0  0  0  0  0  0  0  0  0  0
   -4.0807   -3.4630   -4.7654 C   0  0  0  0  0  0  0  0  0  0  0  0
   -5.1633    1.7878   -5.9179 C   0  0  0  0  0  0  0  0  0  0  0  0
   -4.4400    2.5691   -5.0377 C   0  0  0  0  0  0  0  0  0  0  0  0
   -3.4545    1.5908   -3.9808 S   0  0  0  0  0  0  0  0  0  0  0  0
   -4.4536    3.9865   -4.9148 C   0  0  0  0  0  0  0  0  0  0  0  0
   -5.2694    4.8738   -5.5599 C   0  0  0  0  0  0  0  0  0  0  0  0
   -5.0422    6.2214   -5.1945 C   0  0  0  0  0  0  0  0  0  0  0  0
   -5.6956    7.3748   -5.6683 C   0  0  0  0  0  0  0  0  0  0  0  0
   -6.6730    7.2958   -6.7401 C   0  0  0  0  0  0  0  0  0  0  0  0
   -8.2556    8.0002   -6.5884 S   0  0  0  0  0  0  0  0  0  0  0  0
   -8.7191    7.4961   -8.1775 C   0  0  0  0  0  0  0  0  0  0  0  0
  -10.0860    7.7576   -8.7074 C   0  0  0  0  0  0  0  0  0  0  0  0
  -11.0326    6.6007   -8.3782 C   0  0  0  0  0  0  0  0  0  0  0  0
   -7.6994    6.8176   -8.7751 C   0  0  0  0  0  0  0  0  0  0  0  0
   -7.7869    6.1659  -10.3605 Cl  0  0  0  0  0  0  0  0  0  0  0  0
   -6.5372    6.7057   -7.9666 C   0  0  0  0  0  0  0  0  0  0  0  0
   -5.0904    5.9707   -8.5285 Cl  0  0  0  0  0  0  0  0  0  0  0  0
   -5.3583    8.5806   -5.0705 C   0  0  0  0  0  0  0  0  0  0  0  0
   -4.3631    8.6962   -4.0699 C   0  0  0  0  0  0  0  0  0  0  0  0
   -3.6531    7.5552   -3.6550 C   0  0  0  0  0  0  0  0  0  0  0  0
   -2.5629    7.6538   -2.7004 C   0  0  0  0  0  0  0  0  0  0  0  0
   -2.4916    6.6434   -1.2877 S   0  0  0  0  0  0  0  0  0  0  0  0
   -0.9972    7.3427   -0.7670 C   0  0  0  0  0  0  0  0  0  0  0  0
   -0.2999    6.8478    0.4515 C   0  0  0  0  0  0  0  0  0  0  0  0
    0.5160    5.5916    0.1361 C   0  0  0  0  0  0  0  0  0  0  0  0
   -0.5848    8.2936   -1.6520 C   0  0  0  0  0  0  0  0  0  0  0  0
   -1.4718    8.4774   -2.7460 C   0  0  0  0  0  0  0  0  0  0  0  0
   -1.1391    9.5690   -4.0283 Cl  0  0  0  0  0  0  0  0  0  0  0  0
    0.8635    9.1983   -1.4800 Cl  0  0  0  0  0  0  0  0  0  0  0  0
   -4.0340    6.3405   -4.2070 C   0  0  0  0  0  0  0  0  0  0  0  0
   -3.3538    4.7891   -3.8104 S   0  0  0  0  0  0  0  0  0  0  0  0
   -4.2398   10.0239   -3.5954 C   0  0  0  0  0  0  0  0  0  0  0  0
   -5.0681   10.9087   -4.2217 C   0  0  0  0  0  0  0  0  0  0  0  0
   -6.0611   10.1301   -5.4428 S   0  0  0  0  0  0  0  0  0  0  0  0
   -5.1981   12.3045   -3.9865 C   0  0  0  0  0  0  0  0  0  0  0  0
   -4.2136   13.0967   -2.7810 S   0  0  0  0  0  0  0  0  0  0  0  0
   -4.9687   14.6036   -3.1357 C   0  0  0  0  0  0  0  0  0  0  0  0
   -4.7528   15.8853   -2.5583 C   0  0  0  0  0  0  0  0  0  0  0  0
   -5.5082   16.9436   -3.0290 C   0  0  0  0  0  0  0  0  0  0  0  0
   -6.7225   16.2770   -4.4309 Ge  0  0  0  0  0  4  0  0  0  0  0  0
   -8.6510   16.3275   -3.8820 C   0  0  0  0  0  0  0  0  0  0  0  0
   -8.8606   15.7441   -2.4937 C   0  0  0  0  0  0  0  0  0  0  0  0
   -6.3571   17.0174   -6.2609 C   0  0  0  0  0  0  0  0  0  0  0  0
   -6.9936   16.1830   -7.3614 C   0  0  0  0  0  0  0  0  0  0  0  0
   -5.9247   14.5001   -4.1341 C   0  0  0  0  0  0  0  0  0  0  0  0
   -6.0478   13.1940   -4.6081 C   0  0  0  0  0  0  0  0  0  0  0  0
   -5.1957   18.1434   -2.3673 C   0  0  0  0  0  0  0  0  0  0  0  0
   -4.2275   17.9859   -1.4233 C   0  0  0  0  0  0  0  0  0  0  0  0
   -3.6628   16.3625   -1.3094 S   0  0  0  0  0  0  0  0  0  0  0  0
   13.9513   -4.9016   10.8940 H   0  0  0  0  0  0  0  0  0  0  0  0
   12.7320   -3.7638    8.8939 H   0  0  0  0  0  0  0  0  0  0  0  0
   13.1722   -1.3324    4.8489 H   0  0  0  0  0  0  0  0  0  0  0  0
   11.7388   -0.3292    4.5518 H   0  0  0  0  0  0  0  0  0  0  0  0
   10.9807   -1.9402    2.8049 H   0  0  0  0  0  0  0  0  0  0  0  0
   12.5929   -1.3206    2.4338 H   0  0  0  0  0  0  0  0  0  0  0  0
   12.4024   -2.9439    3.1067 H   0  0  0  0  0  0  0  0  0  0  0  0
   11.8374  -11.9615   12.4238 H   0  0  0  0  0  0  0  0  0  0  0  0
   10.2424  -12.2904   13.1287 H   0  0  0  0  0  0  0  0  0  0  0  0
    9.5371  -13.3972   11.0098 H   0  0  0  0  0  0  0  0  0  0  0  0
   10.9802  -14.1696   11.6739 H   0  0  0  0  0  0  0  0  0  0  0  0
   11.1215  -13.0639   10.3022 H   0  0  0  0  0  0  0  0  0  0  0  0
    7.8855   -8.9940    8.3743 H   0  0  0  0  0  0  0  0  0  0  0  0
    1.3985  -12.0403    6.2380 H   0  0  0  0  0  0  0  0  0  0  0  0
    1.6568  -10.4306    6.8933 H   0  0  0  0  0  0  0  0  0  0  0  0
    2.1836  -12.1583    8.6054 H   0  0  0  0  0  0  0  0  0  0  0  0
    3.6411  -11.2648    8.1689 H   0  0  0  0  0  0  0  0  0  0  0  0
    3.3735  -12.8850    7.5247 H   0  0  0  0  0  0  0  0  0  0  0  0
    4.8700  -13.0319    5.0497 H   0  0  0  0  0  0  0  0  0  0  0  0
    3.5449  -13.1968    3.9092 H   0  0  0  0  0  0  0  0  0  0  0  0
    6.0150  -11.4368    3.4970 H   0  0  0  0  0  0  0  0  0  0  0  0
    5.7246  -12.9897    2.7077 H   0  0  0  0  0  0  0  0  0  0  0  0
    4.6886  -11.6048    2.3495 H   0  0  0  0  0  0  0  0  0  0  0  0
    6.1405   -9.9894    7.0746 H   0  0  0  0  0  0  0  0  0  0  0  0
    0.9657  -10.4970    2.6179 H   0  0  0  0  0  0  0  0  0  0  0  0
   -4.8849   -9.3516   -1.8615 H   0  0  0  0  0  0  0  0  0  0  0  0
   -4.0090  -10.3558   -0.7178 H   0  0  0  0  0  0  0  0  0  0  0  0
   -3.8135   -8.4077    0.8443 H   0  0  0  0  0  0  0  0  0  0  0  0
   -4.6872   -7.3996   -0.3065 H   0  0  0  0  0  0  0  0  0  0  0  0
   -5.5064   -8.7537    0.4777 H   0  0  0  0  0  0  0  0  0  0  0  0
   -0.7382   -9.5679   -3.6680 H   0  0  0  0  0  0  0  0  0  0  0  0
   -1.6228  -10.9329   -3.0044 H   0  0  0  0  0  0  0  0  0  0  0  0
   -3.6443  -10.2705   -4.3219 H   0  0  0  0  0  0  0  0  0  0  0  0
   -2.2605  -10.5284   -5.3854 H   0  0  0  0  0  0  0  0  0  0  0  0
   -2.7630   -8.8877   -4.9721 H   0  0  0  0  0  0  0  0  0  0  0  0
   -0.2914  -10.0297    0.5999 H   0  0  0  0  0  0  0  0  0  0  0  0
   -3.8247   -6.2523   -3.8874 H   0  0  0  0  0  0  0  0  0  0  0  0
   -5.4422   -0.9486   -9.0703 H   0  0  0  0  0  0  0  0  0  0  0  0
   -5.0316   -2.6091   -8.6708 H   0  0  0  0  0  0  0  0  0  0  0  0
   -2.7925   -1.8545   -7.8339 H   0  0  0  0  0  0  0  0  0  0  0  0
   -3.2031   -0.1921   -8.2497 H   0  0  0  0  0  0  0  0  0  0  0  0
   -3.0273   -1.4011   -9.5246 H   0  0  0  0  0  0  0  0  0  0  0  0
   -8.0557   -0.9775   -6.9627 H   0  0  0  0  0  0  0  0  0  0  0  0
   -7.7760   -1.3786   -5.2755 H   0  0  0  0  0  0  0  0  0  0  0  0
   -8.9408   -3.2509   -6.4274 H   0  0  0  0  0  0  0  0  0  0  0  0
   -7.3296   -3.7578   -5.9153 H   0  0  0  0  0  0  0  0  0  0  0  0
   -7.6325   -3.3570   -7.6062 H   0  0  0  0  0  0  0  0  0  0  0  0
   -4.4725   -4.3563   -5.2189 H   0  0  0  0  0  0  0  0  0  0  0  0
   -5.8236    2.2026   -6.6586 H   0  0  0  0  0  0  0  0  0  0  0  0
   -6.0301    4.5713   -6.2547 H   0  0  0  0  0  0  0  0  0  0  0  0
  -10.4713    8.6800   -8.2704 H   0  0  0  0  0  0  0  0  0  0  0  0
  -10.0256    7.8803   -9.7908 H   0  0  0  0  0  0  0  0  0  0  0  0
  -10.6669    5.6780   -8.8216 H   0  0  0  0  0  0  0  0  0  0  0  0
  -12.0247    6.8066   -8.7707 H   0  0  0  0  0  0  0  0  0  0  0  0
  -11.1029    6.4659   -7.3016 H   0  0  0  0  0  0  0  0  0  0  0  0
    0.3621    7.6333    0.8206 H   0  0  0  0  0  0  0  0  0  0  0  0
   -1.0363    6.6175    1.2233 H   0  0  0  0  0  0  0  0  0  0  0  0
    1.0172    5.2365    1.0325 H   0  0  0  0  0  0  0  0  0  0  0  0
    1.2663    5.8100   -0.6197 H   0  0  0  0  0  0  0  0  0  0  0  0
   -0.1342    4.8042   -0.2373 H   0  0  0  0  0  0  0  0  0  0  0  0
   -3.5750   10.3169   -2.8032 H   0  0  0  0  0  0  0  0  0  0  0  0
   -9.2326   15.7695   -4.6153 H   0  0  0  0  0  0  0  0  0  0  0  0
   -8.9936   17.3616   -3.9137 H   0  0  0  0  0  0  0  0  0  0  0  0
   -8.2907   16.3032   -1.7540 H   0  0  0  0  0  0  0  0  0  0  0  0
   -9.9127   15.7788   -2.2160 H   0  0  0  0  0  0  0  0  0  0  0  0
   -8.5304   14.7075   -2.4618 H   0  0  0  0  0  0  0  0  0  0  0  0
   -6.7278   18.0414   -6.3013 H   0  0  0  0  0  0  0  0  0  0  0  0
   -5.2766   17.0557   -6.3969 H   0  0  0  0  0  0  0  0  0  0  0  0
   -6.6191   15.1621   -7.3301 H   0  0  0  0  0  0  0  0  0  0  0  0
   -6.7653   16.6023   -8.3398 H   0  0  0  0  0  0  0  0  0  0  0  0
   -8.0753   16.1537   -7.2469 H   0  0  0  0  0  0  0  0  0  0  0  0
   -6.7343   12.8867   -5.3788 H   0  0  0  0  0  0  0  0  0  0  0  0
   -5.6683   19.0865   -2.5804 H   0  0  0  0  0  0  0  0  0  0  0  0
   -3.8017   18.7281   -0.7767 H   0  0  0  0  0  0  0  0  0  0  0  0
  1  2  2  0  0  0  0
  2  3  1  0  0  0  0
  3  4  2  0  0  0  0
  4  5  1  0  0  0  0
  5  6  1  0  0  0  0
  6  7  1  0  0  0  0
  7  8  1  0  0  0  0
  8  9  1  0  0  0  0
  7 10  2  0  0  0  0
 10 11  1  0  0  0  0
 10 12  1  0  0  0  0
 12 13  1  0  0  0  0
  4 14  1  0  0  0  0
 14 15  2  0  0  0  0
 15 16  1  0  0  0  0
 16 17  1  0  0  0  0
 17 18  1  0  0  0  0
 18 19  1  0  0  0  0
 19 20  1  0  0  0  0
 20 21  1  0  0  0  0
 19 22  2  0  0  0  0
 22 23  1  0  0  0  0
 23 24  1  0  0  0  0
 22 25  1  0  0  0  0
 16 26  2  0  0  0  0
 26 27  1  0  0  0  0
 15 28  1  0  0  0  0
 28 29  2  0  0  0  0
 29 30  1  0  0  0  0
 29 31  1  0  0  0  0
 31 32  1  0  0  0  0
 32 33  1  0  0  0  0
 33 34  1  0  0  0  0
 34 35  2  0  0  0  0
 35 36  1  0  0  0  0
 36 37  1  0  0  0  0
 37 38  1  0  0  0  0
 36 39  1  0  0  0  0
 39 40  1  0  0  0  0
 36 41  1  0  0  0  0
 41 42  1  0  0  0  0
 35 43  1  0  0  0  0
 43 44  2  0  0  0  0
 44 45  1  0  0  0  0
 44 46  1  0  0  0  0
 46 47  1  0  0  0  0
 47 48  1  0  0  0  0
 48 49  1  0  0  0  0
 49 50  2  0  0  0  0
 50 51  1  0  0  0  0
 51 52  1  0  0  0  0
 52 53  1  0  0  0  0
 51 54  1  0  0  0  0
 54 55  1  0  0  0  0
 51 56  1  0  0  0  0
 56 57  1  0  0  0  0
 50 58  1  0  0  0  0
 58 59  2  0  0  0  0
 59 60  1  0  0  0  0
 59 61  1  0  0  0  0
 61 62  1  0  0  0  0
 62 63  1  0  0  0  0
 63 64  1  0  0  0  0
 64 65  2  0  0  0  0
 65 66  1  0  0  0  0
 66 67  1  0  0  0  0
 67 68  1  0  0  0  0
 66 69  1  0  0  0  0
 69 70  1  0  0  0  0
 66 71  1  0  0  0  0
 71 72  1  0  0  0  0
 65 73  1  0  0  0  0
 73 74  2  0  0  0  0
 74 75  1  0  0  0  0
 74 76  1  0  0  0  0
 76 77  2  0  0  0  0
 77 78  1  0  0  0  0
 78 79  2  0  0  0  0
 79 80  1  0  0  0  0
 80 81  1  0  0  0  0
 81 82  1  0  0  0  0
 82 83  1  0  0  0  0
 83 84  1  0  0  0  0
 82 85  2  0  0  0  0
 85 86  1  0  0  0  0
 85 87  1  0  0  0  0
 87 88  1  0  0  0  0
 79 89  1  0  0  0  0
 89 90  2  0  0  0  0
 90 91  1  0  0  0  0
 91 92  1  0  0  0  0
 92 93  1  0  0  0  0
 93 94  1  0  0  0  0
 94 95  1  0  0  0  0
 95 96  1  0  0  0  0
 94 97  2  0  0  0  0
 97 98  1  0  0  0  0
 98 99  1  0  0  0  0
 97100  1  0  0  0  0
 91101  2  0  0  0  0
101102  1  0  0  0  0
 90103  1  0  0  0  0
103104  2  0  0  0  0
104105  1  0  0  0  0
104106  1  0  0  0  0
106107  1  0  0  0  0
107108  1  0  0  0  0
108109  1  0  0  0  0
109110  2  0  0  0  0
110111  1  0  0  0  0
111112  1  0  0  0  0
112113  1  0  0  0  0
111114  1  0  0  0  0
114115  1  0  0  0  0
111116  1  0  0  0  0
116117  1  0  0  0  0
110118  1  0  0  0  0
118119  2  0  0  0  0
119120  1  0  0  0  0
 27  1  1  0  0  0  0
 42 31  2  0  0  0  0
 57 46  2  0  0  0  0
 72 61  2  0  0  0  0
102 76  1  0  0  0  0
117106  2  0  0  0  0
 26  3  1  0  0  0  0
 41 33  2  0  0  0  0
 56 48  2  0  0  0  0
 71 63  2  0  0  0  0
101 78  1  0  0  0  0
116108  2  0  0  0  0
 12  5  2  0  0  0  0
 30 14  1  0  0  0  0
 45 34  1  0  0  0  0
 60 49  1  0  0  0  0
 75 64  1  0  0  0  0
 87 80  2  0  0  0  0
105 89  1  0  0  0  0
120109  1  0  0  0  0
 23 17  2  0  0  0  0
 98 92  2  0  0  0  0
  1121  1  0  0  0  0
  2122  1  0  0  0  0
  8123  1  0  0  0  0
  8124  1  0  0  0  0
  9125  1  0  0  0  0
  9126  1  0  0  0  0
  9127  1  0  0  0  0
 20128  1  0  0  0  0
 20129  1  0  0  0  0
 21130  1  0  0  0  0
 21131  1  0  0  0  0
 21132  1  0  0  0  0
 28133  1  0  0  0  0
 37134  1  0  0  0  0
 37135  1  0  0  0  0
 38136  1  0  0  0  0
 38137  1  0  0  0  0
 38138  1  0  0  0  0
 39139  1  0  0  0  0
 39140  1  0  0  0  0
 40141  1  0  0  0  0
 40142  1  0  0  0  0
 40143  1  0  0  0  0
 42144  1  0  0  0  0
 43145  1  0  0  0  0
 52146  1  0  0  0  0
 52147  1  0  0  0  0
 53148  1  0  0  0  0
 53149  1  0  0  0  0
 53150  1  0  0  0  0
 54151  1  0  0  0  0
 54152  1  0  0  0  0
 55153  1  0  0  0  0
 55154  1  0  0  0  0
 55155  1  0  0  0  0
 57156  1  0  0  0  0
 58157  1  0  0  0  0
 67158  1  0  0  0  0
 67159  1  0  0  0  0
 68160  1  0  0  0  0
 68161  1  0  0  0  0
 68162  1  0  0  0  0
 69163  1  0  0  0  0
 69164  1  0  0  0  0
 70165  1  0  0  0  0
 70166  1  0  0  0  0
 70167  1  0  0  0  0
 72168  1  0  0  0  0
 73169  1  0  0  0  0
 77170  1  0  0  0  0
 83171  1  0  0  0  0
 83172  1  0  0  0  0
 84173  1  0  0  0  0
 84174  1  0  0  0  0
 84175  1  0  0  0  0
 95176  1  0  0  0  0
 95177  1  0  0  0  0
 96178  1  0  0  0  0
 96179  1  0  0  0  0
 96180  1  0  0  0  0
103181  1  0  0  0  0
112182  1  0  0  0  0
112183  1  0  0  0  0
113184  1  0  0  0  0
113185  1  0  0  0  0
113186  1  0  0  0  0
114187  1  0  0  0  0
114188  1  0  0  0  0
115189  1  0  0  0  0
115190  1  0  0  0  0
115191  1  0  0  0  0
117192  1  0  0  0  0
118193  1  0  0  0  0
119194  1  0  0  0  0
M  END
