
  xtb     03022222503D
 energy: -375.110589876916 gnorm: 0.000486736415 xtb: 6.4.1 (unknown)
209232  0     0  0            999 V2000
    2.0323   -7.3765   13.7288 C   0  0  0  0  0  0  0  0  0  0  0  0
    1.3504   -7.6859   12.1778 S   0  0  0  0  0  0  0  0  0  0  0  0
    2.2218   -6.3514   11.5178 C   0  0  0  0  0  0  0  0  0  0  0  0
    2.2461   -5.8504   10.1872 C   0  0  0  0  0  0  0  0  0  0  0  0
    3.0503   -4.7517    9.9269 C   0  0  0  0  0  0  0  0  0  0  0  0
    3.9557   -4.2226   11.5966 Ge  0  0  0  0  0  4  0  0  0  0  0  0
    5.9363   -4.5242   11.5047 C   0  0  0  0  0  0  0  0  0  0  0  0
    6.2745   -5.9317   11.0395 C   0  0  0  0  0  0  0  0  0  0  0  0
    3.4150   -2.3991   12.2393 C   0  0  0  0  0  0  0  0  0  0  0  0
    3.8679   -1.2942   11.2978 C   0  0  0  0  0  0  0  0  0  0  0  0
    2.9963   -5.7088   12.4662 C   0  0  0  0  0  0  0  0  0  0  0  0
    2.8776   -6.3093   13.7311 C   0  0  0  0  0  0  0  0  0  0  0  0
    2.9841   -4.3596    8.5902 C   0  0  0  0  0  0  0  0  0  0  0  0
    2.1405   -5.1422    7.8312 C   0  0  0  0  0  0  0  0  0  0  0  0
    1.4055   -6.4042    8.7897 S   0  0  0  0  0  0  0  0  0  0  0  0
    1.8337   -5.0137    6.4494 C   0  0  0  0  0  0  0  0  0  0  0  0
    1.0005   -5.7907    5.6979 C   0  0  0  0  0  0  0  0  0  0  0  0
    0.9025   -5.3773    4.3480 C   0  0  0  0  0  0  0  0  0  0  0  0
    0.1180   -5.9339    3.3235 C   0  0  0  0  0  0  0  0  0  0  0  0
   -0.7431   -7.0807    3.5635 C   0  0  0  0  0  0  0  0  0  0  0  0
   -1.9460   -7.0694    4.8198 S   0  0  0  0  0  0  0  0  0  0  0  0
   -2.4838   -8.6673    4.4294 C   0  0  0  0  0  0  0  0  0  0  0  0
   -3.6210   -9.2996    5.1527 C   0  0  0  0  0  0  0  0  0  0  0  0
   -4.9582   -8.8999    4.5244 C   0  0  0  0  0  0  0  0  0  0  0  0
   -1.7677   -9.1642    3.3820 C   0  0  0  0  0  0  0  0  0  0  0  0
   -2.0111  -10.7248    2.7120 Cl  0  0  0  0  0  0  0  0  0  0  0  0
   -0.7782   -8.2705    2.8909 C   0  0  0  0  0  0  0  0  0  0  0  0
    0.3060   -8.7016    1.6358 Cl  0  0  0  0  0  0  0  0  0  0  0  0
    0.1962   -5.3353    2.0732 C   0  0  0  0  0  0  0  0  0  0  0  0
    1.0377   -4.2293    1.7942 C   0  0  0  0  0  0  0  0  0  0  0  0
    1.8010   -3.6554    2.8257 C   0  0  0  0  0  0  0  0  0  0  0  0
    2.6000   -2.4554    2.6261 C   0  0  0  0  0  0  0  0  0  0  0  0
    4.2718   -2.4073    3.0942 S   0  0  0  0  0  0  0  0  0  0  0  0
    4.4216   -0.7306    2.6864 C   0  0  0  0  0  0  0  0  0  0  0  0
    5.7080   -0.0151    2.9063 C   0  0  0  0  0  0  0  0  0  0  0  0
    6.1379   -0.0913    4.3706 C   0  0  0  0  0  0  0  0  0  0  0  0
    3.2386   -0.2508    2.2096 C   0  0  0  0  0  0  0  0  0  0  0  0
    2.2060   -1.2299    2.1664 C   0  0  0  0  0  0  0  0  0  0  0  0
    0.6093   -0.8625    1.6569 Cl  0  0  0  0  0  0  0  0  0  0  0  0
    2.9803    1.3836    1.7305 Cl  0  0  0  0  0  0  0  0  0  0  0  0
    1.7226   -4.2553    4.0749 C   0  0  0  0  0  0  0  0  0  0  0  0
    2.5581   -3.7225    5.5075 S   0  0  0  0  0  0  0  0  0  0  0  0
    0.9595   -3.8382    0.4349 C   0  0  0  0  0  0  0  0  0  0  0  0
    0.0481   -4.5543   -0.2833 C   0  0  0  0  0  0  0  0  0  0  0  0
   -0.7388   -5.7876    0.6780 S   0  0  0  0  0  0  0  0  0  0  0  0
   -0.3350   -4.3663   -1.6453 C   0  0  0  0  0  0  0  0  0  0  0  0
   -1.5048   -4.7437   -2.2350 C   0  0  0  0  0  0  0  0  0  0  0  0
   -1.6377   -4.2954   -3.5730 C   0  0  0  0  0  0  0  0  0  0  0  0
   -2.7883   -4.3289   -4.3873 C   0  0  0  0  0  0  0  0  0  0  0  0
   -3.9952   -5.0112   -3.9551 C   0  0  0  0  0  0  0  0  0  0  0  0
   -5.5442   -4.2192   -3.9799 S   0  0  0  0  0  0  0  0  0  0  0  0
   -6.3575   -5.6182   -3.3647 C   0  0  0  0  0  0  0  0  0  0  0  0
   -7.8215   -5.5956   -3.0953 C   0  0  0  0  0  0  0  0  0  0  0  0
   -8.1295   -4.8681   -1.7847 C   0  0  0  0  0  0  0  0  0  0  0  0
   -5.4677   -6.6281   -3.1522 C   0  0  0  0  0  0  0  0  0  0  0  0
   -5.8985   -8.1757   -2.5491 Cl  0  0  0  0  0  0  0  0  0  0  0  0
   -4.1287   -6.2900   -3.4884 C   0  0  0  0  0  0  0  0  0  0  0  0
   -2.8413   -7.4211   -3.3869 Cl  0  0  0  0  0  0  0  0  0  0  0  0
   -2.7415   -3.6017   -5.5687 C   0  0  0  0  0  0  0  0  0  0  0  0
   -1.5691   -2.9478   -6.0186 C   0  0  0  0  0  0  0  0  0  0  0  0
   -0.4233   -2.9112   -5.2092 C   0  0  0  0  0  0  0  0  0  0  0  0
    0.6994   -2.0499   -5.5551 C   0  0  0  0  0  0  0  0  0  0  0  0
    2.3212   -2.6475   -5.7111 S   0  0  0  0  0  0  0  0  0  0  0  0
    2.9470   -1.0746   -6.0741 C   0  0  0  0  0  0  0  0  0  0  0  0
    4.4038   -0.8501   -6.2836 C   0  0  0  0  0  0  0  0  0  0  0  0
    5.1243   -0.6800   -4.9439 C   0  0  0  0  0  0  0  0  0  0  0  0
    1.9453   -0.1507   -6.0570 C   0  0  0  0  0  0  0  0  0  0  0  0
    0.6678   -0.6987   -5.7663 C   0  0  0  0  0  0  0  0  0  0  0  0
   -0.7423    0.2762   -5.6267 Cl  0  0  0  0  0  0  0  0  0  0  0  0
    2.1778    1.5216   -6.3515 Cl  0  0  0  0  0  0  0  0  0  0  0  0
   -0.4918   -3.5773   -3.9956 C   0  0  0  0  0  0  0  0  0  0  0  0
    0.7067   -3.4781   -2.7376 S   0  0  0  0  0  0  0  0  0  0  0  0
   -1.7917   -2.1942   -7.1931 C   0  0  0  0  0  0  0  0  0  0  0  0
   -3.1083   -2.1309   -7.5523 C   0  0  0  0  0  0  0  0  0  0  0  0
   -4.0983   -3.2270   -6.6023 S   0  0  0  0  0  0  0  0  0  0  0  0
   -3.6729   -0.9818   -8.1872 C   0  0  0  0  0  0  0  0  0  0  0  0
   -4.8385   -0.3865   -7.7930 C   0  0  0  0  0  0  0  0  0  0  0  0
   -4.8003    1.0275   -7.8786 C   0  0  0  0  0  0  0  0  0  0  0  0
   -5.6547    1.9403   -7.2277 C   0  0  0  0  0  0  0  0  0  0  0  0
   -6.8839    1.5274   -6.5713 C   0  0  0  0  0  0  0  0  0  0  0  0
   -6.9337    0.1857   -5.4639 S   0  0  0  0  0  0  0  0  0  0  0  0
   -8.6087    0.4344   -5.1062 C   0  0  0  0  0  0  0  0  0  0  0  0
   -9.3277   -0.4548   -4.1514 C   0  0  0  0  0  0  0  0  0  0  0  0
   -9.0543   -1.9321   -4.4270 C   0  0  0  0  0  0  0  0  0  0  0  0
   -9.0846    1.5032   -5.8046 C   0  0  0  0  0  0  0  0  0  0  0  0
  -10.7056    2.0609   -5.7208 Cl  0  0  0  0  0  0  0  0  0  0  0  0
   -8.1089    2.1319   -6.6253 C   0  0  0  0  0  0  0  0  0  0  0  0
   -8.4713    3.4724   -7.6292 Cl  0  0  0  0  0  0  0  0  0  0  0  0
   -5.1685    3.2309   -7.0576 C   0  0  0  0  0  0  0  0  0  0  0  0
   -3.9298    3.6644   -7.5881 C   0  0  0  0  0  0  0  0  0  0  0  0
   -3.1618    2.8011   -8.3941 C   0  0  0  0  0  0  0  0  0  0  0  0
   -1.8855    3.2421   -8.9227 C   0  0  0  0  0  0  0  0  0  0  0  0
   -0.4205    2.3397   -8.6741 S   0  0  0  0  0  0  0  0  0  0  0  0
    0.5427    3.5250   -9.4864 C   0  0  0  0  0  0  0  0  0  0  0  0
    2.0153    3.3537   -9.6296 C   0  0  0  0  0  0  0  0  0  0  0  0
    2.3812    1.9556  -10.1222 C   0  0  0  0  0  0  0  0  0  0  0  0
   -0.2399    4.5533   -9.9214 C   0  0  0  0  0  0  0  0  0  0  0  0
   -1.6135    4.4020   -9.5956 C   0  0  0  0  0  0  0  0  0  0  0  0
   -2.8094    5.5399  -10.0644 Cl  0  0  0  0  0  0  0  0  0  0  0  0
    0.3521    5.9161  -10.7827 Cl  0  0  0  0  0  0  0  0  0  0  0  0
   -3.5918    1.4851   -8.4609 C   0  0  0  0  0  0  0  0  0  0  0  0
   -2.5956    0.1540   -8.9846 S   0  0  0  0  0  0  0  0  0  0  0  0
   -3.4569    4.8312   -6.9451 C   0  0  0  0  0  0  0  0  0  0  0  0
   -4.2579    5.2579   -5.9242 C   0  0  0  0  0  0  0  0  0  0  0  0
   -5.7735    4.3654   -5.8730 S   0  0  0  0  0  0  0  0  0  0  0  0
   -3.8306    6.0161   -4.7972 C   0  0  0  0  0  0  0  0  0  0  0  0
   -2.1001    6.1128   -4.5268 S   0  0  0  0  0  0  0  0  0  0  0  0
   -2.3692    6.5456   -2.8835 C   0  0  0  0  0  0  0  0  0  0  0  0
   -1.4422    6.5276   -1.8144 C   0  0  0  0  0  0  0  0  0  0  0  0
   -1.9292    6.6875   -0.5253 C   0  0  0  0  0  0  0  0  0  0  0  0
   -3.8686    7.0459   -0.6433 Ge  0  0  0  0  0  4  0  0  0  0  0  0
   -4.9498    5.6443    0.2984 C   0  0  0  0  0  0  0  0  0  0  0  0
   -4.5360    4.2396   -0.1111 C   0  0  0  0  0  0  0  0  0  0  0  0
   -4.3505    8.9414   -0.1891 C   0  0  0  0  0  0  0  0  0  0  0  0
   -4.1127    9.2657    1.2774 C   0  0  0  0  0  0  0  0  0  0  0  0
   -3.7154    6.7074   -2.5845 C   0  0  0  0  0  0  0  0  0  0  0  0
   -4.5329    6.3992   -3.6736 C   0  0  0  0  0  0  0  0  0  0  0  0
   -0.9615    6.3997    0.4380 C   0  0  0  0  0  0  0  0  0  0  0  0
    0.2493    6.0090   -0.0989 C   0  0  0  0  0  0  0  0  0  0  0  0
    0.2144    6.0489   -1.8453 S   0  0  0  0  0  0  0  0  0  0  0  0
    1.4086    5.5231    0.5622 C   0  0  0  0  0  0  0  0  0  0  0  0
    1.4522    5.3321    2.2980 S   0  0  0  0  0  0  0  0  0  0  0  0
    3.0422    4.6675    2.2021 C   0  0  0  0  0  0  0  0  0  0  0  0
    3.9034    4.2152    3.2381 C   0  0  0  0  0  0  0  0  0  0  0  0
    5.1572    3.7512    2.8842 C   0  0  0  0  0  0  0  0  0  0  0  0
    5.3642    3.9354    0.9321 Ge  0  0  0  0  0  4  0  0  0  0  0  0
    6.6291    5.4492    0.5451 C   0  0  0  0  0  0  0  0  0  0  0  0
    7.8763    5.4198    1.4160 C   0  0  0  0  0  0  0  0  0  0  0  0
    5.7937    2.3222   -0.1922 C   0  0  0  0  0  0  0  0  0  0  0  0
    7.2650    1.9447   -0.1413 C   0  0  0  0  0  0  0  0  0  0  0  0
    3.5088    4.5981    0.8998 C   0  0  0  0  0  0  0  0  0  0  0  0
    2.5806    5.0836   -0.0190 C   0  0  0  0  0  0  0  0  0  0  0  0
    5.9088    3.3688    4.0085 C   0  0  0  0  0  0  0  0  0  0  0  0
    5.2262    3.5234    5.1759 C   0  0  0  0  0  0  0  0  0  0  0  0
    3.6392    4.1537    4.9419 S   0  0  0  0  0  0  0  0  0  0  0  0
    1.7606   -8.0116   14.5493 H   0  0  0  0  0  0  0  0  0  0  0  0
    6.3608   -4.3394   12.4914 H   0  0  0  0  0  0  0  0  0  0  0  0
    6.3652   -3.7901   10.8231 H   0  0  0  0  0  0  0  0  0  0  0  0
    5.8615   -6.1163   10.0496 H   0  0  0  0  0  0  0  0  0  0  0  0
    5.8590   -6.6705   11.7224 H   0  0  0  0  0  0  0  0  0  0  0  0
    7.3529   -6.0731   10.9943 H   0  0  0  0  0  0  0  0  0  0  0  0
    3.8331   -2.2430   13.2334 H   0  0  0  0  0  0  0  0  0  0  0  0
    2.3296   -2.3876   12.3362 H   0  0  0  0  0  0  0  0  0  0  0  0
    4.9524   -1.2824   11.2106 H   0  0  0  0  0  0  0  0  0  0  0  0
    3.4468   -1.4424   10.3058 H   0  0  0  0  0  0  0  0  0  0  0  0
    3.5445   -0.3221   11.6658 H   0  0  0  0  0  0  0  0  0  0  0  0
    3.3969   -5.9664   14.6091 H   0  0  0  0  0  0  0  0  0  0  0  0
    3.5300   -3.5322    8.1694 H   0  0  0  0  0  0  0  0  0  0  0  0
    0.4734   -6.6339    6.1058 H   0  0  0  0  0  0  0  0  0  0  0  0
   -3.6029   -8.9895    6.1989 H   0  0  0  0  0  0  0  0  0  0  0  0
   -3.5054  -10.3841    5.1057 H   0  0  0  0  0  0  0  0  0  0  0  0
   -4.9929   -9.2112    3.4835 H   0  0  0  0  0  0  0  0  0  0  0  0
   -5.7778   -9.3738    5.0578 H   0  0  0  0  0  0  0  0  0  0  0  0
   -5.0886   -7.8212    4.5693 H   0  0  0  0  0  0  0  0  0  0  0  0
    6.4835   -0.4630    2.2793 H   0  0  0  0  0  0  0  0  0  0  0  0
    5.5798    1.0279    2.6107 H   0  0  0  0  0  0  0  0  0  0  0  0
    5.3960    0.3869    5.0047 H   0  0  0  0  0  0  0  0  0  0  0  0
    7.0900    0.4131    4.5104 H   0  0  0  0  0  0  0  0  0  0  0  0
    6.2440   -1.1287    4.6790 H   0  0  0  0  0  0  0  0  0  0  0  0
    1.5456   -3.0460    0.0054 H   0  0  0  0  0  0  0  0  0  0  0  0
   -2.2705   -5.2755   -1.7005 H   0  0  0  0  0  0  0  0  0  0  0  0
   -8.1812   -6.6242   -3.0384 H   0  0  0  0  0  0  0  0  0  0  0  0
   -8.3308   -5.0901   -3.9180 H   0  0  0  0  0  0  0  0  0  0  0  0
   -9.2013   -4.8582   -1.6057 H   0  0  0  0  0  0  0  0  0  0  0  0
   -7.7707   -3.8428   -1.8305 H   0  0  0  0  0  0  0  0  0  0  0  0
   -7.6431   -5.3697   -0.9520 H   0  0  0  0  0  0  0  0  0  0  0  0
    4.8296   -1.6997   -6.8198 H   0  0  0  0  0  0  0  0  0  0  0  0
    4.5353    0.0494   -6.8877 H   0  0  0  0  0  0  0  0  0  0  0  0
    4.7179    0.1714   -4.4039 H   0  0  0  0  0  0  0  0  0  0  0  0
    4.9983   -1.5707   -4.3331 H   0  0  0  0  0  0  0  0  0  0  0  0
    6.1857   -0.5153   -5.1086 H   0  0  0  0  0  0  0  0  0  0  0  0
   -1.0292   -1.6146   -7.6797 H   0  0  0  0  0  0  0  0  0  0  0  0
   -5.6222   -0.9380   -7.3077 H   0  0  0  0  0  0  0  0  0  0  0  0
   -9.0112   -0.2166   -3.1313 H   0  0  0  0  0  0  0  0  0  0  0  0
  -10.3964   -0.2463   -4.2290 H   0  0  0  0  0  0  0  0  0  0  0  0
   -9.6055   -2.5487   -3.7219 H   0  0  0  0  0  0  0  0  0  0  0  0
   -9.3660   -2.1926   -5.4354 H   0  0  0  0  0  0  0  0  0  0  0  0
   -7.9924   -2.1478   -4.3268 H   0  0  0  0  0  0  0  0  0  0  0  0
    2.3829    4.1098  -10.3256 H   0  0  0  0  0  0  0  0  0  0  0  0
    2.4919    3.5263   -8.6599 H   0  0  0  0  0  0  0  0  0  0  0  0
    1.9170    1.7584  -11.0852 H   0  0  0  0  0  0  0  0  0  0  0  0
    3.4591    1.8672  -10.2296 H   0  0  0  0  0  0  0  0  0  0  0  0
    2.0387    1.2060   -9.4127 H   0  0  0  0  0  0  0  0  0  0  0  0
   -2.4880    5.2580   -7.1333 H   0  0  0  0  0  0  0  0  0  0  0  0
   -6.0028    5.8100    0.0716 H   0  0  0  0  0  0  0  0  0  0  0  0
   -4.8235    5.7749    1.3730 H   0  0  0  0  0  0  0  0  0  0  0  0
   -3.4869    4.0667    0.1222 H   0  0  0  0  0  0  0  0  0  0  0  0
   -5.1316    3.4949    0.4142 H   0  0  0  0  0  0  0  0  0  0  0  0
   -4.6725    4.0961   -1.1815 H   0  0  0  0  0  0  0  0  0  0  0  0
   -3.7516    9.5975   -0.8205 H   0  0  0  0  0  0  0  0  0  0  0  0
   -5.3963    9.1047   -0.4478 H   0  0  0  0  0  0  0  0  0  0  0  0
   -4.7297    8.6370    1.9161 H   0  0  0  0  0  0  0  0  0  0  0  0
   -3.0700    9.0997    1.5400 H   0  0  0  0  0  0  0  0  0  0  0  0
   -4.3573   10.3062    1.4838 H   0  0  0  0  0  0  0  0  0  0  0  0
   -5.6093    6.3969   -3.6420 H   0  0  0  0  0  0  0  0  0  0  0  0
   -1.1320    6.4352    1.5008 H   0  0  0  0  0  0  0  0  0  0  0  0
    6.9057    5.4116   -0.5083 H   0  0  0  0  0  0  0  0  0  0  0  0
    6.0939    6.3852    0.7047 H   0  0  0  0  0  0  0  0  0  0  0  0
    8.4366    4.4997    1.2646 H   0  0  0  0  0  0  0  0  0  0  0  0
    8.5281    6.2593    1.1793 H   0  0  0  0  0  0  0  0  0  0  0  0
    7.6055    5.4828    2.4680 H   0  0  0  0  0  0  0  0  0  0  0  0
    5.5115    2.5744   -1.2146 H   0  0  0  0  0  0  0  0  0  0  0  0
    5.1789    1.4809    0.1169 H   0  0  0  0  0  0  0  0  0  0  0  0
    7.8845    2.7571   -0.5149 H   0  0  0  0  0  0  0  0  0  0  0  0
    7.4524    1.0654   -0.7559 H   0  0  0  0  0  0  0  0  0  0  0  0
    7.5721    1.7206    0.8782 H   0  0  0  0  0  0  0  0  0  0  0  0
    2.7404    5.1140   -1.0832 H   0  0  0  0  0  0  0  0  0  0  0  0
    6.9177    2.9972    3.9575 H   0  0  0  0  0  0  0  0  0  0  0  0
    5.5563    3.3082    6.1735 H   0  0  0  0  0  0  0  0  0  0  0  0
  1  2  1  0  0  0  0
  2  3  1  0  0  0  0
  3  4  1  0  0  0  0
  4  5  2  0  0  0  0
  5  6  1  0  0  0  0
  6  7  1  0  0  0  0
  7  8  1  0  0  0  0
  6  9  1  0  0  0  0
  9 10  1  0  0  0  0
  6 11  1  0  0  0  0
 11 12  1  0  0  0  0
  5 13  1  0  0  0  0
 13 14  2  0  0  0  0
 14 15  1  0  0  0  0
 14 16  1  0  0  0  0
 16 17  2  0  0  0  0
 17 18  1  0  0  0  0
 18 19  2  0  0  0  0
 19 20  1  0  0  0  0
 20 21  1  0  0  0  0
 21 22  1  0  0  0  0
 22 23  1  0  0  0  0
 23 24  1  0  0  0  0
 22 25  2  0  0  0  0
 25 26  1  0  0  0  0
 25 27  1  0  0  0  0
 27 28  1  0  0  0  0
 19 29  1  0  0  0  0
 29 30  2  0  0  0  0
 30 31  1  0  0  0  0
 31 32  1  0  0  0  0
 32 33  1  0  0  0  0
 33 34  1  0  0  0  0
 34 35  1  0  0  0  0
 35 36  1  0  0  0  0
 34 37  2  0  0  0  0
 37 38  1  0  0  0  0
 38 39  1  0  0  0  0
 37 40  1  0  0  0  0
 31 41  2  0  0  0  0
 41 42  1  0  0  0  0
 30 43  1  0  0  0  0
 43 44  2  0  0  0  0
 44 45  1  0  0  0  0
 44 46  1  0  0  0  0
 46 47  2  0  0  0  0
 47 48  1  0  0  0  0
 48 49  2  0  0  0  0
 49 50  1  0  0  0  0
 50 51  1  0  0  0  0
 51 52  1  0  0  0  0
 52 53  1  0  0  0  0
 53 54  1  0  0  0  0
 52 55  2  0  0  0  0
 55 56  1  0  0  0  0
 55 57  1  0  0  0  0
 57 58  1  0  0  0  0
 49 59  1  0  0  0  0
 59 60  2  0  0  0  0
 60 61  1  0  0  0  0
 61 62  1  0  0  0  0
 62 63  1  0  0  0  0
 63 64  1  0  0  0  0
 64 65  1  0  0  0  0
 65 66  1  0  0  0  0
 64 67  2  0  0  0  0
 67 68  1  0  0  0  0
 68 69  1  0  0  0  0
 67 70  1  0  0  0  0
 61 71  2  0  0  0  0
 71 72  1  0  0  0  0
 60 73  1  0  0  0  0
 73 74  2  0  0  0  0
 74 75  1  0  0  0  0
 74 76  1  0  0  0  0
 76 77  2  0  0  0  0
 77 78  1  0  0  0  0
 78 79  2  0  0  0  0
 79 80  1  0  0  0  0
 80 81  1  0  0  0  0
 81 82  1  0  0  0  0
 82 83  1  0  0  0  0
 83 84  1  0  0  0  0
 82 85  2  0  0  0  0
 85 86  1  0  0  0  0
 85 87  1  0  0  0  0
 87 88  1  0  0  0  0
 79 89  1  0  0  0  0
 89 90  2  0  0  0  0
 90 91  1  0  0  0  0
 91 92  1  0  0  0  0
 92 93  1  0  0  0  0
 93 94  1  0  0  0  0
 94 95  1  0  0  0  0
 95 96  1  0  0  0  0
 94 97  2  0  0  0  0
 97 98  1  0  0  0  0
 98 99  1  0  0  0  0
 97100  1  0  0  0  0
 91101  2  0  0  0  0
101102  1  0  0  0  0
 90103  1  0  0  0  0
103104  2  0  0  0  0
104105  1  0  0  0  0
104106  1  0  0  0  0
106107  1  0  0  0  0
107108  1  0  0  0  0
108109  1  0  0  0  0
109110  2  0  0  0  0
110111  1  0  0  0  0
111112  1  0  0  0  0
112113  1  0  0  0  0
111114  1  0  0  0  0
114115  1  0  0  0  0
111116  1  0  0  0  0
116117  1  0  0  0  0
110118  1  0  0  0  0
118119  2  0  0  0  0
119120  1  0  0  0  0
119121  1  0  0  0  0
121122  1  0  0  0  0
122123  1  0  0  0  0
123124  1  0  0  0  0
124125  2  0  0  0  0
125126  1  0  0  0  0
126127  1  0  0  0  0
127128  1  0  0  0  0
126129  1  0  0  0  0
129130  1  0  0  0  0
126131  1  0  0  0  0
131132  1  0  0  0  0
125133  1  0  0  0  0
133134  2  0  0  0  0
134135  1  0  0  0  0
 12  1  2  0  0  0  0
 42 16  1  0  0  0  0
 72 46  1  0  0  0  0
102 76  1  0  0  0  0
117106  2  0  0  0  0
132121  2  0  0  0  0
 11  3  2  0  0  0  0
 41 18  1  0  0  0  0
 71 48  1  0  0  0  0
101 78  1  0  0  0  0
116108  2  0  0  0  0
131123  2  0  0  0  0
 15  4  1  0  0  0  0
 27 20  2  0  0  0  0
 45 29  1  0  0  0  0
 57 50  2  0  0  0  0
 75 59  1  0  0  0  0
 87 80  2  0  0  0  0
105 89  1  0  0  0  0
120109  1  0  0  0  0
135124  1  0  0  0  0
 38 32  2  0  0  0  0
 68 62  2  0  0  0  0
 98 92  2  0  0  0  0
  1136  1  0  0  0  0
  7137  1  0  0  0  0
  7138  1  0  0  0  0
  8139  1  0  0  0  0
  8140  1  0  0  0  0
  8141  1  0  0  0  0
  9142  1  0  0  0  0
  9143  1  0  0  0  0
 10144  1  0  0  0  0
 10145  1  0  0  0  0
 10146  1  0  0  0  0
 12147  1  0  0  0  0
 13148  1  0  0  0  0
 17149  1  0  0  0  0
 23150  1  0  0  0  0
 23151  1  0  0  0  0
 24152  1  0  0  0  0
 24153  1  0  0  0  0
 24154  1  0  0  0  0
 35155  1  0  0  0  0
 35156  1  0  0  0  0
 36157  1  0  0  0  0
 36158  1  0  0  0  0
 36159  1  0  0  0  0
 43160  1  0  0  0  0
 47161  1  0  0  0  0
 53162  1  0  0  0  0
 53163  1  0  0  0  0
 54164  1  0  0  0  0
 54165  1  0  0  0  0
 54166  1  0  0  0  0
 65167  1  0  0  0  0
 65168  1  0  0  0  0
 66169  1  0  0  0  0
 66170  1  0  0  0  0
 66171  1  0  0  0  0
 73172  1  0  0  0  0
 77173  1  0  0  0  0
 83174  1  0  0  0  0
 83175  1  0  0  0  0
 84176  1  0  0  0  0
 84177  1  0  0  0  0
 84178  1  0  0  0  0
 95179  1  0  0  0  0
 95180  1  0  0  0  0
 96181  1  0  0  0  0
 96182  1  0  0  0  0
 96183  1  0  0  0  0
103184  1  0  0  0  0
112185  1  0  0  0  0
112186  1  0  0  0  0
113187  1  0  0  0  0
113188  1  0  0  0  0
113189  1  0  0  0  0
114190  1  0  0  0  0
114191  1  0  0  0  0
115192  1  0  0  0  0
115193  1  0  0  0  0
115194  1  0  0  0  0
117195  1  0  0  0  0
118196  1  0  0  0  0
127197  1  0  0  0  0
127198  1  0  0  0  0
128199  1  0  0  0  0
128200  1  0  0  0  0
128201  1  0  0  0  0
129202  1  0  0  0  0
129203  1  0  0  0  0
130204  1  0  0  0  0
130205  1  0  0  0  0
130206  1  0  0  0  0
132207  1  0  0  0  0
133208  1  0  0  0  0
134209  1  0  0  0  0
M  END
