179

C         14.83330       -2.50270        9.90160
S         13.31610       -3.29900        9.71360
C         13.59690       -3.45590        8.01870
C         12.77530       -4.03010        7.01020
C         13.25330       -4.02670        5.70940
Ge        15.00520       -3.12400        5.68760
C         14.92600       -1.36540        4.72450
C         13.70160       -0.55630        5.12220
C         16.54430       -4.28690        5.13000
C         17.89200       -3.63970        5.40650
C         14.81070       -2.91530        7.63520
C         15.50820       -2.37050        8.72710
C         12.34590       -4.58790        4.81160
C         11.17720       -5.01780        5.40900
S         11.20680       -4.73310        7.13150
C         10.02920       -5.56530        4.77310
S          8.56310       -5.87890        5.66840
C          7.75080       -6.34180        4.21890
C          6.38660       -6.66170        4.00730
C          5.96560       -6.86720        2.70060
Ge         7.52930       -6.74850        1.50870
C          7.38240       -5.25290        0.17810
C          8.65190       -5.03990       -0.63060
C          8.08710       -8.51710        0.73210
C          9.59800       -8.65560        0.61800
C          8.58010       -6.27830        3.10670
C          9.86410       -5.84520        3.43010
C          4.58600       -7.04020        2.61220
C          3.94520       -6.98470        3.83230
S          5.08180       -6.73210        5.13610
C          2.54490       -6.99680        4.07490
S          1.45300       -6.63360        2.75870
C          0.11300       -6.67610        3.84180
C         -1.23880       -6.33640        3.59780
C         -2.13370       -6.39060        4.65820
Ge        -1.14320       -6.99940        6.25480
C         -1.09410       -5.64010        7.72940
C         -2.43140       -5.49650        8.43840
C         -1.66350       -8.83820        6.86680
C         -0.70350       -9.39160        7.90810
C          0.48430       -6.99500        5.13990
C          1.86430       -7.16480        5.26260
C         -3.39240       -5.90130        4.30690
C         -3.46230       -5.45470        3.00120
S         -1.94660       -5.69370        2.16680
C         -4.51440       -4.75500        2.34790
S         -4.17200       -3.91930        0.85370
C         -5.75620       -3.24740        0.84610
C         -6.30510       -2.28180       -0.03000
C         -7.58990       -1.81960        0.22470
Ge        -8.27950       -2.77710        1.80740
C         -8.63000       -1.53560        3.34390
C         -7.43350       -0.64390        3.63640
C         -9.79510       -4.02540        1.38440
C        -11.03670       -3.29220        0.90140
C         -6.52220       -3.67190        1.92260
C         -5.81080       -4.52460        2.76790
C         -7.95430       -0.78990       -0.64210
C         -6.96400       -0.46130       -1.54850
S         -5.55390       -1.46950       -1.34550
C         -6.93210        0.59400       -2.50260
C         -7.87650        1.54770       -2.76390
C         -7.45600        2.51730       -3.70630
C         -8.14090        3.66320       -4.15090
C         -9.48070        3.98280       -3.68560
S         -9.85150        4.10130       -1.98990
C        -11.49750        4.54210       -2.29710
C        -12.45880        4.76280       -1.18170
C        -13.01770        3.43370       -0.66850
C        -11.73290        4.57730       -3.63820
Cl       -13.25390        4.96220       -4.33270
C        -10.59220        4.26850       -4.42800
Cl       -10.65560        4.18890       -6.13860
C         -7.46660        4.50580       -5.02560
C         -6.15720        4.24320       -5.49870
C         -5.49250        3.07170       -5.09720
C         -4.15190        2.75320       -5.56090
S         -2.83360        3.87270       -5.37230
C         -1.69270        2.77320       -6.07130
C         -0.26800        3.16040       -6.26440
C         -0.10320        4.04750       -7.50050
C         -2.31490        1.61760       -6.43500
C         -3.70560        1.59910       -6.14120
Cl        -4.71400        0.27860       -6.56030
Cl        -1.51580        0.29160       -7.17470
C         -6.15470        2.24710       -4.19910
S         -5.48370        0.82530       -3.46150
C         -5.67860        5.27310       -6.34070
C         -6.55500        6.31100       -6.49010
S         -8.04770        6.03700       -5.61510
C         -6.34790        7.51260       -7.22580
S         -7.61910        8.69130       -7.41470
C         -6.56450        9.71290       -8.31300
C         -6.80810       10.98700       -8.89610
C         -5.76750       11.60430       -9.56660
Ge        -4.18380       10.43620       -9.48010
C         -3.59810        9.72630      -11.26270
C         -2.57120        8.61260      -11.12910
C         -2.67800       11.19190       -8.39000
C         -1.94330       12.31360       -9.10670
C         -5.29650        9.17040       -8.45900
C         -5.18360        7.92590       -7.84170
C         -6.14910       12.85280      -10.08700
C         -7.44570       13.16280       -9.81170
S         -8.24780       11.93700       -8.90550
H         15.13020       -2.18010       10.88040
H         14.91890       -1.55830        3.65170
H         15.83390       -0.80560        4.94800
H         12.78990       -1.10270        4.88810
H         13.67870        0.39480        4.59280
H         13.70850       -0.35460        6.19180
H         16.44320       -4.50670        4.06730
H         16.46400       -5.23130        5.66750
H         17.99160       -2.70710        4.85470
H         17.99900       -3.42180        6.46700
H         18.70400       -4.30100        5.10880
H         16.47120       -1.89580        8.64820
H         12.52590       -4.66870        3.75420
H          6.54670       -5.47190       -0.48650
H          7.13120       -4.34620        0.72840
H          8.53510       -4.19750       -1.31070
H          9.49430       -4.83470        0.02660
H          8.88430       -5.92330       -1.22170
H          7.62130       -8.62980       -0.24650
H          7.69120       -9.30370        1.37400
H          9.86230       -9.63130        0.21330
H         10.06290       -8.55200        1.59620
H         10.01080       -7.89130       -0.03650
H         10.65300       -5.72320        2.70900
H          4.05180       -7.19070        1.68970
H         -0.79370       -4.68600        7.29680
H         -0.32010       -5.93240        8.43870
H         -2.37040       -4.74600        9.22480
H         -2.73230       -6.43990        8.88980
H         -3.20440       -5.19350        7.73520
H         -2.67580       -8.79840        7.26840
H         -1.68610       -9.48910        5.99300
H         -0.99860      -10.39580        8.20810
H          0.30720       -9.43650        7.50790
H         -0.69030       -8.76090        8.79490
H          2.37040       -7.39060        6.18580
H         -4.22380       -5.83730        4.98680
H         -9.50190       -0.92730        3.10420
H         -8.88100       -2.13220        4.22080
H         -7.18880       -0.03660        2.76700
H         -7.64390        0.02090        4.47250
H         -6.56090       -1.24490        3.88510
H        -10.02370       -4.60760        2.27680
H         -9.45010       -4.72150        0.62020
H        -11.40530       -2.61200        1.66650
H        -11.82960       -3.99880        0.66210
H        -10.81260       -2.71290        0.00820
H         -6.21690       -4.95670        3.66560
H         -8.90040       -0.27880       -0.60550
H         -8.83570        1.56800       -2.28160
H        -13.27610        5.38810       -1.54510
H        -11.95480        5.28370       -0.36560
H        -13.71920        3.61100        0.14220
H        -13.53420        2.90880       -1.46810
H        -12.21130        2.80310       -0.30140
H          0.32590        2.25250       -6.38180
H          0.08530        3.69860       -5.38280
H          0.94130        4.31740       -7.63100
H         -0.68840        4.95770       -7.39080
H         -0.44110        3.52100       -8.38960
H         -4.71550        5.24670       -6.81440
H         -3.18830       10.55000      -11.84690
H         -4.48050        9.36270      -11.78840
H         -1.68010        8.96830      -10.61550
H         -2.98330        7.78190      -10.56030
H         -2.27520        8.24330      -12.10950
H         -1.98870       10.38270       -8.14960
H         -3.09260       11.55450       -7.44980
H         -1.51020       11.95730      -10.03940
H         -1.13960       12.70510       -8.48520
H         -2.62530       13.12910       -9.33800
H         -4.27960        7.34330       -7.82930
H         -5.49180       13.49720      -10.64460
H         -7.99160       14.04420      -10.08620
