239

C          2.69980        4.34290       10.46940
S          1.23250        3.47130       10.23450
C          1.74870        3.00710        8.65460
C          1.09540        2.19420        7.68800
C          1.76720        1.95820        6.49960
Ge         3.42640        3.00890        6.47990
C          3.08480        4.61770        5.33230
C          1.76870        5.29870        5.67130
C          5.13040        2.07690        5.93540
C          5.70620        2.62770        4.64210
C          3.00160        3.50610        8.34510
C          3.53190        4.27540        9.39360
C          1.05440        1.12240        5.64760
C         -0.15740        0.71770        6.16970
S         -0.43000        1.39360        7.75280
C         -1.10250       -0.11320        5.50290
C         -0.82000       -0.95400        4.46470
C         -1.96390       -1.54730        3.88680
C         -2.01460       -2.36840        2.74420
C         -0.78340       -2.88540        2.17780
S         -0.38760       -2.73810        0.48900
C          1.17360       -3.45720        0.70910
C          2.09370       -3.66310       -0.44300
C          1.57540       -4.75180       -1.38300
C          1.35470       -3.80000        2.01530
Cl         2.77590       -4.52970        2.64710
C          0.25150       -3.47900        2.84910
Cl         0.22500       -3.88390        4.51670
C         -3.26710       -2.56780        2.18190
C         -4.46050       -2.05780        2.75270
C         -4.41700       -1.36920        3.98060
C         -5.61880       -0.87270        4.62910
S         -6.78050        0.10960        3.78490
C         -7.77810        0.28360        5.18950
C         -9.05760        1.04220        5.12760
C        -10.07290        0.34640        4.21940
C         -7.22990       -0.38630        6.24130
C         -6.00270       -1.03390        5.93130
Cl        -5.15170       -1.98510        7.07420
Cl        -7.93000       -0.45750        7.80620
C         -3.15880       -1.11070        4.50860
S         -2.81630       -0.06350        5.85920
C         -5.57440       -2.25250        1.90040
C         -5.26090       -2.86100        0.72130
S         -3.57360       -3.34850        0.65730
C         -6.00830       -2.84080       -0.49350
C         -5.64170       -3.37390       -1.69320
C         -6.28850       -2.76660       -2.79650
C         -5.93290       -2.87100       -4.14700
C         -4.84630       -3.71930       -4.62780
S         -5.06450       -4.84660       -5.92910
C         -3.36450       -5.15230       -6.05100
C         -2.81490       -6.03040       -7.11950
C         -2.80960       -5.29580       -8.46280
C         -2.68530       -4.41800       -5.12630
Cl        -0.98230       -4.43070       -4.95410
C         -3.52070       -3.60300       -4.31560
Cl        -2.89260       -2.52460       -3.13150
C         -6.43850       -1.90440       -5.00130
C         -7.26140       -0.82860       -4.58510
C         -7.75260       -0.82490       -3.26350
C         -8.65080        0.19340       -2.74690
S         -8.37030        1.89970       -2.94240
C         -9.75600        2.32290       -1.99200
C        -10.14020        3.74450       -1.77600
C        -10.72550        4.36000       -3.04840
C        -10.39390        1.19770       -1.56560
C         -9.76790       -0.00760       -1.98260
Cl       -10.41880       -1.54900       -1.61430
Cl       -11.81330        1.20490       -0.60190
C         -7.22490       -1.77950       -2.39730
S         -7.33340       -1.69800       -0.65850
C         -7.22010        0.24570       -5.51410
C         -6.36440        0.02480       -6.55850
S         -5.79100       -1.63930       -6.59090
C         -5.50140        0.95780       -7.22020
C         -5.14820        2.18450       -6.72400
C         -3.78580        2.51090       -6.95330
C         -3.00880        3.45490       -6.25000
C         -3.59060        4.51090       -5.43900
S         -4.84030        4.22550       -4.26250
C         -4.87750        5.88680       -3.77570
C         -5.83460        6.35530       -2.73600
C         -7.27830        6.03830       -3.12490
C         -3.96800        6.60730       -4.48920
Cl        -3.71440        8.29400       -4.30090
C         -3.22970        5.83070       -5.42300
Cl        -2.06300        6.52090       -6.47070
C         -1.63200        3.24720       -6.24010
C         -1.00400        2.21370       -6.97620
C         -1.76680        1.34840       -7.78020
C         -1.20040        0.14050       -8.36060
S         -0.29070       -0.96460       -7.36700
C         -0.15980       -2.12770       -8.63940
C          0.62770       -3.37610       -8.44580
C          2.12940       -3.08180       -8.46160
C         -0.79400       -1.67750       -9.75890
C         -1.40000       -0.40120       -9.59890
Cl        -2.23910        0.39250      -10.86420
Cl        -0.88140       -2.55680      -11.23000
C         -3.14130        1.51930       -7.73780
S         -4.26660        0.31030       -8.28830
C          0.33680        2.02110       -6.58100
C          0.70770        2.77670       -5.50560
S         -0.52500        3.95100       -5.08270
C          1.77750        2.42410       -4.62890
C          2.13660        2.93320       -3.41490
C          2.96870        2.06460       -2.65800
C          3.46280        2.23220       -1.34710
C          3.46610        3.54330       -0.73130
S          3.06410        3.81800        0.93860
C          3.37580        5.51570        0.81780
C          3.26680        6.42350        1.99180
C          4.63100        6.60200        2.66280
C          3.78550        5.83420       -0.44300
Cl         4.20140        7.42400       -0.93660
C          3.83790        4.72390       -1.32350
Cl         4.42280        4.87260       -2.93000
C          3.98260        1.09940       -0.72260
C          4.14770       -0.13240       -1.40010
C          3.77650       -0.26230       -2.74620
C          3.91050       -1.52480       -3.46200
S          5.46330       -2.23340       -3.78530
C          4.76040       -3.57390       -4.62640
C          5.61120       -4.59310       -5.29920
C          6.05660       -4.09910       -6.67800
C          3.40210       -3.46810       -4.63340
C          2.91370       -2.30520       -3.97700
Cl         1.23790       -1.96670       -3.81820
Cl         2.35520       -4.63360       -5.33110
C          3.18520        0.83960       -3.33610
S          2.53480        0.86820       -4.94210
C          4.63520       -1.15410       -0.55710
C          4.82710       -0.75380        0.73330
S          4.46390        0.94730        0.94820
C          5.20520       -1.61710        1.80740
C          5.55410       -2.92990        1.67060
C          5.77570       -3.59240        2.89950
C          6.13020       -4.93770        3.09350
C          6.25400       -5.85240        1.97010
S          4.95960       -6.04480        0.82340
C          5.82810       -7.23300       -0.08450
C          5.24010       -7.82520       -1.31710
C          5.25180       -6.81870       -2.46910
C          7.05030       -7.45310        0.47480
Cl         8.20690       -8.55840       -0.14650
C          7.29290       -6.67770        1.64200
Cl         8.78620       -6.72810        2.48060
C          6.31520       -5.35320        4.40630
C          6.17490       -4.48060        5.51220
C          5.81360       -3.13860        5.31500
C          5.68220       -2.22200        6.43670
S          7.01120       -1.96340        7.52930
C          6.13430       -0.78450        8.44130
C          6.72330       -0.12920        9.64100
C          6.44680       -0.94990       10.90300
C          4.88150       -0.62670        7.92970
C          4.62250       -1.43480        6.78830
Cl         3.10120       -1.44460        5.99710
Cl         3.73280        0.48640        8.54580
C          5.60910       -2.72370        4.00510
S          5.16690       -1.12100        3.48430
C          6.37370       -5.16510        6.74660
C          6.63990       -6.47680        6.58080
S          6.67480       -6.97390        4.92620
H          2.85470        4.85340       11.39970
H          3.08220        4.29340        4.29200
H          3.90750        5.32130        5.45420
H          0.93360        4.61760        5.51650
H          1.75650        5.61460        6.71310
H          1.61270        6.17890        5.04880
H          4.90550        1.02150        5.80370
H          5.85860        2.16260        6.74080
H          6.61350        2.08720        4.37840
H          4.99740        2.51230        3.82520
H          5.95310        3.68240        4.74260
H          4.49360        4.75740        9.35640
H          1.39650        0.83510        4.66910
H          0.17760       -1.11250        4.10120
H          3.07180       -3.94740       -0.05080
H          2.19240       -2.72750       -0.99820
H          0.60230       -4.47390       -1.77980
H          2.26220       -4.88600       -2.21450
H          1.48080       -5.69560       -0.85210
H         -8.86550        2.04820        4.74660
H         -9.45800        1.12580        6.13910
H         -9.68260        0.26780        3.20720
H        -10.28700       -0.65370        4.58820
H        -11.00000        0.91260        4.19270
H         -6.56540       -1.89620        2.11440
H         -4.86460       -4.11000       -1.79170
H         -1.79680       -6.31650       -6.84890
H         -3.42210       -6.93360       -7.20290
H         -3.82440       -5.03540       -8.75280
H         -2.22700       -4.38080       -8.39190
H         -2.37680       -5.92740       -9.23370
H        -10.87910        3.78290       -0.97420
H         -9.26190        4.31480       -1.46790
H         -9.99730        4.32500       -3.85490
H        -11.61320        3.81390       -3.35700
H        -10.99930        5.39630       -2.87060
H         -7.69800        1.19240       -5.34370
H         -5.78720        2.74170       -6.06520
H         -5.60410        5.86840       -1.78460
H         -5.70540        7.43140       -2.61050
H         -7.52660        6.50870       -4.07300
H         -7.41110        4.96280       -3.22350
H         -7.95970        6.41180       -2.36520
H          0.36330       -3.82800       -7.48760
H          0.37960       -4.07580       -9.24550
H          2.68740       -4.00440       -8.32520
H          2.38640       -2.39470       -7.65800
H          2.41870       -2.63470       -9.40960
H          0.98320        1.27790       -7.01030
H          1.74720        3.86320       -3.04050
H          2.55480        6.00960        2.70580
H          2.90030        7.39490        1.65340
H          5.02350        5.63950        2.98220
H          5.33580        7.05010        1.96730
H          4.53770        7.25010        3.52990
H          6.49070       -4.79760       -4.68740
H          5.03570       -5.51340       -5.40830
H          6.66770       -4.85410       -7.16480
H          5.19160       -3.89250       -7.30290
H          6.64000       -3.18680       -6.58140
H          4.80470       -2.15600       -0.90250
H          5.65840       -3.41550        0.71920
H          5.81960       -8.70800       -1.59090
H          4.21090       -8.13080       -1.11740
H          6.27230       -6.52150       -2.69670
H          4.81000       -7.26300       -3.35650
H          4.68140       -5.93180       -2.20250
H          7.80050       -0.02200        9.50480
H          6.28010        0.86280        9.74850
H          5.37570       -1.05630       11.05350
H          6.87400       -0.45570       11.77110
H          6.88690       -1.94010       10.81370
H          6.30580       -4.68770        7.70670
H          6.82400       -7.21220        7.33930
