239

C          9.03930       -4.74640       10.39710
C          9.04320       -3.40030       10.47090
C          8.07720       -2.79680        9.61370
C          7.79390       -1.43250        9.44430
C          8.59250       -0.39890       10.08200
S          7.85810        0.88250       10.99760
C          9.38340        1.63600       11.31380
C          9.46080        2.92090       12.06130
C          9.04120        4.09240       11.17010
C         10.39210        0.92740       10.73210
Cl        12.04880        1.36900       10.81540
C          9.94860       -0.22970       10.03710
Cl        11.01840       -1.24690        9.16080
C          6.73100       -1.10860        8.61130
C          5.97600       -2.08020        7.91050
C          6.28050       -3.44450        8.05340
C          5.54460       -4.45920        7.31810
S          6.38590       -5.63020        6.34550
C          4.91220       -6.36000        5.80870
C          4.92430       -7.48640        4.83600
C          5.13070       -6.97580        3.40800
C          3.84040       -5.72230        6.35770
C          4.19360       -4.64910        7.21980
Cl         3.02090       -3.75740        8.10400
Cl         2.20980       -6.15330        6.04860
C          7.33090       -3.76740        8.90440
S          7.86650       -5.37810        9.29320
C          4.99300       -1.48350        7.08320
C          4.97470       -0.12350        7.15410
S          6.19910        0.50660        8.23490
C          4.08490        0.75680        6.47070
C          4.18530        2.10600        6.31310
C          3.12480        2.66540        5.55670
C          2.94410        4.00850        5.17720
C          3.83940        5.04410        5.66110
S          4.60520        6.16850        4.57870
C          5.44110        6.96180        5.86950
C          6.30970        8.14280        5.61130
C          5.47040        9.41390        5.46200
C          5.12320        6.38780        7.06420
Cl         5.75130        6.90620        8.57470
C          4.21950        5.29780        6.95110
Cl         3.61560        4.45930        8.32250
C          1.89080        4.27980        4.31280
C          0.97070        3.28740        3.89600
C          1.10440        1.95830        4.33320
C          0.15520        0.93170        3.94180
S          0.69900       -0.59910        3.31720
C         -0.91630       -1.18520        3.11570
C         -1.16970       -2.56920        2.63050
C         -0.91470       -3.59230        3.73960
C         -1.81410       -0.24280        3.52080
C         -1.21270        0.95870        3.98350
Cl        -2.14120        2.25550        4.61550
Cl        -3.51560       -0.45760        3.47880
C          2.20910        1.67480        5.12510
S          2.65640        0.09700        5.70240
C          0.02920        3.79970        2.97360
C          0.19860        5.12320        2.69630
S          1.53260        5.82270        3.58150
C         -0.56430        5.79880        1.68790
C         -1.85470        5.49900        1.37330
C         -2.25830        5.99970        0.11240
C         -3.44900        5.71310       -0.57490
C         -4.48590        4.87810        0.01480
S         -6.12880        5.42850        0.13210
C         -6.65710        3.94420        0.84800
C         -8.06750        3.75440        1.28580
C         -8.26900        4.26260        2.71550
C         -5.60940        3.08310        0.98370
Cl        -5.73990        1.50910        1.65470
C         -4.37820        3.60660        0.50550
Cl        -2.93670        2.67470        0.48330
C         -3.52530        6.13190       -1.89390
C         -2.48270        6.84180       -2.53620
C         -1.34140        7.23470       -1.80980
C         -0.30630        8.01520       -2.45800
S          1.37580        7.58320       -2.37760
C          1.84230        8.90060       -3.39660
C          3.25670        9.08810       -3.82170
C          3.53450        8.33750       -5.12700
C          0.74930        9.62740       -3.76640
C         -0.46980        9.13010       -3.23710
Cl        -1.97590        9.90820       -3.50230
Cl         0.82110       11.01640       -4.77160
C         -1.23400        6.75500       -0.50980
S          0.17820        6.86000        0.50710
C         -2.63810        6.83810       -3.94480
C         -3.73540        6.14910       -4.37170
S         -4.73660        5.60690       -3.03140
C         -3.91470        5.53400       -5.64620
C         -4.87400        4.62490       -5.98540
C         -4.48200        3.75290       -7.02950
C         -5.12600        2.57480       -7.45330
C         -6.47780        2.21680       -7.06480
S         -7.04390        2.28210       -5.42120
C         -8.59550        1.64440       -5.84190
C         -9.63020        1.38440       -4.80380
C         -9.44620       -0.00360       -4.18520
C         -8.65620        1.39350       -7.18000
Cl       -10.03970        0.75910       -7.97150
C         -7.46020        1.71330       -7.87510
Cl        -7.31610        1.55090       -9.57470
C         -4.34740        1.67370       -8.16970
C         -3.02510        1.94930       -8.59150
C         -2.47320        3.22930       -8.37090
C         -1.17170        3.57390       -8.90250
S          0.03860        4.38730       -7.95310
C          1.17460        4.39720       -9.26060
C          2.51670        5.02100       -9.09660
C          2.40290        6.51290       -8.78150
C          0.63180        3.80750      -10.36290
C         -0.69280        3.33440      -10.16390
Cl        -1.60850        2.61470      -11.42420
Cl         1.44750        3.63760      -11.86420
C         -3.19000        4.06530       -7.52280
S         -2.55760        5.50100       -6.76290
C         -2.32870        0.77180       -8.95570
C         -3.06300       -0.37010       -8.78050
S         -4.72760       -0.01480       -8.35780
C         -2.57010       -1.69660       -8.61180
S         -3.58590       -2.87870       -7.82260
C         -2.21590       -3.87180       -7.50760
C         -2.10600       -4.96360       -6.61020
C         -0.83360       -5.41840       -6.29290
Ge         0.46610       -4.46230       -7.43100
C          1.25000       -5.62780       -8.86300
C          2.00890       -4.82620       -9.90890
C          1.81600       -3.40110       -6.39430
C          2.82940       -4.28600       -5.68540
C         -1.04740       -3.35640       -8.05360
C         -1.25990       -2.13190       -8.68510
C         -0.85220       -6.31660       -5.22440
C         -2.11770       -6.56340       -4.74000
S         -3.33160       -5.68740       -5.63940
C         -2.51130       -7.31670       -3.59510
C         -3.74720       -7.82160       -3.32180
C         -3.84560       -8.42870       -2.04560
C         -4.95270       -9.07880       -1.47780
C         -6.21540       -9.18290       -2.19110
S         -7.02620       -7.77030       -2.80170
C         -8.34430       -8.70040       -3.42960
C         -9.45260       -8.05070       -4.18170
C         -9.01260       -7.68990       -5.60250
C         -8.14800      -10.02530       -3.18010
Cl        -9.23480      -11.26350       -3.66030
C         -6.94680      -10.30250       -2.47270
Cl        -6.44740      -11.89920       -2.10150
C         -4.79090       -9.60350       -0.20030
C         -3.58480       -9.48890        0.53040
C         -2.47850       -8.83840       -0.03810
C         -1.24860       -8.64280        0.71710
S         -0.34530       -9.97630        1.36710
C          0.83560       -8.93010        2.08010
C          1.95620       -9.47490        2.89450
C          1.52620       -9.68000        4.34940
C          0.52780       -7.62700        1.82830
C         -0.64860       -7.46070        1.04860
Cl        -1.27550       -5.91900        0.63500
Cl         1.45140       -6.29880        2.39600
C         -2.62800       -8.34480       -1.32650
S         -1.38580       -7.57330       -2.27340
C         -3.70860      -10.04160        1.83850
C         -4.93660      -10.54460        2.07890
S         -6.02500      -10.38510        0.74570
H          9.66060       -5.43710       10.93280
H          9.69200       -2.84020       11.11840
H          8.80380        2.87620       12.93210
H         10.48670        3.06580       12.40390
H          9.69460        4.16060       10.30390
H          9.10030        5.02450       11.72540
H          8.01950        3.95550       10.82400
H          5.73020       -8.17630        5.09320
H          3.97260       -8.01480        4.90680
H          6.06450       -6.42300        3.33800
H          5.16910       -7.81010        2.71200
H          4.31520       -6.31710        3.12070
H          4.33060       -2.03370        6.44090
H          5.01350        2.67170        6.69930
H          6.88340        7.97860        4.69740
H          7.00400        8.25580        6.44580
H          6.11590       10.26750        5.27410
H          4.77520        9.31040        4.63240
H          4.90270        9.59940        6.37030
H         -2.20540       -2.64020        2.29360
H         -0.51300       -2.78580        1.78550
H          0.11690       -3.53180        4.07900
H         -1.10160       -4.59560        3.36700
H         -1.57130       -3.40650        4.58610
H         -0.70470        3.19520        2.47530
H         -2.48610        4.91040        2.01160
H         -8.30800        2.69050        1.23960
H         -8.73200        4.29480        0.60980
H         -7.62000        3.72380        3.40110
H         -9.30050        4.11420        3.02290
H         -8.03500        5.32280        2.77550
H          3.92130        8.71950       -3.03910
H          3.44260       10.15370       -3.96860
H          2.88850        8.70810       -5.91870
H          3.35070        7.27370       -4.99650
H          4.56940        8.48020       -5.42590
H         -1.90070        7.22430       -4.62550
H         -5.78320        4.51450       -5.42320
H         -9.55810        2.14340       -4.02290
H        -10.61600        1.44960       -5.26810
H        -10.21130       -0.18160       -3.43430
H         -8.46910       -0.08060       -3.71430
H         -9.52400       -0.77070       -4.95140
H          3.04990        4.52340       -8.28250
H          3.08160        4.87440      -10.01850
H          1.83810        6.66040       -7.86400
H          1.89380        7.03220       -9.58950
H          3.39190        6.94560       -8.65730
H         -1.28520        0.76390       -9.21030
H          0.43440       -6.17940       -9.32990
H          1.90910       -6.35730       -8.39300
H          2.40510       -5.48280      -10.68140
H          2.84150       -4.29110       -9.45650
H          1.35260       -4.09820      -10.38130
H          2.32200       -2.72210       -7.08050
H          1.27840       -2.78990       -5.66980
H          3.38030       -4.89290       -6.40130
H          2.32980       -4.95300       -4.98620
H          3.54370       -3.68080       -5.12980
H         -0.47780       -1.54960       -9.13950
H          0.02470       -6.77000       -4.79460
H         -4.56080       -7.76250       -4.02160
H        -10.29720       -8.74040       -4.22090
H         -9.76480       -7.14410       -3.65960
H         -8.17620       -6.99550       -5.57370
H         -8.70530       -8.58340       -6.14030
H         -9.83400       -7.22490       -6.14090
H          2.27890      -10.42870        2.47360
H          2.78930       -8.77170        2.85330
H          2.34440      -10.10350        4.92630
H          1.23720       -8.73170        4.79530
H          0.67940      -10.36040        4.39970
H         -2.90900      -10.05140        2.55600
H         -5.29140      -11.01470        2.97520
