
  xtb     03022219083D
 energy: -216.951254044355 gnorm: 0.000305195820 xtb: 6.4.1 (unknown)
119136  0     0  0            999 V2000
   10.9288   -4.7318    5.7668 C   0  0  0  0  0  0  0  0  0  0  0  0
    9.9609   -4.6163    6.7587 C   0  0  0  0  0  0  0  0  0  0  0  0
    8.6739   -4.0579    6.4603 C   0  0  0  0  0  0  0  0  0  0  0  0
    7.7042   -4.0528    7.4043 N   0  0  0  0  0  0  0  0  0  0  0  0
    8.0090   -4.4812    8.5921 C   0  0  0  0  0  0  0  0  0  0  0  0
    9.3081   -4.9508    8.9111 C   0  0  0  0  0  0  0  0  0  0  0  0
   10.2449   -5.0422    8.0170 N   0  0  0  0  0  0  0  0  0  0  0  0
    8.3960   -3.5569    5.1754 C   0  0  0  0  0  0  0  0  0  0  0  0
    9.3958   -3.6460    4.1893 C   0  0  0  0  0  0  0  0  0  0  0  0
   10.6532   -4.2695    4.4845 C   0  0  0  0  0  0  0  0  0  0  0  0
   11.5889   -4.4131    3.5103 N   0  0  0  0  0  0  0  0  0  0  0  0
   11.3136   -3.9388    2.3336 C   0  0  0  0  0  0  0  0  0  0  0  0
   10.1100   -3.2372    2.0703 C   0  0  0  0  0  0  0  0  0  0  0  0
    9.1845   -3.0963    2.9708 N   0  0  0  0  0  0  0  0  0  0  0  0
    7.1085   -2.9622    4.8691 C   0  0  0  0  0  0  0  0  0  0  0  0
    6.5225   -2.0129    5.7273 C   0  0  0  0  0  0  0  0  0  0  0  0
    5.2354   -1.4433    5.4522 C   0  0  0  0  0  0  0  0  0  0  0  0
    4.6809   -0.6095    6.3553 N   0  0  0  0  0  0  0  0  0  0  0  0
    5.3527   -0.3041    7.4299 C   0  0  0  0  0  0  0  0  0  0  0  0
    6.6665   -0.7713    7.6353 C   0  0  0  0  0  0  0  0  0  0  0  0
    7.2257   -1.6028    6.8069 N   0  0  0  0  0  0  0  0  0  0  0  0
    4.5500   -1.7458    4.2432 C   0  0  0  0  0  0  0  0  0  0  0  0
    5.1756   -2.6785    3.3755 C   0  0  0  0  0  0  0  0  0  0  0  0
    6.4136   -3.3128    3.6991 C   0  0  0  0  0  0  0  0  0  0  0  0
    6.8981   -4.2872    2.8972 N   0  0  0  0  0  0  0  0  0  0  0  0
    6.2626   -4.5549    1.7939 C   0  0  0  0  0  0  0  0  0  0  0  0
    5.0929   -3.8596    1.4217 C   0  0  0  0  0  0  0  0  0  0  0  0
    4.5647   -2.9718    2.2154 N   0  0  0  0  0  0  0  0  0  0  0  0
    3.3062   -1.1681    3.8687 C   0  0  0  0  0  0  0  0  0  0  0  0
    2.5774   -1.5424    2.3227 S   0  0  0  0  0  0  0  0  0  0  0  0
    1.2543   -0.4924    2.6720 C   0  0  0  0  0  0  0  0  0  0  0  0
    0.1322   -0.1649    1.8868 C   0  0  0  0  0  0  0  0  0  0  0  0
   -0.8027    0.7243    2.4303 C   0  0  0  0  0  0  0  0  0  0  0  0
   -0.2033    1.2662    4.2262 Ge  0  0  0  0  0  4  0  0  0  0  0  0
   -1.3945    0.6201    5.7060 C   0  0  0  0  0  0  0  0  0  0  0  0
   -0.7620    0.8041    7.0768 C   0  0  0  0  0  0  0  0  0  0  0  0
    0.2517    3.2171    4.3409 C   0  0  0  0  0  0  0  0  0  0  0  0
   -0.9783    4.1041    4.2252 C   0  0  0  0  0  0  0  0  0  0  0  0
    1.3628    0.1086    3.9320 C   0  0  0  0  0  0  0  0  0  0  0  0
    2.5167   -0.2738    4.5888 C   0  0  0  0  0  0  0  0  0  0  0  0
   -1.8369    0.9866    1.5524 C   0  0  0  0  0  0  0  0  0  0  0  0
   -1.7247    0.3215    0.3333 C   0  0  0  0  0  0  0  0  0  0  0  0
   -0.2837   -0.6693    0.2902 S   0  0  0  0  0  0  0  0  0  0  0  0
   -2.5877    0.3981   -0.7940 C   0  0  0  0  0  0  0  0  0  0  0  0
   -3.7650    1.1947   -0.8394 C   0  0  0  0  0  0  0  0  0  0  0  0
   -4.5236    1.3130   -2.0508 C   0  0  0  0  0  0  0  0  0  0  0  0
   -5.5502    2.1901   -2.1210 N   0  0  0  0  0  0  0  0  0  0  0  0
   -5.8963    2.8316   -1.0447 C   0  0  0  0  0  0  0  0  0  0  0  0
   -5.2318    2.6202    0.1803 C   0  0  0  0  0  0  0  0  0  0  0  0
   -4.1823    1.8512    0.2621 N   0  0  0  0  0  0  0  0  0  0  0  0
   -4.1918    0.5772   -3.2038 C   0  0  0  0  0  0  0  0  0  0  0  0
   -3.0772   -0.2764   -3.1450 C   0  0  0  0  0  0  0  0  0  0  0  0
   -2.2714   -0.3343   -1.9672 C   0  0  0  0  0  0  0  0  0  0  0  0
   -1.1706   -1.1050   -1.9546 N   0  0  0  0  0  0  0  0  0  0  0  0
   -0.8753   -1.8127   -3.0078 C   0  0  0  0  0  0  0  0  0  0  0  0
   -1.7251   -1.8210   -4.1340 C   0  0  0  0  0  0  0  0  0  0  0  0
   -2.7905   -1.0769   -4.1956 N   0  0  0  0  0  0  0  0  0  0  0  0
   -4.9607    0.7158   -4.4264 C   0  0  0  0  0  0  0  0  0  0  0  0
   -4.3121    0.9329   -5.6561 C   0  0  0  0  0  0  0  0  0  0  0  0
   -5.0657    1.0893   -6.8633 C   0  0  0  0  0  0  0  0  0  0  0  0
   -4.4293    1.3374   -8.0328 N   0  0  0  0  0  0  0  0  0  0  0  0
   -3.1314    1.3782   -8.0256 C   0  0  0  0  0  0  0  0  0  0  0  0
   -2.3866    1.2364   -6.8302 C   0  0  0  0  0  0  0  0  0  0  0  0
   -2.9640    1.0481   -5.6820 N   0  0  0  0  0  0  0  0  0  0  0  0
   -6.4693    1.0412   -6.8429 C   0  0  0  0  0  0  0  0  0  0  0  0
   -7.1187    0.8224   -5.6172 C   0  0  0  0  0  0  0  0  0  0  0  0
   -6.3655    0.6521   -4.4115 C   0  0  0  0  0  0  0  0  0  0  0  0
   -7.0023    0.3788   -3.2491 N   0  0  0  0  0  0  0  0  0  0  0  0
   -8.3006    0.3433   -3.2564 C   0  0  0  0  0  0  0  0  0  0  0  0
   -9.0462    0.5285   -4.4457 C   0  0  0  0  0  0  0  0  0  0  0  0
   -8.4698    0.7290   -5.5919 N   0  0  0  0  0  0  0  0  0  0  0  0
   -7.2342    1.2221   -8.0682 C   0  0  0  0  0  0  0  0  0  0  0  0
   -6.9394    0.4663   -9.2149 C   0  0  0  0  0  0  0  0  0  0  0  0
   -7.6737    0.6764  -10.4291 C   0  0  0  0  0  0  0  0  0  0  0  0
   -7.3500   -0.0177  -11.5513 N   0  0  0  0  0  0  0  0  0  0  0  0
   -6.3830   -0.8797  -11.4687 C   0  0  0  0  0  0  0  0  0  0  0  0
   -5.7114   -1.1421  -10.2468 C   0  0  0  0  0  0  0  0  0  0  0  0
   -5.9848   -0.4926   -9.1565 N   0  0  0  0  0  0  0  0  0  0  0  0
   -8.7230    1.5882  -10.4710 C   0  0  0  0  0  0  0  0  0  0  0  0
   -9.0408    2.3198   -9.3318 C   0  0  0  0  0  0  0  0  0  0  0  0
   -8.2766    2.1618   -8.1281 C   0  0  0  0  0  0  0  0  0  0  0  0
   -8.5270    2.9521   -7.0572 N   0  0  0  0  0  0  0  0  0  0  0  0
   -9.5221    3.7823   -7.1364 C   0  0  0  0  0  0  0  0  0  0  0  0
  -10.3307    3.8804   -8.2979 C   0  0  0  0  0  0  0  0  0  0  0  0
  -10.0824    3.1913   -9.3695 N   0  0  0  0  0  0  0  0  0  0  0  0
   11.8849   -5.1765    5.9900 H   0  0  0  0  0  0  0  0  0  0  0  0
    7.2176   -4.4807    9.3304 H   0  0  0  0  0  0  0  0  0  0  0  0
    9.5546   -5.2771    9.9132 H   0  0  0  0  0  0  0  0  0  0  0  0
   12.0599   -4.0786    1.5625 H   0  0  0  0  0  0  0  0  0  0  0  0
    9.9293   -2.7775    1.1073 H   0  0  0  0  0  0  0  0  0  0  0  0
    4.8613    0.3471    8.1408 H   0  0  0  0  0  0  0  0  0  0  0  0
    7.2595   -0.4470    8.4803 H   0  0  0  0  0  0  0  0  0  0  0  0
    6.6654   -5.3489    1.1791 H   0  0  0  0  0  0  0  0  0  0  0  0
    4.5789   -4.0516    0.4903 H   0  0  0  0  0  0  0  0  0  0  0  0
   -1.6060   -0.4338    5.5280 H   0  0  0  0  0  0  0  0  0  0  0  0
   -2.3419    1.1556    5.6506 H   0  0  0  0  0  0  0  0  0  0  0  0
   -1.4233    0.4325    7.8579 H   0  0  0  0  0  0  0  0  0  0  0  0
   -0.5624    1.8561    7.2714 H   0  0  0  0  0  0  0  0  0  0  0  0
    0.1794    0.2619    7.1369 H   0  0  0  0  0  0  0  0  0  0  0  0
    0.7648    3.4024    5.2842 H   0  0  0  0  0  0  0  0  0  0  0  0
    0.9543    3.4435    3.5393 H   0  0  0  0  0  0  0  0  0  0  0  0
   -1.4874    3.9261    3.2804 H   0  0  0  0  0  0  0  0  0  0  0  0
   -1.6782    3.9002    5.0332 H   0  0  0  0  0  0  0  0  0  0  0  0
   -0.6994    5.1555    4.2728 H   0  0  0  0  0  0  0  0  0  0  0  0
    2.8076    0.0692    5.5645 H   0  0  0  0  0  0  0  0  0  0  0  0
   -2.6656    1.6379    1.7602 H   0  0  0  0  0  0  0  0  0  0  0  0
   -6.7103    3.5387   -1.1353 H   0  0  0  0  0  0  0  0  0  0  0  0
   -5.5505    3.1047    1.0938 H   0  0  0  0  0  0  0  0  0  0  0  0
    0.0276   -2.4053   -2.9619 H   0  0  0  0  0  0  0  0  0  0  0  0
   -1.5274   -2.4613   -4.9834 H   0  0  0  0  0  0  0  0  0  0  0  0
   -2.6426    1.5685   -8.9724 H   0  0  0  0  0  0  0  0  0  0  0  0
   -1.3076    1.3209   -6.8271 H   0  0  0  0  0  0  0  0  0  0  0  0
   -8.7897    0.1240   -2.3161 H   0  0  0  0  0  0  0  0  0  0  0  0
  -10.1268    0.4654   -4.4462 H   0  0  0  0  0  0  0  0  0  0  0  0
   -6.1252   -1.4136  -12.3741 H   0  0  0  0  0  0  0  0  0  0  0  0
   -4.9540   -1.9123  -10.1801 H   0  0  0  0  0  0  0  0  0  0  0  0
   -9.2851    1.7277  -11.3801 H   0  0  0  0  0  0  0  0  0  0  0  0
   -9.7004    4.4150   -6.2766 H   0  0  0  0  0  0  0  0  0  0  0  0
  -11.1736    4.5581   -8.3367 H   0  0  0  0  0  0  0  0  0  0  0  0
  1  2  2  0  0  0  0
  2  3  1  0  0  0  0
  3  4  1  0  0  0  0
  4  5  2  0  0  0  0
  5  6  1  0  0  0  0
  6  7  2  0  0  0  0
  3  8  2  0  0  0  0
  8  9  1  0  0  0  0
  9 10  2  0  0  0  0
 10 11  1  0  0  0  0
 11 12  2  0  0  0  0
 12 13  1  0  0  0  0
 13 14  2  0  0  0  0
  8 15  1  0  0  0  0
 15 16  1  0  0  0  0
 16 17  1  0  0  0  0
 17 18  2  0  0  0  0
 18 19  1  0  0  0  0
 19 20  2  0  0  0  0
 20 21  1  0  0  0  0
 17 22  1  0  0  0  0
 22 23  2  0  0  0  0
 23 24  1  0  0  0  0
 24 25  1  0  0  0  0
 25 26  2  0  0  0  0
 26 27  1  0  0  0  0
 27 28  2  0  0  0  0
 22 29  1  0  0  0  0
 29 30  1  0  0  0  0
 30 31  1  0  0  0  0
 31 32  1  0  0  0  0
 32 33  2  0  0  0  0
 33 34  1  0  0  0  0
 34 35  1  0  0  0  0
 35 36  1  0  0  0  0
 34 37  1  0  0  0  0
 37 38  1  0  0  0  0
 34 39  1  0  0  0  0
 39 40  1  0  0  0  0
 33 41  1  0  0  0  0
 41 42  2  0  0  0  0
 42 43  1  0  0  0  0
 42 44  1  0  0  0  0
 44 45  1  0  0  0  0
 45 46  1  0  0  0  0
 46 47  2  0  0  0  0
 47 48  1  0  0  0  0
 48 49  2  0  0  0  0
 49 50  1  0  0  0  0
 46 51  1  0  0  0  0
 51 52  2  0  0  0  0
 52 53  1  0  0  0  0
 53 54  1  0  0  0  0
 54 55  2  0  0  0  0
 55 56  1  0  0  0  0
 56 57  2  0  0  0  0
 51 58  1  0  0  0  0
 58 59  1  0  0  0  0
 59 60  1  0  0  0  0
 60 61  2  0  0  0  0
 61 62  1  0  0  0  0
 62 63  2  0  0  0  0
 63 64  1  0  0  0  0
 60 65  1  0  0  0  0
 65 66  2  0  0  0  0
 66 67  1  0  0  0  0
 67 68  1  0  0  0  0
 68 69  2  0  0  0  0
 69 70  1  0  0  0  0
 70 71  2  0  0  0  0
 65 72  1  0  0  0  0
 72 73  1  0  0  0  0
 73 74  1  0  0  0  0
 74 75  2  0  0  0  0
 75 76  1  0  0  0  0
 76 77  2  0  0  0  0
 77 78  1  0  0  0  0
 74 79  1  0  0  0  0
 79 80  2  0  0  0  0
 80 81  1  0  0  0  0
 81 82  1  0  0  0  0
 82 83  2  0  0  0  0
 83 84  1  0  0  0  0
 84 85  2  0  0  0  0
 10  1  1  0  0  0  0
 24 15  2  0  0  0  0
 40 29  2  0  0  0  0
 53 44  2  0  0  0  0
 67 58  2  0  0  0  0
 81 72  2  0  0  0  0
  7  2  1  0  0  0  0
 14  9  1  0  0  0  0
 21 16  2  0  0  0  0
 28 23  1  0  0  0  0
 39 31  2  0  0  0  0
 50 45  2  0  0  0  0
 57 52  1  0  0  0  0
 64 59  2  0  0  0  0
 71 66  1  0  0  0  0
 78 73  2  0  0  0  0
 85 80  1  0  0  0  0
 43 32  1  0  0  0  0
  1 86  1  0  0  0  0
  5 87  1  0  0  0  0
  6 88  1  0  0  0  0
 12 89  1  0  0  0  0
 13 90  1  0  0  0  0
 19 91  1  0  0  0  0
 20 92  1  0  0  0  0
 26 93  1  0  0  0  0
 27 94  1  0  0  0  0
 35 95  1  0  0  0  0
 35 96  1  0  0  0  0
 36 97  1  0  0  0  0
 36 98  1  0  0  0  0
 36 99  1  0  0  0  0
 37100  1  0  0  0  0
 37101  1  0  0  0  0
 38102  1  0  0  0  0
 38103  1  0  0  0  0
 38104  1  0  0  0  0
 40105  1  0  0  0  0
 41106  1  0  0  0  0
 48107  1  0  0  0  0
 49108  1  0  0  0  0
 55109  1  0  0  0  0
 56110  1  0  0  0  0
 62111  1  0  0  0  0
 63112  1  0  0  0  0
 69113  1  0  0  0  0
 70114  1  0  0  0  0
 76115  1  0  0  0  0
 77116  1  0  0  0  0
 79117  1  0  0  0  0
 83118  1  0  0  0  0
 84119  1  0  0  0  0
M  END
