99

C          8.19900       -1.82950       -3.49870
S          8.09990       -3.52540       -3.27210
C          7.06930       -3.30630       -1.90090
C          6.59100       -4.47740       -1.19050
O          5.86070       -4.48240       -0.22580
O          7.05800       -5.61690       -1.73480
C          6.82110       -1.96160       -1.63890
C          7.48740       -1.13090       -2.57930
C          6.00210       -1.51620       -0.54800
C          5.76600       -0.22710       -0.23410
C          4.96280        0.19530        0.87130
S          4.80880        1.89380        1.21190
C          3.82450        1.57220        2.58900
C          3.37010        2.73350        3.34080
O          3.40970        3.86540        2.91300
O          2.91430        2.46060        4.57440
C          3.59610        0.20550        2.76300
C          4.25520       -0.55790        1.77790
C          2.74570       -0.30580        3.79890
C          2.48320       -1.59440        4.09080
C          1.58700       -1.92980        5.15750
S          0.90710       -3.51730        5.33650
C         -0.04470       -3.00050        6.69070
C         -0.92940       -3.92230        7.37200
O         -1.65220       -3.63830        8.29950
O         -0.86480       -5.16850        6.86450
C          0.15100       -1.65800        6.98020
C          1.10150       -1.07940        6.12230
C         -0.52260       -0.90070        8.02170
C         -0.90300        0.37180        7.85200
C         -0.83840        1.04900        6.56870
S         -0.08060        2.59910        6.37540
C         -0.36240        2.56360        4.66320
C          0.14990        3.62800        3.82650
O         -0.07050        3.77740        2.64870
O          0.96630        4.47170        4.50800
C         -1.04390        1.41350        4.26810
C         -1.29740        0.56840        5.37570
C         -1.39910        1.13550        2.90950
C         -2.10170        0.05930        2.49530
C         -2.46470       -0.18390        1.14300
S         -1.96990        0.87810       -0.15200
C         -2.81880       -0.09020       -1.29460
C         -2.95740        0.07960       -2.69470
C         -3.72210       -0.84810       -3.39070
Ge        -4.40620       -2.18480       -2.11370
C         -6.40260       -2.11400       -1.92960
C         -6.92020       -3.00140       -0.80860
C         -3.67280       -4.02460       -2.43100
C         -4.22820       -4.65520       -3.69850
C         -3.45180       -1.18170       -0.70890
C         -3.24130       -1.22530        0.66620
C         -3.78060       -0.56200       -4.75270
C         -3.07220        0.56790       -5.10720
S         -2.30960        1.30380       -3.71930
C         -2.92430        1.13670       -6.40260
S         -3.65950        0.39980       -7.79300
C         -3.02060        1.63740       -8.82520
C         -3.31360        1.56910      -10.24050
O         -2.94680        2.34570      -11.09290
O         -4.07800        0.49670      -10.54150
C         -2.27310        2.57630       -8.12140
C         -2.23100        2.27260       -6.74690
C         -1.63190        3.71310       -8.75090
C         -0.89950        4.62110       -8.11360
H          8.78480       -1.44020       -4.30830
H          6.72310       -6.38040       -1.24070
H          7.43470       -0.05800       -2.56980
H          5.56840       -2.30380        0.04870
H          6.20070        0.57180       -0.81800
H          2.56950        3.27910        4.98150
H          4.20560       -1.62990        1.73510
H          2.26430        0.45380        4.39210
H          2.90640       -2.41040        3.52410
H         -1.46160       -5.75390        7.35460
H          1.44840       -0.07090        6.24360
H         -0.70130       -1.40940        8.95710
H         -1.30020        0.93820        8.68280
H          1.34760        5.11380        3.88510
H         -1.80940       -0.37360        5.30390
H         -1.07990        1.86780        2.18130
H         -2.45020       -0.68220        3.20220
H         -6.68460       -1.07710       -1.74890
H         -6.84500       -2.40990       -2.88050
H         -6.49210       -2.69990        0.14500
H         -8.00410       -2.93190       -0.73480
H         -6.65660       -4.04210       -0.98670
H         -3.90560       -4.64520       -1.56590
H         -2.58760       -3.94720       -2.49310
H         -3.80690       -5.64770       -3.84890
H         -3.98540       -4.04500       -4.56580
H         -5.31080       -4.74960       -3.64090
H         -3.64270       -1.98770        1.31190
H         -4.32110       -1.14820       -5.47600
H         -4.25470        0.48190      -11.49400
H         -1.71090        2.86400       -6.01550
H         -1.78570        3.78820       -9.81720
H         -0.71720        4.58590       -7.05280
H         -0.45060        5.44250       -8.64460
