
  xtb     02282219523D
 energy: -461.689939845556 gnorm: 0.000814672386 xtb: 6.4.1 (unknown)
240266  0     0  0            999 V2000
    3.5172   -0.9049    4.0008 C   0  0  0  0  0  0  0  0  0  0  0  0
    2.9823    0.2118    3.4695 C   0  0  0  0  0  0  0  0  0  0  0  0
    1.5618    0.1551    3.3686 C   0  0  0  0  0  0  0  0  0  0  0  0
    0.6849    1.1187    2.8542 C   0  0  0  0  0  0  0  0  0  0  0  0
    1.1439    2.4353    2.4058 C   0  0  0  0  0  0  0  0  0  0  0  0
    1.2016    2.9070    0.7360 S   0  0  0  0  0  0  0  0  0  0  0  0
    1.6646    4.5282    1.1264 C   0  0  0  0  0  0  0  0  0  0  0  0
    1.8604    5.5726    0.0818 C   0  0  0  0  0  0  0  0  0  0  0  0
    0.7025    6.5707    0.0565 C   0  0  0  0  0  0  0  0  0  0  0  0
    1.7672    4.6764    2.4773 C   0  0  0  0  0  0  0  0  0  0  0  0
    2.1591    6.1606    3.2395 Cl  0  0  0  0  0  0  0  0  0  0  0  0
    1.4877    3.4882    3.2023 C   0  0  0  0  0  0  0  0  0  0  0  0
    1.5552    3.3889    4.9149 Cl  0  0  0  0  0  0  0  0  0  0  0  0
   -0.6674    0.8089    2.8580 C   0  0  0  0  0  0  0  0  0  0  0  0
   -1.1819   -0.4085    3.3659 C   0  0  0  0  0  0  0  0  0  0  0  0
   -0.3046   -1.3627    3.9042 C   0  0  0  0  0  0  0  0  0  0  0  0
   -0.7921   -2.5898    4.5144 C   0  0  0  0  0  0  0  0  0  0  0  0
   -1.7875   -3.7211    3.6477 S   0  0  0  0  0  0  0  0  0  0  0  0
   -1.8851   -4.7956    5.0042 C   0  0  0  0  0  0  0  0  0  0  0  0
   -2.6959   -6.0427    4.9387 C   0  0  0  0  0  0  0  0  0  0  0  0
   -4.1925   -5.7253    4.9584 C   0  0  0  0  0  0  0  0  0  0  0  0
   -1.1898   -4.2864    6.0588 C   0  0  0  0  0  0  0  0  0  0  0  0
   -0.5666   -3.0382    5.7851 C   0  0  0  0  0  0  0  0  0  0  0  0
    0.2970   -2.1546    6.9741 Cl  0  0  0  0  0  0  0  0  0  0  0  0
   -1.0649   -5.0566    7.5870 Cl  0  0  0  0  0  0  0  0  0  0  0  0
    1.0524   -1.0644    3.8755 C   0  0  0  0  0  0  0  0  0  0  0  0
    2.3416   -2.1022    4.4195 S   0  0  0  0  0  0  0  0  0  0  0  0
   -2.5992   -0.4483    3.3233 C   0  0  0  0  0  0  0  0  0  0  0  0
   -3.1699    0.6872    2.8263 C   0  0  0  0  0  0  0  0  0  0  0  0
   -1.9511    1.8589    2.3420 S   0  0  0  0  0  0  0  0  0  0  0  0
   -4.5492    1.0487    2.6992 C   0  0  0  0  0  0  0  0  0  0  0  0
   -4.9204    2.6683    2.1709 S   0  0  0  0  0  0  0  0  0  0  0  0
   -6.5989    2.3732    2.3044 C   0  0  0  0  0  0  0  0  0  0  0  0
   -6.8715    1.1094    2.7294 C   0  0  0  0  0  0  0  0  0  0  0  0
   -5.7060    0.3403    2.9628 C   0  0  0  0  0  0  0  0  0  0  0  0
   -5.7924   -1.0881    3.4021 C   0  0  0  0  0  0  0  0  0  0  0  0
   -7.2140   -1.5407    3.7713 C   0  0  0  0  0  0  0  0  0  0  0  0
   -7.2603   -3.0663    3.8030 C   0  0  0  0  0  0  0  0  0  0  0  0
   -8.2421   -0.9524    2.7859 C   0  0  0  0  0  0  0  0  0  0  0  0
   -8.2428    0.5698    2.9596 C   0  0  0  0  0  0  0  0  0  0  0  0
   -9.6186   -1.5383    3.0090 C   0  0  0  0  0  0  0  0  0  0  0  0
  -10.3346   -1.2406    4.0948 C   0  0  0  0  0  0  0  0  0  0  0  0
  -10.1471   -2.5482    2.0949 C   0  0  0  0  0  0  0  0  0  0  0  0
  -10.0564   -2.6900    0.7629 C   0  0  0  0  0  0  0  0  0  0  0  0
   -9.4994   -1.8305   -0.2467 C   0  0  0  0  0  0  0  0  0  0  0  0
   -9.0495   -2.2519   -1.4645 C   0  0  0  0  0  0  0  0  0  0  0  0
   -8.5201   -1.2180   -2.2770 C   0  0  0  0  0  0  0  0  0  0  0  0
   -7.8376   -1.3412   -3.5030 C   0  0  0  0  0  0  0  0  0  0  0  0
   -7.7932   -2.6121   -4.2031 C   0  0  0  0  0  0  0  0  0  0  0  0
   -6.3069   -3.3051   -4.7802 S   0  0  0  0  0  0  0  0  0  0  0  0
   -7.1167   -4.6828   -5.4436 C   0  0  0  0  0  0  0  0  0  0  0  0
   -6.3582   -5.7882   -6.0910 C   0  0  0  0  0  0  0  0  0  0  0  0
   -5.9168   -6.8279   -5.0577 C   0  0  0  0  0  0  0  0  0  0  0  0
   -8.4590   -4.5981   -5.2213 C   0  0  0  0  0  0  0  0  0  0  0  0
   -9.5915   -5.7788   -5.7410 Cl  0  0  0  0  0  0  0  0  0  0  0  0
   -8.8472   -3.4252   -4.5218 C   0  0  0  0  0  0  0  0  0  0  0  0
  -10.4894   -3.0482   -4.1943 Cl  0  0  0  0  0  0  0  0  0  0  0  0
   -7.1906   -0.2074   -3.9775 C   0  0  0  0  0  0  0  0  0  0  0  0
   -7.2971    1.0522   -3.3392 C   0  0  0  0  0  0  0  0  0  0  0  0
   -8.0075    1.1861   -2.1345 C   0  0  0  0  0  0  0  0  0  0  0  0
   -7.9854    2.4417   -1.4008 C   0  0  0  0  0  0  0  0  0  0  0  0
   -9.4456    3.2252   -0.8791 S   0  0  0  0  0  0  0  0  0  0  0  0
   -8.5784    4.5535   -0.1863 C   0  0  0  0  0  0  0  0  0  0  0  0
   -9.2847    5.6636    0.5117 C   0  0  0  0  0  0  0  0  0  0  0  0
   -9.3603    5.4115    2.0199 C   0  0  0  0  0  0  0  0  0  0  0  0
   -7.2357    4.3739   -0.3404 C   0  0  0  0  0  0  0  0  0  0  0  0
   -6.8934    3.1769   -1.0245 C   0  0  0  0  0  0  0  0  0  0  0  0
   -5.2571    2.6957   -1.2527 Cl  0  0  0  0  0  0  0  0  0  0  0  0
   -6.0479    5.4732    0.2299 Cl  0  0  0  0  0  0  0  0  0  0  0  0
   -8.6055    0.0403   -1.6329 C   0  0  0  0  0  0  0  0  0  0  0  0
   -9.3893   -0.0890   -0.0879 S   0  0  0  0  0  0  0  0  0  0  0  0
   -6.5068    2.0372   -3.9711 C   0  0  0  0  0  0  0  0  0  0  0  0
   -5.7151    1.5435   -4.9689 C   0  0  0  0  0  0  0  0  0  0  0  0
   -6.0835   -0.1349   -5.3236 S   0  0  0  0  0  0  0  0  0  0  0  0
   -4.4929    2.1515   -5.3941 C   0  0  0  0  0  0  0  0  0  0  0  0
   -3.8776    3.1452   -4.6858 C   0  0  0  0  0  0  0  0  0  0  0  0
   -2.4979    3.2559   -4.9571 C   0  0  0  0  0  0  0  0  0  0  0  0
   -1.5638    3.9177   -4.1485 C   0  0  0  0  0  0  0  0  0  0  0  0
   -2.0071    4.6842   -2.9850 C   0  0  0  0  0  0  0  0  0  0  0  0
   -2.6520    6.2895   -3.0936 S   0  0  0  0  0  0  0  0  0  0  0  0
   -2.9338    6.3705   -1.3840 C   0  0  0  0  0  0  0  0  0  0  0  0
   -3.4775    7.6071   -0.7584 C   0  0  0  0  0  0  0  0  0  0  0  0
   -2.4607    8.7483   -0.8005 C   0  0  0  0  0  0  0  0  0  0  0  0
   -2.5477    5.2101   -0.7825 C   0  0  0  0  0  0  0  0  0  0  0  0
   -2.6455    4.9087    0.9081 Cl  0  0  0  0  0  0  0  0  0  0  0  0
   -2.0324    4.2460   -1.6936 C   0  0  0  0  0  0  0  0  0  0  0  0
   -1.5382    2.6736   -1.2192 Cl  0  0  0  0  0  0  0  0  0  0  0  0
   -0.2324    3.6255   -4.3708 C   0  0  0  0  0  0  0  0  0  0  0  0
    0.2088    2.7601   -5.4050 C   0  0  0  0  0  0  0  0  0  0  0  0
   -0.7300    2.1463   -6.2580 C   0  0  0  0  0  0  0  0  0  0  0  0
   -0.3321    1.2258   -7.3083 C   0  0  0  0  0  0  0  0  0  0  0  0
    0.7883   -0.0744   -7.0256 S   0  0  0  0  0  0  0  0  0  0  0  0
    0.6715   -0.6414   -8.6570 C   0  0  0  0  0  0  0  0  0  0  0  0
    1.4799   -1.8030   -9.1196 C   0  0  0  0  0  0  0  0  0  0  0  0
    2.9784   -1.5100   -9.0308 C   0  0  0  0  0  0  0  0  0  0  0  0
   -0.1909    0.1396   -9.3660 C   0  0  0  0  0  0  0  0  0  0  0  0
   -0.7693    1.1909   -8.6042 C   0  0  0  0  0  0  0  0  0  0  0  0
   -1.8396    2.3389   -9.2907 Cl  0  0  0  0  0  0  0  0  0  0  0  0
   -0.5639   -0.0990  -11.0240 Cl  0  0  0  0  0  0  0  0  0  0  0  0
   -2.0740    2.3718   -5.9776 C   0  0  0  0  0  0  0  0  0  0  0  0
   -3.4200    1.4370   -6.5803 S   0  0  0  0  0  0  0  0  0  0  0  0
    1.5990    2.5085   -5.3053 C   0  0  0  0  0  0  0  0  0  0  0  0
    2.1834    3.0839   -4.2137 C   0  0  0  0  0  0  0  0  0  0  0  0
    1.0720    4.1117   -3.3300 S   0  0  0  0  0  0  0  0  0  0  0  0
    3.4314    2.7247   -3.6275 C   0  0  0  0  0  0  0  0  0  0  0  0
    3.8417    3.0014   -2.3561 C   0  0  0  0  0  0  0  0  0  0  0  0
    4.9159    2.1933   -1.9166 C   0  0  0  0  0  0  0  0  0  0  0  0
    5.4255    2.0886   -0.6062 C   0  0  0  0  0  0  0  0  0  0  0  0
    5.2294    3.1347    0.3725 C   0  0  0  0  0  0  0  0  0  0  0  0
    5.0584    2.7923    2.0689 S   0  0  0  0  0  0  0  0  0  0  0  0
    5.1052    4.4621    2.5128 C   0  0  0  0  0  0  0  0  0  0  0  0
    5.1026    4.8623    3.9452 C   0  0  0  0  0  0  0  0  0  0  0  0
    6.4207    4.4759    4.6190 C   0  0  0  0  0  0  0  0  0  0  0  0
    5.2319    5.2347    1.3973 C   0  0  0  0  0  0  0  0  0  0  0  0
    5.3241    6.9499    1.4256 Cl  0  0  0  0  0  0  0  0  0  0  0  0
    5.2994    4.4937    0.1869 C   0  0  0  0  0  0  0  0  0  0  0  0
    5.5754    5.2678   -1.3191 Cl  0  0  0  0  0  0  0  0  0  0  0  0
    6.1428    0.9269   -0.3265 C   0  0  0  0  0  0  0  0  0  0  0  0
    6.5616    0.0182   -1.3308 C   0  0  0  0  0  0  0  0  0  0  0  0
    6.1902    0.2239   -2.6709 C   0  0  0  0  0  0  0  0  0  0  0  0
    6.5957   -0.6800   -3.7361 C   0  0  0  0  0  0  0  0  0  0  0  0
    7.3885   -0.0642   -5.1557 S   0  0  0  0  0  0  0  0  0  0  0  0
    7.5052   -1.6354   -5.8690 C   0  0  0  0  0  0  0  0  0  0  0  0
    8.0772   -1.8279   -7.2299 C   0  0  0  0  0  0  0  0  0  0  0  0
    6.9940   -1.6597   -8.2986 C   0  0  0  0  0  0  0  0  0  0  0  0
    6.9462   -2.5690   -5.0487 C   0  0  0  0  0  0  0  0  0  0  0  0
    6.4289   -2.0333   -3.8386 C   0  0  0  0  0  0  0  0  0  0  0  0
    5.6000   -3.0053   -2.6880 Cl  0  0  0  0  0  0  0  0  0  0  0  0
    6.8684   -4.2422   -5.4203 Cl  0  0  0  0  0  0  0  0  0  0  0  0
    5.3269    1.2812   -2.9170 C   0  0  0  0  0  0  0  0  0  0  0  0
    4.4497    1.5250   -4.4029 S   0  0  0  0  0  0  0  0  0  0  0  0
    7.2563   -1.0913   -0.7896 C   0  0  0  0  0  0  0  0  0  0  0  0
    7.2713   -1.0996    0.5729 C   0  0  0  0  0  0  0  0  0  0  0  0
    6.5740    0.3507    1.2566 S   0  0  0  0  0  0  0  0  0  0  0  0
    7.6027   -2.2087    1.4122 C   0  0  0  0  0  0  0  0  0  0  0  0
    8.3994   -3.2745    1.1269 C   0  0  0  0  0  0  0  0  0  0  0  0
    8.3279   -4.3055    2.0987 C   0  0  0  0  0  0  0  0  0  0  0  0
    8.9524   -5.5628    2.0684 C   0  0  0  0  0  0  0  0  0  0  0  0
    9.7579   -5.9612    0.9256 C   0  0  0  0  0  0  0  0  0  0  0  0
    9.0955   -5.8591   -0.6815 S   0  0  0  0  0  0  0  0  0  0  0  0
   10.5403   -6.4804   -1.4049 C   0  0  0  0  0  0  0  0  0  0  0  0
   10.6463   -6.6536   -2.8808 C   0  0  0  0  0  0  0  0  0  0  0  0
   10.1522   -5.4218   -3.6362 C   0  0  0  0  0  0  0  0  0  0  0  0
   11.4678   -6.7501   -0.4437 C   0  0  0  0  0  0  0  0  0  0  0  0
   13.0329   -7.3759   -0.7677 Cl  0  0  0  0  0  0  0  0  0  0  0  0
   11.0274   -6.4619    0.8780 C   0  0  0  0  0  0  0  0  0  0  0  0
   12.0419   -6.6500    2.2458 Cl  0  0  0  0  0  0  0  0  0  0  0  0
    8.6884   -6.4218    3.1295 C   0  0  0  0  0  0  0  0  0  0  0  0
    7.7860   -6.0994    4.1725 C   0  0  0  0  0  0  0  0  0  0  0  0
    7.1339   -4.8568    4.1844 C   0  0  0  0  0  0  0  0  0  0  0  0
    6.0757   -4.5506    5.1341 C   0  0  0  0  0  0  0  0  0  0  0  0
    4.7210   -5.6327    5.2931 S   0  0  0  0  0  0  0  0  0  0  0  0
    3.8968   -4.5743    6.3870 C   0  0  0  0  0  0  0  0  0  0  0  0
    2.5606   -4.9320    6.9345 C   0  0  0  0  0  0  0  0  0  0  0  0
    2.5687   -6.2963    7.6203 C   0  0  0  0  0  0  0  0  0  0  0  0
    4.6439   -3.4577    6.6126 C   0  0  0  0  0  0  0  0  0  0  0  0
    5.8749   -3.4372    5.9002 C   0  0  0  0  0  0  0  0  0  0  0  0
    7.0099   -2.1628    6.0727 Cl  0  0  0  0  0  0  0  0  0  0  0  0
    4.1615   -2.1698    7.6390 Cl  0  0  0  0  0  0  0  0  0  0  0  0
    7.4532   -3.9719    3.1610 C   0  0  0  0  0  0  0  0  0  0  0  0
    6.7520   -2.4003    2.9279 S   0  0  0  0  0  0  0  0  0  0  0  0
    7.6536   -7.1721    5.1017 C   0  0  0  0  0  0  0  0  0  0  0  0
    8.3963   -8.2472    4.7687 C   0  0  0  0  0  0  0  0  0  0  0  0
    9.3068   -8.0375    3.3143 S   0  0  0  0  0  0  0  0  0  0  0  0
    4.5519   -1.1176    4.1829 H   0  0  0  0  0  0  0  0  0  0  0  0
    3.5602    1.0585    3.1522 H   0  0  0  0  0  0  0  0  0  0  0  0
    1.9335    5.0968   -0.8962 H   0  0  0  0  0  0  0  0  0  0  0  0
    2.7896    6.1096    0.2839 H   0  0  0  0  0  0  0  0  0  0  0  0
    0.8678    7.3028   -0.7298 H   0  0  0  0  0  0  0  0  0  0  0  0
    0.6249    7.0881    1.0088 H   0  0  0  0  0  0  0  0  0  0  0  0
   -0.2319    6.0540   -0.1383 H   0  0  0  0  0  0  0  0  0  0  0  0
   -2.4554   -6.5866    4.0228 H   0  0  0  0  0  0  0  0  0  0  0  0
   -2.4385   -6.6694    5.7939 H   0  0  0  0  0  0  0  0  0  0  0  0
   -4.4521   -5.1892    5.8682 H   0  0  0  0  0  0  0  0  0  0  0  0
   -4.7716   -6.6438    4.9193 H   0  0  0  0  0  0  0  0  0  0  0  0
   -4.4561   -5.1098    4.1013 H   0  0  0  0  0  0  0  0  0  0  0  0
   -3.1555   -1.2963    3.6699 H   0  0  0  0  0  0  0  0  0  0  0  0
   -7.3005    3.1473    2.0681 H   0  0  0  0  0  0  0  0  0  0  0  0
   -5.1474   -1.2458    4.2702 H   0  0  0  0  0  0  0  0  0  0  0  0
   -5.4118   -1.7219    2.5931 H   0  0  0  0  0  0  0  0  0  0  0  0
   -7.4530   -1.1662    4.7725 H   0  0  0  0  0  0  0  0  0  0  0  0
   -8.2202   -3.4155    4.1742 H   0  0  0  0  0  0  0  0  0  0  0  0
   -7.1100   -3.4730    2.8045 H   0  0  0  0  0  0  0  0  0  0  0  0
   -6.4804   -3.4538    4.4553 H   0  0  0  0  0  0  0  0  0  0  0  0
   -7.9038   -1.1980    1.7767 H   0  0  0  0  0  0  0  0  0  0  0  0
   -8.5521    0.8216    3.9774 H   0  0  0  0  0  0  0  0  0  0  0  0
   -8.9525    1.0398    2.2777 H   0  0  0  0  0  0  0  0  0  0  0  0
  -11.3012   -1.6832    4.2679 H   0  0  0  0  0  0  0  0  0  0  0  0
  -10.0054   -0.5318    4.8332 H   0  0  0  0  0  0  0  0  0  0  0  0
  -10.7123   -3.3207    2.6046 H   0  0  0  0  0  0  0  0  0  0  0  0
  -10.4747   -3.5974    0.3404 H   0  0  0  0  0  0  0  0  0  0  0  0
   -9.0350   -3.2891   -1.7468 H   0  0  0  0  0  0  0  0  0  0  0  0
   -5.4805   -5.3783   -6.5930 H   0  0  0  0  0  0  0  0  0  0  0  0
   -6.9989   -6.2643   -6.8356 H   0  0  0  0  0  0  0  0  0  0  0  0
   -5.2751   -6.3678   -4.3102 H   0  0  0  0  0  0  0  0  0  0  0  0
   -5.3672   -7.6284   -5.5454 H   0  0  0  0  0  0  0  0  0  0  0  0
   -6.7833   -7.2541   -4.5586 H   0  0  0  0  0  0  0  0  0  0  0  0
  -10.2936    5.7572    0.1077 H   0  0  0  0  0  0  0  0  0  0  0  0
   -8.7442    6.5944    0.3279 H   0  0  0  0  0  0  0  0  0  0  0  0
   -8.3614    5.3683    2.4468 H   0  0  0  0  0  0  0  0  0  0  0  0
   -9.9068    6.2160    2.5043 H   0  0  0  0  0  0  0  0  0  0  0  0
   -9.8709    4.4726    2.2224 H   0  0  0  0  0  0  0  0  0  0  0  0
   -6.4882    3.0637   -3.6601 H   0  0  0  0  0  0  0  0  0  0  0  0
   -4.3536    3.6993   -3.8991 H   0  0  0  0  0  0  0  0  0  0  0  0
   -4.3838    7.9126   -1.2860 H   0  0  0  0  0  0  0  0  0  0  0  0
   -3.7378    7.3824    0.2774 H   0  0  0  0  0  0  0  0  0  0  0  0
   -1.5651    8.4757   -0.2490 H   0  0  0  0  0  0  0  0  0  0  0  0
   -2.8868    9.6428   -0.3542 H   0  0  0  0  0  0  0  0  0  0  0  0
   -2.1834    8.9687   -1.8291 H   0  0  0  0  0  0  0  0  0  0  0  0
    1.2030   -2.0266  -10.1510 H   0  0  0  0  0  0  0  0  0  0  0  0
    1.2483   -2.6751   -8.5030 H   0  0  0  0  0  0  0  0  0  0  0  0
    3.2333   -0.6495   -9.6444 H   0  0  0  0  0  0  0  0  0  0  0  0
    3.2613   -1.2992   -8.0018 H   0  0  0  0  0  0  0  0  0  0  0  0
    3.5472   -2.3668   -9.3818 H   0  0  0  0  0  0  0  0  0  0  0  0
    2.1441    1.8602   -5.9664 H   0  0  0  0  0  0  0  0  0  0  0  0
    3.3145    3.6797   -1.7117 H   0  0  0  0  0  0  0  0  0  0  0  0
    4.9563    5.9413    4.0081 H   0  0  0  0  0  0  0  0  0  0  0  0
    4.2786    4.3678    4.4632 H   0  0  0  0  0  0  0  0  0  0  0  0
    7.2570    4.9678    4.1279 H   0  0  0  0  0  0  0  0  0  0  0  0
    6.4049    4.7759    5.6633 H   0  0  0  0  0  0  0  0  0  0  0  0
    6.5700    3.3999    4.5667 H   0  0  0  0  0  0  0  0  0  0  0  0
    8.5025   -2.8311   -7.2950 H   0  0  0  0  0  0  0  0  0  0  0  0
    8.8707   -1.0982   -7.3971 H   0  0  0  0  0  0  0  0  0  0  0  0
    7.4206   -1.7982   -9.2881 H   0  0  0  0  0  0  0  0  0  0  0  0
    6.5582   -0.6653   -8.2408 H   0  0  0  0  0  0  0  0  0  0  0  0
    6.2050   -2.3927   -8.1521 H   0  0  0  0  0  0  0  0  0  0  0  0
    7.6621   -1.8886   -1.3823 H   0  0  0  0  0  0  0  0  0  0  0  0
    9.0201   -3.3205    0.2520 H   0  0  0  0  0  0  0  0  0  0  0  0
   11.6900   -6.8565   -3.1276 H   0  0  0  0  0  0  0  0  0  0  0  0
   10.0532   -7.5214   -3.1849 H   0  0  0  0  0  0  0  0  0  0  0  0
    9.1059   -5.2327   -3.4075 H   0  0  0  0  0  0  0  0  0  0  0  0
   10.7321   -4.5454   -3.3566 H   0  0  0  0  0  0  0  0  0  0  0  0
   10.2499   -5.5753   -4.7076 H   0  0  0  0  0  0  0  0  0  0  0  0
    2.2604   -4.1584    7.6420 H   0  0  0  0  0  0  0  0  0  0  0  0
    1.8343   -4.9432    6.1166 H   0  0  0  0  0  0  0  0  0  0  0  0
    3.2735   -6.3009    8.4484 H   0  0  0  0  0  0  0  0  0  0  0  0
    2.8553   -7.0729    6.9145 H   0  0  0  0  0  0  0  0  0  0  0  0
    1.5785   -6.5233    8.0058 H   0  0  0  0  0  0  0  0  0  0  0  0
    7.0335   -7.1221    5.9775 H   0  0  0  0  0  0  0  0  0  0  0  0
    8.4820   -9.1774    5.2955 H   0  0  0  0  0  0  0  0  0  0  0  0
  1  2  2  0  0  0  0
  2  3  1  0  0  0  0
  3  4  2  0  0  0  0
  4  5  1  0  0  0  0
  5  6  1  0  0  0  0
  6  7  1  0  0  0  0
  7  8  1  0  0  0  0
  8  9  1  0  0  0  0
  7 10  2  0  0  0  0
 10 11  1  0  0  0  0
 10 12  1  0  0  0  0
 12 13  1  0  0  0  0
  4 14  1  0  0  0  0
 14 15  2  0  0  0  0
 15 16  1  0  0  0  0
 16 17  1  0  0  0  0
 17 18  1  0  0  0  0
 18 19  1  0  0  0  0
 19 20  1  0  0  0  0
 20 21  1  0  0  0  0
 19 22  2  0  0  0  0
 22 23  1  0  0  0  0
 23 24  1  0  0  0  0
 22 25  1  0  0  0  0
 16 26  2  0  0  0  0
 26 27  1  0  0  0  0
 15 28  1  0  0  0  0
 28 29  2  0  0  0  0
 29 30  1  0  0  0  0
 29 31  1  0  0  0  0
 31 32  1  0  0  0  0
 32 33  1  0  0  0  0
 33 34  2  0  0  0  0
 34 35  1  0  0  0  0
 35 36  1  0  0  0  0
 36 37  1  0  0  0  0
 37 38  1  0  0  0  0
 37 39  1  0  0  0  0
 39 40  1  0  0  0  0
 39 41  1  0  0  0  0
 41 42  2  0  0  0  0
 41 43  1  0  0  0  0
 43 44  2  0  0  0  0
 44 45  1  0  0  0  0
 45 46  2  0  0  0  0
 46 47  1  0  0  0  0
 47 48  2  0  0  0  0
 48 49  1  0  0  0  0
 49 50  1  0  0  0  0
 50 51  1  0  0  0  0
 51 52  1  0  0  0  0
 52 53  1  0  0  0  0
 51 54  2  0  0  0  0
 54 55  1  0  0  0  0
 54 56  1  0  0  0  0
 56 57  1  0  0  0  0
 48 58  1  0  0  0  0
 58 59  2  0  0  0  0
 59 60  1  0  0  0  0
 60 61  1  0  0  0  0
 61 62  1  0  0  0  0
 62 63  1  0  0  0  0
 63 64  1  0  0  0  0
 64 65  1  0  0  0  0
 63 66  2  0  0  0  0
 66 67  1  0  0  0  0
 67 68  1  0  0  0  0
 66 69  1  0  0  0  0
 60 70  2  0  0  0  0
 70 71  1  0  0  0  0
 59 72  1  0  0  0  0
 72 73  2  0  0  0  0
 73 74  1  0  0  0  0
 73 75  1  0  0  0  0
 75 76  2  0  0  0  0
 76 77  1  0  0  0  0
 77 78  2  0  0  0  0
 78 79  1  0  0  0  0
 79 80  1  0  0  0  0
 80 81  1  0  0  0  0
 81 82  1  0  0  0  0
 82 83  1  0  0  0  0
 81 84  2  0  0  0  0
 84 85  1  0  0  0  0
 84 86  1  0  0  0  0
 86 87  1  0  0  0  0
 78 88  1  0  0  0  0
 88 89  2  0  0  0  0
 89 90  1  0  0  0  0
 90 91  1  0  0  0  0
 91 92  1  0  0  0  0
 92 93  1  0  0  0  0
 93 94  1  0  0  0  0
 94 95  1  0  0  0  0
 93 96  2  0  0  0  0
 96 97  1  0  0  0  0
 97 98  1  0  0  0  0
 96 99  1  0  0  0  0
 90100  2  0  0  0  0
100101  1  0  0  0  0
 89102  1  0  0  0  0
102103  2  0  0  0  0
103104  1  0  0  0  0
103105  1  0  0  0  0
105106  2  0  0  0  0
106107  1  0  0  0  0
107108  2  0  0  0  0
108109  1  0  0  0  0
109110  1  0  0  0  0
110111  1  0  0  0  0
111112  1  0  0  0  0
112113  1  0  0  0  0
111114  2  0  0  0  0
114115  1  0  0  0  0
114116  1  0  0  0  0
116117  1  0  0  0  0
108118  1  0  0  0  0
118119  2  0  0  0  0
119120  1  0  0  0  0
120121  1  0  0  0  0
121122  1  0  0  0  0
122123  1  0  0  0  0
123124  1  0  0  0  0
124125  1  0  0  0  0
123126  2  0  0  0  0
126127  1  0  0  0  0
127128  1  0  0  0  0
126129  1  0  0  0  0
120130  2  0  0  0  0
130131  1  0  0  0  0
119132  1  0  0  0  0
132133  2  0  0  0  0
133134  1  0  0  0  0
133135  1  0  0  0  0
135136  2  0  0  0  0
136137  1  0  0  0  0
137138  2  0  0  0  0
138139  1  0  0  0  0
139140  1  0  0  0  0
140141  1  0  0  0  0
141142  1  0  0  0  0
142143  1  0  0  0  0
141144  2  0  0  0  0
144145  1  0  0  0  0
144146  1  0  0  0  0
146147  1  0  0  0  0
138148  1  0  0  0  0
148149  2  0  0  0  0
149150  1  0  0  0  0
150151  1  0  0  0  0
151152  1  0  0  0  0
152153  1  0  0  0  0
153154  1  0  0  0  0
154155  1  0  0  0  0
153156  2  0  0  0  0
156157  1  0  0  0  0
157158  1  0  0  0  0
156159  1  0  0  0  0
150160  2  0  0  0  0
160161  1  0  0  0  0
149162  1  0  0  0  0
162163  2  0  0  0  0
163164  1  0  0  0  0
 27  1  1  0  0  0  0
 35 31  2  0  0  0  0
 71 45  1  0  0  0  0
101 75  1  0  0  0  0
131105  1  0  0  0  0
161135  1  0  0  0  0
 26  3  1  0  0  0  0
 40 34  1  0  0  0  0
 70 47  1  0  0  0  0
100 77  1  0  0  0  0
130107  1  0  0  0  0
160137  1  0  0  0  0
 12  5  2  0  0  0  0
 30 14  1  0  0  0  0
 56 49  2  0  0  0  0
 74 58  1  0  0  0  0
 86 79  2  0  0  0  0
104 88  1  0  0  0  0
116109  2  0  0  0  0
134118  1  0  0  0  0
146139  2  0  0  0  0
164148  1  0  0  0  0
 23 17  2  0  0  0  0
 67 61  2  0  0  0  0
 97 91  2  0  0  0  0
127121  2  0  0  0  0
157151  2  0  0  0  0
  1165  1  0  0  0  0
  2166  1  0  0  0  0
  8167  1  0  0  0  0
  8168  1  0  0  0  0
  9169  1  0  0  0  0
  9170  1  0  0  0  0
  9171  1  0  0  0  0
 20172  1  0  0  0  0
 20173  1  0  0  0  0
 21174  1  0  0  0  0
 21175  1  0  0  0  0
 21176  1  0  0  0  0
 28177  1  0  0  0  0
 33178  1  0  0  0  0
 36179  1  0  0  0  0
 36180  1  0  0  0  0
 37181  1  0  0  0  0
 38182  1  0  0  0  0
 38183  1  0  0  0  0
 38184  1  0  0  0  0
 39185  1  0  0  0  0
 40186  1  0  0  0  0
 40187  1  0  0  0  0
 42188  1  0  0  0  0
 42189  1  0  0  0  0
 43190  1  0  0  0  0
 44191  1  0  0  0  0
 46192  1  0  0  0  0
 52193  1  0  0  0  0
 52194  1  0  0  0  0
 53195  1  0  0  0  0
 53196  1  0  0  0  0
 53197  1  0  0  0  0
 64198  1  0  0  0  0
 64199  1  0  0  0  0
 65200  1  0  0  0  0
 65201  1  0  0  0  0
 65202  1  0  0  0  0
 72203  1  0  0  0  0
 76204  1  0  0  0  0
 82205  1  0  0  0  0
 82206  1  0  0  0  0
 83207  1  0  0  0  0
 83208  1  0  0  0  0
 83209  1  0  0  0  0
 94210  1  0  0  0  0
 94211  1  0  0  0  0
 95212  1  0  0  0  0
 95213  1  0  0  0  0
 95214  1  0  0  0  0
102215  1  0  0  0  0
106216  1  0  0  0  0
112217  1  0  0  0  0
112218  1  0  0  0  0
113219  1  0  0  0  0
113220  1  0  0  0  0
113221  1  0  0  0  0
124222  1  0  0  0  0
124223  1  0  0  0  0
125224  1  0  0  0  0
125225  1  0  0  0  0
125226  1  0  0  0  0
132227  1  0  0  0  0
136228  1  0  0  0  0
142229  1  0  0  0  0
142230  1  0  0  0  0
143231  1  0  0  0  0
143232  1  0  0  0  0
143233  1  0  0  0  0
154234  1  0  0  0  0
154235  1  0  0  0  0
155236  1  0  0  0  0
155237  1  0  0  0  0
155238  1  0  0  0  0
162239  1  0  0  0  0
163240  1  0  0  0  0
M  END
