
  xtb     03072215533D
 energy: -377.663569816473 gnorm: 0.000174707666 xtb: 6.4.1 (unknown)
236256  0     0  0            999 V2000
    1.3988   11.8818    5.0018 C   0  0  0  0  0  0  0  0  0  0  0  0
    2.3496   13.1976    5.5758 S   0  0  0  0  0  0  0  0  0  0  0  0
    0.9851   13.8569    6.3936 C   0  0  0  0  0  0  0  0  0  0  0  0
   -0.1283   13.0991    6.2306 C   0  0  0  0  0  0  0  0  0  0  0  0
    0.1057   11.9566    5.4125 C   0  0  0  0  0  0  0  0  0  0  0  0
   -0.9862   11.0122    5.0108 C   0  0  0  0  0  0  0  0  0  0  0  0
   -2.3171   11.2827    5.7276 C   0  0  0  0  0  0  0  0  0  0  0  0
   -3.4464   10.5886    4.9710 C   0  0  0  0  0  0  0  0  0  0  0  0
   -2.5305   12.8050    5.8325 C   0  0  0  0  0  0  0  0  0  0  0  0
   -1.4803   13.3709    6.7971 C   0  0  0  0  0  0  0  0  0  0  0  0
   -3.9231   13.2062    6.2524 C   0  0  0  0  0  0  0  0  0  0  0  0
   -4.4815   12.7410    7.3691 C   0  0  0  0  0  0  0  0  0  0  0  0
   -4.6857   14.1089    5.3906 C   0  0  0  0  0  0  0  0  0  0  0  0
   -4.2370   15.0692    4.5786 C   0  0  0  0  0  0  0  0  0  0  0  0
   -2.8564   15.5249    4.4229 C   0  0  0  0  0  0  0  0  0  0  0  0
   -2.1509   16.5955    5.6038 S   0  0  0  0  0  0  0  0  0  0  0  0
   -0.6635   16.6247    4.7359 C   0  0  0  0  0  0  0  0  0  0  0  0
   -0.7101   15.8812    3.6021 C   0  0  0  0  0  0  0  0  0  0  0  0
   -1.9810   15.2715    3.4075 C   0  0  0  0  0  0  0  0  0  0  0  0
   -2.2840   14.3852    2.2393 C   0  0  0  0  0  0  0  0  0  0  0  0
   -1.1762   14.4256    1.1828 C   0  0  0  0  0  0  0  0  0  0  0  0
   -1.3973   13.3048    0.1709 C   0  0  0  0  0  0  0  0  0  0  0  0
    0.1911   14.3497    1.8960 C   0  0  0  0  0  0  0  0  0  0  0  0
    0.4177   15.6684    2.6434 C   0  0  0  0  0  0  0  0  0  0  0  0
    1.3067   14.0048    0.9389 C   0  0  0  0  0  0  0  0  0  0  0  0
    1.8934   14.9269    0.1679 C   0  0  0  0  0  0  0  0  0  0  0  0
    1.7163   12.6204    0.8024 C   0  0  0  0  0  0  0  0  0  0  0  0
    1.2660   11.5844    1.5304 C   0  0  0  0  0  0  0  0  0  0  0  0
    1.6052   10.2085    1.3416 C   0  0  0  0  0  0  0  0  0  0  0  0
    2.3045    9.5819    0.3517 C   0  0  0  0  0  0  0  0  0  0  0  0
    2.3346    8.1687    0.4759 C   0  0  0  0  0  0  0  0  0  0  0  0
    2.9241    7.2361   -0.3978 C   0  0  0  0  0  0  0  0  0  0  0  0
    3.7342    7.6700   -1.5414 C   0  0  0  0  0  0  0  0  0  0  0  0
    4.7634    8.5970   -1.3740 C   0  0  0  0  0  0  0  0  0  0  0  0
    5.5449    8.9790   -2.4417 C   0  0  0  0  0  0  0  0  0  0  0  0
    5.3269    8.4694   -3.7221 C   0  0  0  0  0  0  0  0  0  0  0  0
    6.3712    9.0677   -5.0118 S   0  0  0  0  0  0  0  0  0  0  0  0
    6.4814    7.6625   -6.1909 C   0  0  0  0  0  0  0  0  0  0  0  0
    7.7511    7.8088   -7.0060 C   0  0  0  0  0  0  0  0  0  0  0  0
    4.2778    7.5684   -3.8795 C   0  0  0  0  0  0  0  0  0  0  0  0
    3.9660    7.0713   -5.0976 F   0  0  0  0  0  0  0  0  0  0  0  0
    3.5038    7.1576   -2.8133 C   0  0  0  0  0  0  0  0  0  0  0  0
    2.7009    5.8950   -0.1200 C   0  0  0  0  0  0  0  0  0  0  0  0
    1.9854    5.4637    1.0227 C   0  0  0  0  0  0  0  0  0  0  0  0
    1.4525    6.3886    1.9355 C   0  0  0  0  0  0  0  0  0  0  0  0
    0.7642    5.9075    3.1391 C   0  0  0  0  0  0  0  0  0  0  0  0
    1.3668    4.9421    3.9480 C   0  0  0  0  0  0  0  0  0  0  0  0
    0.6952    4.4031    5.0219 C   0  0  0  0  0  0  0  0  0  0  0  0
   -0.5997    4.8082    5.3457 C   0  0  0  0  0  0  0  0  0  0  0  0
   -1.3724    4.0193    6.7215 S   0  0  0  0  0  0  0  0  0  0  0  0
   -3.1467    3.9680    6.2515 C   0  0  0  0  0  0  0  0  0  0  0  0
   -3.8351    2.8779    7.0475 C   0  0  0  0  0  0  0  0  0  0  0  0
   -1.1588    5.8240    4.5755 C   0  0  0  0  0  0  0  0  0  0  0  0
   -0.5039    6.3600    3.4839 C   0  0  0  0  0  0  0  0  0  0  0  0
   -2.3791    6.3272    4.8702 F   0  0  0  0  0  0  0  0  0  0  0  0
    1.6084    7.7247    1.6120 C   0  0  0  0  0  0  0  0  0  0  0  0
    0.9626    9.0648    2.5098 S   0  0  0  0  0  0  0  0  0  0  0  0
    1.8416    4.0596    1.0610 C   0  0  0  0  0  0  0  0  0  0  0  0
    2.4403    3.4129    0.0191 C   0  0  0  0  0  0  0  0  0  0  0  0
    3.2358    4.5279   -1.0718 S   0  0  0  0  0  0  0  0  0  0  0  0
    2.3674    2.0031   -0.1970 C   0  0  0  0  0  0  0  0  0  0  0  0
    1.7843    1.1229    0.6684 C   0  0  0  0  0  0  0  0  0  0  0  0
    1.7285   -0.2032    0.1857 C   0  0  0  0  0  0  0  0  0  0  0  0
    1.1158   -1.3013    0.8123 C   0  0  0  0  0  0  0  0  0  0  0  0
    0.3879   -1.1097    2.0742 C   0  0  0  0  0  0  0  0  0  0  0  0
    0.6629   -1.8694    3.2067 C   0  0  0  0  0  0  0  0  0  0  0  0
    0.0119   -1.6224    4.4005 C   0  0  0  0  0  0  0  0  0  0  0  0
   -0.9347   -0.6096    4.5022 C   0  0  0  0  0  0  0  0  0  0  0  0
   -1.8237   -0.2255    5.9791 S   0  0  0  0  0  0  0  0  0  0  0  0
   -0.5704   -0.4709    7.2848 C   0  0  0  0  0  0  0  0  0  0  0  0
    0.5797    0.5063    7.1442 C   0  0  0  0  0  0  0  0  0  0  0  0
   -1.2290    0.1179    3.3503 C   0  0  0  0  0  0  0  0  0  0  0  0
   -2.1542    1.0979    3.4029 F   0  0  0  0  0  0  0  0  0  0  0  0
   -0.5870   -0.1162    2.1549 C   0  0  0  0  0  0  0  0  0  0  0  0
    1.2000   -2.5132    0.1502 C   0  0  0  0  0  0  0  0  0  0  0  0
    1.8269   -2.6479   -1.1148 C   0  0  0  0  0  0  0  0  0  0  0  0
    2.3992   -1.5380   -1.7634 C   0  0  0  0  0  0  0  0  0  0  0  0
    2.9725   -1.6754   -3.1069 C   0  0  0  0  0  0  0  0  0  0  0  0
    2.2694   -2.3341   -4.1134 C   0  0  0  0  0  0  0  0  0  0  0  0
    2.8168   -2.5283   -5.3661 C   0  0  0  0  0  0  0  0  0  0  0  0
    4.0929   -2.0628   -5.6637 C   0  0  0  0  0  0  0  0  0  0  0  0
    4.9318   -2.2811   -7.1938 S   0  0  0  0  0  0  0  0  0  0  0  0
    3.8781   -3.4455   -8.1272 C   0  0  0  0  0  0  0  0  0  0  0  0
    2.7576   -2.7571   -8.8836 C   0  0  0  0  0  0  0  0  0  0  0  0
    4.7685   -1.3645   -4.6596 C   0  0  0  0  0  0  0  0  0  0  0  0
    4.2357   -1.1684   -3.4057 C   0  0  0  0  0  0  0  0  0  0  0  0
    6.0004   -0.8812   -4.9178 F   0  0  0  0  0  0  0  0  0  0  0  0
    2.3526   -0.3328   -1.0794 C   0  0  0  0  0  0  0  0  0  0  0  0
    2.9382    1.2118   -1.6504 S   0  0  0  0  0  0  0  0  0  0  0  0
    1.7474   -3.9774   -1.5940 C   0  0  0  0  0  0  0  0  0  0  0  0
    1.0468   -4.8177   -0.7792 C   0  0  0  0  0  0  0  0  0  0  0  0
    0.4985   -4.0205    0.6805 S   0  0  0  0  0  0  0  0  0  0  0  0
    0.6979   -6.1670   -1.0945 C   0  0  0  0  0  0  0  0  0  0  0  0
    0.7246   -6.7036   -2.3483 C   0  0  0  0  0  0  0  0  0  0  0  0
    0.2740   -8.0436   -2.4073 C   0  0  0  0  0  0  0  0  0  0  0  0
    0.1652   -8.8587   -3.5476 C   0  0  0  0  0  0  0  0  0  0  0  0
    0.6089   -8.3562   -4.8539 C   0  0  0  0  0  0  0  0  0  0  0  0
   -0.2271   -8.3960   -5.9676 C   0  0  0  0  0  0  0  0  0  0  0  0
    0.1764   -7.8509   -7.1695 C   0  0  0  0  0  0  0  0  0  0  0  0
    1.4203   -7.2427   -7.3030 C   0  0  0  0  0  0  0  0  0  0  0  0
    1.8406   -6.4854   -8.8524 S   0  0  0  0  0  0  0  0  0  0  0  0
    3.4836   -7.2141   -9.2053 C   0  0  0  0  0  0  0  0  0  0  0  0
    3.4132   -8.7236   -9.3163 C   0  0  0  0  0  0  0  0  0  0  0  0
    2.2464   -7.2114   -6.1850 C   0  0  0  0  0  0  0  0  0  0  0  0
    3.4537   -6.6036   -6.2433 F   0  0  0  0  0  0  0  0  0  0  0  0
    1.8662   -7.7707   -4.9833 C   0  0  0  0  0  0  0  0  0  0  0  0
   -0.4023  -10.1087   -3.3625 C   0  0  0  0  0  0  0  0  0  0  0  0
   -0.8120  -10.5829   -2.0920 C   0  0  0  0  0  0  0  0  0  0  0  0
   -0.6507   -9.7891   -0.9441 C   0  0  0  0  0  0  0  0  0  0  0  0
   -0.9989  -10.3148    0.3807 C   0  0  0  0  0  0  0  0  0  0  0  0
   -0.5195  -11.5586    0.7849 C   0  0  0  0  0  0  0  0  0  0  0  0
   -0.8495  -12.0889    2.0160 C   0  0  0  0  0  0  0  0  0  0  0  0
   -1.6860  -11.3977    2.8856 C   0  0  0  0  0  0  0  0  0  0  0  0
   -2.1989  -11.9700    4.4711 S   0  0  0  0  0  0  0  0  0  0  0  0
   -1.8730  -13.7668    4.4142 C   0  0  0  0  0  0  0  0  0  0  0  0
   -2.7778  -14.4886    3.4336 C   0  0  0  0  0  0  0  0  0  0  0  0
   -2.1354  -10.1397    2.4799 C   0  0  0  0  0  0  0  0  0  0  0  0
   -1.8053   -9.5951    1.2589 C   0  0  0  0  0  0  0  0  0  0  0  0
   -2.9335   -9.4353    3.3054 F   0  0  0  0  0  0  0  0  0  0  0  0
   -0.1362   -8.5159   -1.1364 C   0  0  0  0  0  0  0  0  0  0  0  0
    0.1072   -7.3034    0.0969 S   0  0  0  0  0  0  0  0  0  0  0  0
   -1.4114  -11.8667   -2.1747 C   0  0  0  0  0  0  0  0  0  0  0  0
   -1.4230  -12.3908   -3.4319 C   0  0  0  0  0  0  0  0  0  0  0  0
   -0.6938  -11.3015   -4.6006 S   0  0  0  0  0  0  0  0  0  0  0  0
   -1.9708  -13.6387   -3.8683 C   0  0  0  0  0  0  0  0  0  0  0  0
   -2.4844  -13.8204   -5.5296 S   0  0  0  0  0  0  0  0  0  0  0  0
   -3.0329  -15.4222   -5.2298 C   0  0  0  0  0  0  0  0  0  0  0  0
   -2.8362  -15.7956   -3.9393 C   0  0  0  0  0  0  0  0  0  0  0  0
   -2.2175  -14.7872   -3.1572 C   0  0  0  0  0  0  0  0  0  0  0  0
   -1.9007  -15.1196   -1.7396 C   0  0  0  0  0  0  0  0  0  0  0  0
   -1.2348  -16.5074   -1.6307 C   0  0  0  0  0  0  0  0  0  0  0  0
    0.2606  -16.3730   -1.9183 C   0  0  0  0  0  0  0  0  0  0  0  0
   -1.8464  -17.5699   -2.5796 C   0  0  0  0  0  0  0  0  0  0  0  0
   -3.1326  -17.1013   -3.2879 C   0  0  0  0  0  0  0  0  0  0  0  0
   -2.0513  -18.9003   -1.8952 C   0  0  0  0  0  0  0  0  0  0  0  0
   -1.3938  -19.9753   -2.3344 C   0  0  0  0  0  0  0  0  0  0  0  0
   -2.9622  -19.0543   -0.7667 C   0  0  0  0  0  0  0  0  0  0  0  0
   -3.6733  -18.1246   -0.1386 C   0  0  0  0  0  0  0  0  0  0  0  0
    1.8634   11.1277    4.3984 H   0  0  0  0  0  0  0  0  0  0  0  0
    1.0917   14.7665    6.9501 H   0  0  0  0  0  0  0  0  0  0  0  0
   -0.6697    9.9805    5.1847 H   0  0  0  0  0  0  0  0  0  0  0  0
   -1.1477   11.1093    3.9306 H   0  0  0  0  0  0  0  0  0  0  0  0
   -2.2656   10.8636    6.7374 H   0  0  0  0  0  0  0  0  0  0  0  0
   -3.2252    9.5297    4.8545 H   0  0  0  0  0  0  0  0  0  0  0  0
   -4.3875   10.6865    5.5057 H   0  0  0  0  0  0  0  0  0  0  0  0
   -3.5697   11.0269    3.9818 H   0  0  0  0  0  0  0  0  0  0  0  0
   -2.3427   13.2254    4.8440 H   0  0  0  0  0  0  0  0  0  0  0  0
   -1.5807   12.8857    7.7725 H   0  0  0  0  0  0  0  0  0  0  0  0
   -1.6239   14.4407    6.9496 H   0  0  0  0  0  0  0  0  0  0  0  0
   -3.9625   12.0728    8.0338 H   0  0  0  0  0  0  0  0  0  0  0  0
   -5.4752   13.0304    7.6678 H   0  0  0  0  0  0  0  0  0  0  0  0
   -5.7587   13.9664    5.4423 H   0  0  0  0  0  0  0  0  0  0  0  0
   -4.9617   15.6236    3.9901 H   0  0  0  0  0  0  0  0  0  0  0  0
    0.1573   17.1949    5.1228 H   0  0  0  0  0  0  0  0  0  0  0  0
   -3.2410   14.6744    1.7952 H   0  0  0  0  0  0  0  0  0  0  0  0
   -2.4004   13.3525    2.5897 H   0  0  0  0  0  0  0  0  0  0  0  0
   -1.2243   15.3818    0.6499 H   0  0  0  0  0  0  0  0  0  0  0  0
   -0.6660   13.3541   -0.6318 H   0  0  0  0  0  0  0  0  0  0  0  0
   -1.3162   12.3299    0.6466 H   0  0  0  0  0  0  0  0  0  0  0  0
   -2.3909   13.3913   -0.2648 H   0  0  0  0  0  0  0  0  0  0  0  0
    0.1292   13.5709    2.6598 H   0  0  0  0  0  0  0  0  0  0  0  0
    0.4546   16.5059    1.9417 H   0  0  0  0  0  0  0  0  0  0  0  0
    1.3680   15.6411    3.1809 H   0  0  0  0  0  0  0  0  0  0  0  0
    1.6256   15.9675    0.1974 H   0  0  0  0  0  0  0  0  0  0  0  0
    2.6745   14.6626   -0.5252 H   0  0  0  0  0  0  0  0  0  0  0  0
    2.4430   12.4320    0.0228 H   0  0  0  0  0  0  0  0  0  0  0  0
    0.5717   11.7474    2.3416 H   0  0  0  0  0  0  0  0  0  0  0  0
    2.7529   10.1054   -0.4727 H   0  0  0  0  0  0  0  0  0  0  0  0
    4.9697    8.9927   -0.3911 H   0  0  0  0  0  0  0  0  0  0  0  0
    6.3505    9.6837   -2.3049 H   0  0  0  0  0  0  0  0  0  0  0  0
    5.5996    7.6784   -6.8296 H   0  0  0  0  0  0  0  0  0  0  0  0
    6.4948    6.7471   -5.6014 H   0  0  0  0  0  0  0  0  0  0  0  0
    7.8311    6.9828   -7.7094 H   0  0  0  0  0  0  0  0  0  0  0  0
    7.7416    8.7426   -7.5637 H   0  0  0  0  0  0  0  0  0  0  0  0
    8.6247    7.8032   -6.3579 H   0  0  0  0  0  0  0  0  0  0  0  0
    2.7009    6.4617   -2.9991 H   0  0  0  0  0  0  0  0  0  0  0  0
    2.3718    4.6156    3.7270 H   0  0  0  0  0  0  0  0  0  0  0  0
    1.1602    3.6431    5.6310 H   0  0  0  0  0  0  0  0  0  0  0  0
   -3.1854    3.7559    5.1841 H   0  0  0  0  0  0  0  0  0  0  0  0
   -3.5834    4.9442    6.4574 H   0  0  0  0  0  0  0  0  0  0  0  0
   -3.7421    3.0649    8.1152 H   0  0  0  0  0  0  0  0  0  0  0  0
   -3.3981    1.9084    6.8213 H   0  0  0  0  0  0  0  0  0  0  0  0
   -4.8911    2.8519    6.7881 H   0  0  0  0  0  0  0  0  0  0  0  0
   -1.0051    7.1178    2.9022 H   0  0  0  0  0  0  0  0  0  0  0  0
    1.2703    3.5583    1.8190 H   0  0  0  0  0  0  0  0  0  0  0  0
    1.4056    1.4061    1.6320 H   0  0  0  0  0  0  0  0  0  0  0  0
    1.4060   -2.6507    3.1582 H   0  0  0  0  0  0  0  0  0  0  0  0
    0.2466   -2.2262    5.2630 H   0  0  0  0  0  0  0  0  0  0  0  0
   -0.2390   -1.5083    7.2684 H   0  0  0  0  0  0  0  0  0  0  0  0
   -1.1233   -0.2940    8.2069 H   0  0  0  0  0  0  0  0  0  0  0  0
    1.2790    0.3765    7.9677 H   0  0  0  0  0  0  0  0  0  0  0  0
    1.1114    0.3432    6.2079 H   0  0  0  0  0  0  0  0  0  0  0  0
    0.2048    1.5277    7.1612 H   0  0  0  0  0  0  0  0  0  0  0  0
   -0.8538    0.4708    1.2897 H   0  0  0  0  0  0  0  0  0  0  0  0
    1.2655   -2.6821   -3.9202 H   0  0  0  0  0  0  0  0  0  0  0  0
    2.2373   -3.0510   -6.1092 H   0  0  0  0  0  0  0  0  0  0  0  0
    3.5133   -4.1988   -7.4323 H   0  0  0  0  0  0  0  0  0  0  0  0
    4.5705   -3.9205   -8.8223 H   0  0  0  0  0  0  0  0  0  0  0  0
    3.1677   -2.0663   -9.6165 H   0  0  0  0  0  0  0  0  0  0  0  0
    2.1122   -2.1951   -8.2125 H   0  0  0  0  0  0  0  0  0  0  0  0
    2.1564   -3.5030   -9.4005 H   0  0  0  0  0  0  0  0  0  0  0  0
    4.8201   -0.6479   -2.6636 H   0  0  0  0  0  0  0  0  0  0  0  0
    2.2124   -4.3010   -2.5062 H   0  0  0  0  0  0  0  0  0  0  0  0
    1.0106   -6.1402   -3.2166 H   0  0  0  0  0  0  0  0  0  0  0  0
   -1.2071   -8.8394   -5.8856 H   0  0  0  0  0  0  0  0  0  0  0  0
   -0.4771   -7.8759   -8.0274 H   0  0  0  0  0  0  0  0  0  0  0  0
    3.7669   -6.7601  -10.1547 H   0  0  0  0  0  0  0  0  0  0  0  0
    4.1833   -6.8945   -8.4359 H   0  0  0  0  0  0  0  0  0  0  0  0
    4.3912   -9.1175   -9.5856 H   0  0  0  0  0  0  0  0  0  0  0  0
    3.1109   -9.1680   -8.3692 H   0  0  0  0  0  0  0  0  0  0  0  0
    2.6958   -9.0174  -10.0796 H   0  0  0  0  0  0  0  0  0  0  0  0
    2.5546   -7.7414   -4.1527 H   0  0  0  0  0  0  0  0  0  0  0  0
    0.1426  -12.1086    0.1328 H   0  0  0  0  0  0  0  0  0  0  0  0
   -0.4414  -13.0463    2.2973 H   0  0  0  0  0  0  0  0  0  0  0  0
   -2.0725  -14.0911    5.4354 H   0  0  0  0  0  0  0  0  0  0  0  0
   -0.8165  -13.9266    4.2019 H   0  0  0  0  0  0  0  0  0  0  0  0
   -3.8203  -14.3223    3.6939 H   0  0  0  0  0  0  0  0  0  0  0  0
   -2.6169  -14.1322    2.4181 H   0  0  0  0  0  0  0  0  0  0  0  0
   -2.5770  -15.5580    3.4626 H   0  0  0  0  0  0  0  0  0  0  0  0
   -2.2011   -8.6282    0.9922 H   0  0  0  0  0  0  0  0  0  0  0  0
   -1.8763  -12.3407   -1.3311 H   0  0  0  0  0  0  0  0  0  0  0  0
   -3.4743  -15.9855   -6.0277 H   0  0  0  0  0  0  0  0  0  0  0  0
   -2.8344  -15.1110   -1.1676 H   0  0  0  0  0  0  0  0  0  0  0  0
   -1.2346  -14.3786   -1.2991 H   0  0  0  0  0  0  0  0  0  0  0  0
   -1.3443  -16.8501   -0.5975 H   0  0  0  0  0  0  0  0  0  0  0  0
    0.7459  -17.3447   -1.8604 H   0  0  0  0  0  0  0  0  0  0  0  0
    0.7346  -15.7129   -1.1943 H   0  0  0  0  0  0  0  0  0  0  0  0
    0.4202  -15.9608   -2.9130 H   0  0  0  0  0  0  0  0  0  0  0  0
   -1.1201  -17.7353   -3.3832 H   0  0  0  0  0  0  0  0  0  0  0  0
   -3.9480  -16.9810   -2.5731 H   0  0  0  0  0  0  0  0  0  0  0  0
   -3.4371  -17.8485   -4.0222 H   0  0  0  0  0  0  0  0  0  0  0  0
   -1.5175  -20.9439   -1.8794 H   0  0  0  0  0  0  0  0  0  0  0  0
   -0.7078  -19.9275   -3.1631 H   0  0  0  0  0  0  0  0  0  0  0  0
   -3.0416  -20.0768   -0.4160 H   0  0  0  0  0  0  0  0  0  0  0  0
   -3.6594  -17.0824   -0.4019 H   0  0  0  0  0  0  0  0  0  0  0  0
   -4.3117  -18.3858    0.6890 H   0  0  0  0  0  0  0  0  0  0  0  0
  1  2  1  0  0  0  0
  2  3  1  0  0  0  0
  3  4  2  0  0  0  0
  4  5  1  0  0  0  0
  5  6  1  0  0  0  0
  6  7  1  0  0  0  0
  7  8  1  0  0  0  0
  7  9  1  0  0  0  0
  9 10  1  0  0  0  0
  9 11  1  0  0  0  0
 11 12  2  0  0  0  0
 11 13  1  0  0  0  0
 13 14  2  0  0  0  0
 14 15  1  0  0  0  0
 15 16  1  0  0  0  0
 16 17  1  0  0  0  0
 17 18  2  0  0  0  0
 18 19  1  0  0  0  0
 19 20  1  0  0  0  0
 20 21  1  0  0  0  0
 21 22  1  0  0  0  0
 21 23  1  0  0  0  0
 23 24  1  0  0  0  0
 23 25  1  0  0  0  0
 25 26  2  0  0  0  0
 25 27  1  0  0  0  0
 27 28  2  0  0  0  0
 28 29  1  0  0  0  0
 29 30  2  0  0  0  0
 30 31  1  0  0  0  0
 31 32  2  0  0  0  0
 32 33  1  0  0  0  0
 33 34  2  0  0  0  0
 34 35  1  0  0  0  0
 35 36  2  0  0  0  0
 36 37  1  0  0  0  0
 37 38  1  0  0  0  0
 38 39  1  0  0  0  0
 36 40  1  0  0  0  0
 40 41  1  0  0  0  0
 40 42  2  0  0  0  0
 32 43  1  0  0  0  0
 43 44  2  0  0  0  0
 44 45  1  0  0  0  0
 45 46  1  0  0  0  0
 46 47  2  0  0  0  0
 47 48  1  0  0  0  0
 48 49  2  0  0  0  0
 49 50  1  0  0  0  0
 50 51  1  0  0  0  0
 51 52  1  0  0  0  0
 49 53  1  0  0  0  0
 53 54  2  0  0  0  0
 53 55  1  0  0  0  0
 45 56  2  0  0  0  0
 56 57  1  0  0  0  0
 44 58  1  0  0  0  0
 58 59  2  0  0  0  0
 59 60  1  0  0  0  0
 59 61  1  0  0  0  0
 61 62  2  0  0  0  0
 62 63  1  0  0  0  0
 63 64  2  0  0  0  0
 64 65  1  0  0  0  0
 65 66  2  0  0  0  0
 66 67  1  0  0  0  0
 67 68  2  0  0  0  0
 68 69  1  0  0  0  0
 69 70  1  0  0  0  0
 70 71  1  0  0  0  0
 68 72  1  0  0  0  0
 72 73  1  0  0  0  0
 72 74  2  0  0  0  0
 64 75  1  0  0  0  0
 75 76  2  0  0  0  0
 76 77  1  0  0  0  0
 77 78  1  0  0  0  0
 78 79  2  0  0  0  0
 79 80  1  0  0  0  0
 80 81  2  0  0  0  0
 81 82  1  0  0  0  0
 82 83  1  0  0  0  0
 83 84  1  0  0  0  0
 81 85  1  0  0  0  0
 85 86  2  0  0  0  0
 85 87  1  0  0  0  0
 77 88  2  0  0  0  0
 88 89  1  0  0  0  0
 76 90  1  0  0  0  0
 90 91  2  0  0  0  0
 91 92  1  0  0  0  0
 91 93  1  0  0  0  0
 93 94  2  0  0  0  0
 94 95  1  0  0  0  0
 95 96  2  0  0  0  0
 96 97  1  0  0  0  0
 97 98  2  0  0  0  0
 98 99  1  0  0  0  0
 99100  2  0  0  0  0
100101  1  0  0  0  0
101102  1  0  0  0  0
102103  1  0  0  0  0
100104  1  0  0  0  0
104105  1  0  0  0  0
104106  2  0  0  0  0
 96107  1  0  0  0  0
107108  2  0  0  0  0
108109  1  0  0  0  0
109110  1  0  0  0  0
110111  2  0  0  0  0
111112  1  0  0  0  0
112113  2  0  0  0  0
113114  1  0  0  0  0
114115  1  0  0  0  0
115116  1  0  0  0  0
113117  1  0  0  0  0
117118  2  0  0  0  0
117119  1  0  0  0  0
109120  2  0  0  0  0
120121  1  0  0  0  0
108122  1  0  0  0  0
122123  2  0  0  0  0
123124  1  0  0  0  0
123125  1  0  0  0  0
125126  1  0  0  0  0
126127  1  0  0  0  0
127128  2  0  0  0  0
128129  1  0  0  0  0
129130  1  0  0  0  0
130131  1  0  0  0  0
131132  1  0  0  0  0
131133  1  0  0  0  0
133134  1  0  0  0  0
133135  1  0  0  0  0
135136  2  0  0  0  0
135137  1  0  0  0  0
137138  2  0  0  0  0
  5  1  2  0  0  0  0
 19 15  2  0  0  0  0
 57 29  1  0  0  0  0
 89 61  1  0  0  0  0
121 93  1  0  0  0  0
129125  2  0  0  0  0
 10  4  1  0  0  0  0
 24 18  1  0  0  0  0
 56 31  1  0  0  0  0
 88 63  1  0  0  0  0
120 95  1  0  0  0  0
134128  1  0  0  0  0
 42 33  1  0  0  0  0
 60 43  1  0  0  0  0
 74 65  1  0  0  0  0
 92 75  1  0  0  0  0
106 97  1  0  0  0  0
124107  1  0  0  0  0
 54 46  1  0  0  0  0
 86 78  1  0  0  0  0
118110  1  0  0  0  0
  1139  1  0  0  0  0
  3140  1  0  0  0  0
  6141  1  0  0  0  0
  6142  1  0  0  0  0
  7143  1  0  0  0  0
  8144  1  0  0  0  0
  8145  1  0  0  0  0
  8146  1  0  0  0  0
  9147  1  0  0  0  0
 10148  1  0  0  0  0
 10149  1  0  0  0  0
 12150  1  0  0  0  0
 12151  1  0  0  0  0
 13152  1  0  0  0  0
 14153  1  0  0  0  0
 17154  1  0  0  0  0
 20155  1  0  0  0  0
 20156  1  0  0  0  0
 21157  1  0  0  0  0
 22158  1  0  0  0  0
 22159  1  0  0  0  0
 22160  1  0  0  0  0
 23161  1  0  0  0  0
 24162  1  0  0  0  0
 24163  1  0  0  0  0
 26164  1  0  0  0  0
 26165  1  0  0  0  0
 27166  1  0  0  0  0
 28167  1  0  0  0  0
 30168  1  0  0  0  0
 34169  1  0  0  0  0
 35170  1  0  0  0  0
 38171  1  0  0  0  0
 38172  1  0  0  0  0
 39173  1  0  0  0  0
 39174  1  0  0  0  0
 39175  1  0  0  0  0
 42176  1  0  0  0  0
 47177  1  0  0  0  0
 48178  1  0  0  0  0
 51179  1  0  0  0  0
 51180  1  0  0  0  0
 52181  1  0  0  0  0
 52182  1  0  0  0  0
 52183  1  0  0  0  0
 54184  1  0  0  0  0
 58185  1  0  0  0  0
 62186  1  0  0  0  0
 66187  1  0  0  0  0
 67188  1  0  0  0  0
 70189  1  0  0  0  0
 70190  1  0  0  0  0
 71191  1  0  0  0  0
 71192  1  0  0  0  0
 71193  1  0  0  0  0
 74194  1  0  0  0  0
 79195  1  0  0  0  0
 80196  1  0  0  0  0
 83197  1  0  0  0  0
 83198  1  0  0  0  0
 84199  1  0  0  0  0
 84200  1  0  0  0  0
 84201  1  0  0  0  0
 86202  1  0  0  0  0
 90203  1  0  0  0  0
 94204  1  0  0  0  0
 98205  1  0  0  0  0
 99206  1  0  0  0  0
102207  1  0  0  0  0
102208  1  0  0  0  0
103209  1  0  0  0  0
103210  1  0  0  0  0
103211  1  0  0  0  0
106212  1  0  0  0  0
111213  1  0  0  0  0
112214  1  0  0  0  0
115215  1  0  0  0  0
115216  1  0  0  0  0
116217  1  0  0  0  0
116218  1  0  0  0  0
116219  1  0  0  0  0
118220  1  0  0  0  0
122221  1  0  0  0  0
127222  1  0  0  0  0
130223  1  0  0  0  0
130224  1  0  0  0  0
131225  1  0  0  0  0
132226  1  0  0  0  0
132227  1  0  0  0  0
132228  1  0  0  0  0
133229  1  0  0  0  0
134230  1  0  0  0  0
134231  1  0  0  0  0
136232  1  0  0  0  0
136233  1  0  0  0  0
137234  1  0  0  0  0
138235  1  0  0  0  0
138236  1  0  0  0  0
M  END
