166

C          3.01840        3.79240        5.06900
N          1.77200        3.29340        4.93340
C          0.80320        4.19130        5.26710
C          1.49090        5.35790        5.66340
C          2.90060        5.09900        5.52470
N          3.82470        6.03490        5.81280
C          3.33490        7.17440        6.22860
C          1.94910        7.42560        6.36920
N          1.02570        6.53820        6.09170
C         -0.61000        4.05670        5.27900
C         -1.49080        3.12490        4.83750
C         -1.37260        1.90940        4.10120
C         -2.42680        1.08270        3.81320
C         -2.09140       -0.07640        3.06980
C         -2.93760       -1.08640        2.57910
C         -4.39610       -0.94640        2.57720
C         -4.97240        0.25810        2.16500
C         -6.33310        0.36050        1.97920
C         -7.17290       -0.72890        2.19760
S         -8.89670       -0.54410        1.87490
C         -9.28930       -2.12820        1.02830
C        -10.31640       -1.87300       -0.05600
C         -6.59410       -1.90380        2.66890
F         -7.36250       -2.97660        2.96120
C         -5.23170       -2.02580        2.84890
C         -2.32490       -2.15980        1.94080
C         -0.92730       -2.24200        1.71750
C         -0.09180       -1.19330        2.13230
C          1.33150       -1.08970        1.78940
C          1.77080       -1.21950        0.47320
C          3.06640       -0.88870        0.13590
C          3.97610       -0.43430        1.08640
S          5.57020        0.07570        0.51530
C          5.87480        1.59310        1.49730
C          4.77480        2.62050        1.31130
C          3.55480       -0.41640        2.41200
C          2.25660       -0.72240        2.76280
F          4.39900       -0.06690        3.40920
C         -0.70300       -0.15220        2.81400
S          0.10690        1.27820        3.39240
C         -0.57600       -3.40250        0.97570
C         -1.64740       -4.13930        0.58290
S         -3.15700       -3.48840        1.17350
C         -1.66410       -5.24440       -0.34400
N         -1.02400       -6.43730       -0.17970
C         -1.06410       -7.20350       -1.29620
C         -1.77580       -6.47450       -2.25550
C         -2.18500       -5.23960       -1.63880
N         -2.89480       -4.31360       -2.30970
C         -3.15830       -4.62200       -3.55270
C         -2.74810       -5.83240       -4.16140
N         -2.07380       -6.76090       -3.53460
C         -0.43200       -8.49130       -1.51780
C          0.37700       -8.61250       -2.57920
C          0.86810       -7.39520       -3.18750
N          0.87100       -7.05250       -4.49610
C          1.30260       -5.77350       -4.71380
C          1.67980       -5.27140       -3.45730
C          1.39110       -6.29710       -2.49130
N          1.67240       -6.15390       -1.18530
C          2.23120       -5.01530       -0.86460
C          2.52650       -4.00910       -1.81100
N          2.26750       -4.12140       -3.08770
C          1.37350       -5.20430       -6.02630
C          1.38920       -3.89100       -6.30340
C          1.16070       -2.84510       -5.32320
C          1.99650       -1.85440       -4.93390
C          1.46910       -1.03220       -3.90000
C          2.13190       -0.02960       -3.17230
C          3.57540        0.19490       -3.31650
C          4.11250        1.47640       -3.39150
C          5.47710        1.67690       -3.46640
C          6.35820        0.60210       -3.45400
S          8.11260        0.72660       -3.55570
C          8.45510        2.42740       -2.98580
C          8.08670        2.61860       -1.52750
C          5.80690       -0.67870       -3.39520
F          6.62760       -1.74730       -3.39960
C          4.44960       -0.89370       -3.32960
C          1.37050        0.66830       -2.24650
C         -0.00510        0.41520       -2.01500
C         -0.65020       -0.63470       -2.69820
C         -2.06660       -0.92480       -2.44730
C         -2.57480       -0.92400       -1.15020
C         -3.92050       -1.10850       -0.91860
C         -4.80310       -1.33370       -1.96320
S         -6.53080       -1.52050       -1.59370
C         -6.79510       -3.25110       -2.12890
C         -6.06440       -4.22460       -1.22570
C         -4.28760       -1.35940       -3.25190
C         -2.94550       -1.15550       -3.50250
F         -5.10400       -1.58040       -4.30590
C          0.11970       -1.34840       -3.60900
S         -0.38710       -2.76310       -4.49670
C         -0.55020        1.29860       -1.04730
C          0.36690        2.14140       -0.49270
S          1.96910        1.91660       -1.17980
C          0.11500        3.13890        0.48320
N          1.06470        3.96530        0.99960
C          0.55630        4.89050        1.85830
C         -0.82660        4.65280        1.91310
C         -1.10930        3.53550        1.05210
N         -2.35420        3.06250        0.89020
C         -3.27830        3.71420        1.55390
C         -3.00210        4.81940        2.39050
N         -1.79640        5.29010        2.58510
C          1.30720        5.91060        2.52140
C          2.62780        6.08190        2.44370
H          3.88960        3.20590        4.85880
H          1.58130        2.34390        4.65170
H          4.05490        7.94570        6.46790
H          1.60040        8.38780        6.71870
H         -1.05640        4.92570        5.74700
H         -2.53040        3.33970        5.05960
H         -3.42460        1.28450        4.16010
H         -4.33160        1.09120        1.92230
H         -6.77160        1.27970        1.62430
H         -8.35750       -2.49050        0.59890
H         -9.65760       -2.83250        1.77360
H         -9.91570       -1.18490       -0.79710
H        -11.22210       -1.44300        0.36590
H        -10.57270       -2.80960       -0.54760
H         -4.83860       -2.96080        3.21590
H          1.07710       -1.51950       -0.29790
H          3.39630       -0.92980       -0.89000
H          6.82430        1.96040        1.11020
H          6.00410        1.32050        2.54220
H          5.04060        3.53540        1.83830
H          4.63780        2.84140        0.25350
H          3.83070        2.25120        1.71050
H          1.98080       -0.68350        3.80520
H          0.43480       -3.65070        0.70550
H         -0.49880       -6.68550        0.64540
H         -3.72590       -3.90030       -4.12120
H         -2.99330       -6.03040       -5.19600
H         -0.70320       -9.32910       -0.89230
H          0.73630       -9.56740       -2.93390
H          0.48910       -7.63910       -5.22330
H          2.48770       -4.87780        0.17830
H          3.00440       -3.09410       -1.49200
H          1.44720       -5.91520       -6.84040
H          1.55660       -3.56330       -7.32130
H          2.98160       -1.73240       -5.34510
H          3.45480        2.33170       -3.41900
H          5.85080        2.68510       -3.54590
H          9.52930        2.53500       -3.13540
H          7.94240        3.13110       -3.64060
H          7.02220        2.45190       -1.37620
H          8.63650        1.91150       -0.91020
H          8.33360        3.63000       -1.20920
H          4.08140       -1.90640       -3.27080
H         -1.90620       -0.79480       -0.31440
H         -4.31670       -1.07990        0.08230
H         -6.47200       -3.33710       -3.16470
H         -7.87510       -3.39050       -2.08020
H         -6.27360       -5.24660       -1.53740
H         -4.98920       -4.05900       -1.27670
H         -6.38330       -4.10460       -0.19210
H         -2.60270       -1.14970       -4.52550
H         -1.58720        1.34820       -0.77280
H          2.03970        3.90670        0.74720
H         -4.29520        3.36750        1.42710
H         -3.80380        5.32250        2.91350
H          0.69930        6.57270        3.12110
H          3.12020        6.87970        2.96910
H          3.26610        5.43640        1.86290
