227

C          5.92180      -11.02690       11.15070
C          6.12250       -9.72150       11.42160
C          5.56730       -8.86010       10.43080
C          5.60600       -7.45870       10.37160
C          6.18440       -6.65480       11.43590
S          7.37340       -5.43450       11.09280
C          7.47070       -4.95190       12.75160
C          8.34020       -3.81650       13.16460
C          7.72390       -2.47930       12.74680
C          6.62250       -5.69920       13.51290
Cl         6.43060       -5.50730       15.20800
C          5.89500       -6.66950       12.77170
Cl         4.71270       -7.68530       13.49060
C          5.05170       -6.86000        9.24780
C          4.44470       -7.59180        8.19920
C          4.40280       -8.99460        8.26050
C          3.82110       -9.77450        7.18130
S          2.59090      -10.96530        7.47920
C          2.47200      -11.37440        5.80270
C          1.47790      -12.37130        5.31890
C          0.12660      -11.70570        5.04640
C          3.33930      -10.62210        5.06760
C          4.10880       -9.71650        5.84520
Cl         5.32870       -8.71960        5.16310
Cl         3.50910      -10.74810        3.36480
C          4.95440       -9.59330        9.38690
S          5.05850      -11.30680        9.67790
C          3.90630       -6.73750        7.20350
C          4.10140       -5.41470        7.46200
S          4.95470       -5.14580        8.96840
C          3.71640       -4.29470        6.66810
C          3.79550       -2.97880        7.01310
C          3.35730       -2.09920        5.99400
C          3.32710       -0.69400        6.02190
C          3.85290        0.04200        7.15860
S          2.92330        1.27900        7.95150
C          4.18220        1.60390        9.09270
C          4.00340        2.60750       10.17770
C          3.34510        1.97590       11.40680
C          5.25180        0.79090        8.86250
Cl         6.69110        0.81650        9.79610
C          5.07370       -0.09020        7.76280
Cl         6.32030       -1.13710        7.21620
C          2.79310       -0.05590        4.90920
C          2.35190       -0.76230        3.76630
C          2.37890       -2.16780        3.73450
C          1.84490       -2.89190        2.59090
S          2.33660       -2.51910        0.96330
C          1.21170       -3.63920        0.27490
C          0.99900       -3.70680       -1.19640
C          0.11430       -2.54070       -1.64500
C          0.51960       -4.27410        1.26180
C          0.87740       -3.85930        2.57340
Cl         0.06770       -4.44800        3.96400
Cl        -0.69270       -5.45200        0.97050
C          2.88870       -2.80600        4.85700
S          3.07170       -4.52410        5.05820
C          1.88710        0.12030        2.75900
C          1.94900        1.43020        3.10720
S          2.60280        1.66770        4.70880
C          1.50150        2.48400        2.22370
C          0.39000        3.25610        2.30820
C          0.07610        3.92240        1.09020
C         -1.09790        4.61870        0.75890
C         -2.09570        4.92230        1.77360
S         -1.65880        5.83950        3.18510
C         -3.26940        5.78250        3.81700
C         -3.60160        6.39410        5.13290
C         -3.15190        5.49260        6.28500
C         -4.08000        5.07700        2.97940
Cl        -5.74610        4.79230        3.27320
C         -3.42080        4.58990        1.81710
Cl        -4.21720        3.61140        0.65670
C         -1.28060        4.94390       -0.57940
C         -0.31040        4.67730       -1.58080
C          0.90110        4.06920       -1.22750
C          1.98640        3.85120       -2.18210
S          3.38710        4.87830       -2.12810
C          4.14860        4.03180       -3.42920
C          5.50760        4.40980       -3.90620
C          6.59020        3.74300       -3.05430
C          3.35520        3.01070       -3.85800
C          2.12540        2.90160       -3.15050
Cl         0.95860        1.67770       -3.45540
Cl         3.78350        1.98530       -5.16250
C          1.03920        3.66070        0.08920
S          2.30670        2.62380        0.67170
C         -0.78600        4.98210       -2.87950
C         -2.07170        5.44230       -2.88890
S         -2.71300        5.64310       -1.27330
C         -2.95080        5.49360       -4.01620
C         -2.62850        5.33660       -5.33280
C         -3.73390        5.00200       -6.15300
C         -3.70650        4.55770       -7.48940
C         -2.55000        4.73900       -8.34340
S         -1.96640        3.48890       -9.40220
C         -0.76580        4.52270      -10.09080
C          0.16360        4.05500      -11.15680
C          0.02110        2.56790      -11.44520
C         -0.83060        5.76530       -9.53020
Cl         0.20090        7.06110       -9.98500
C         -1.83370        5.89180       -8.53690
Cl        -2.14890        7.37410       -7.73030
C         -4.84750        3.90240       -7.94090
C         -6.04240        3.84550       -7.19350
C         -6.10570        4.38620       -5.90300
C         -7.28910        4.15060       -5.08390
S         -8.84820        4.79970       -5.48510
C         -9.62490        3.93090       -4.20510
C        -11.08360        4.06830       -3.94200
C        -11.35560        5.15320       -2.89710
C         -8.71240        3.19380       -3.51190
C         -7.38790        3.30840       -4.01270
Cl        -6.07480        2.40650       -3.38150
Cl        -9.11100        2.18590       -2.18330
C         -4.93130        4.91910       -5.39680
S         -4.67760        5.38510       -3.74290
C         -7.00780        2.98280       -7.78140
C         -6.53440        2.32950       -8.86530
S         -4.95570        2.89890       -9.36240
C         -7.02400        1.05690       -9.48750
O         -8.29370        0.61820       -9.07190
C         -8.56990        0.48340       -7.73880
C         -9.85800        0.47540       -7.29430
S         -9.95490        0.31430       -5.58700
C         -8.24960        0.23820       -5.45210
C         -7.63570        0.34140       -6.66270
O         -6.27280        0.38090       -6.77990
C         -5.70480       -0.44600       -7.77840
C         -5.88350        0.04360       -9.21970
O         -5.17650       -0.34910      -10.10520
C         -4.26260       -0.62890       -7.41060
C         -3.72720       -1.74950       -6.87750
C         -2.34640       -1.62080       -6.55970
C         -1.50070       -2.59980       -6.01970
C         -1.96160       -3.94660       -5.72220
S         -1.72810       -4.63140       -4.14160
C         -2.45100       -6.13290       -4.59770
C         -2.59170       -7.26230       -3.63520
C         -1.65290       -7.13060       -2.44320
C         -2.84720       -6.08900       -5.90220
Cl        -3.60010       -7.40310       -6.70990
C         -2.57380       -4.85130       -6.54380
Cl        -2.91090       -4.57250       -8.20540
C         -0.18730       -2.22380       -5.77180
C          0.30620       -0.93270       -6.06330
C         -0.53560        0.04290       -6.62560
C          0.04820        1.33110       -6.98740
S         -0.42420        2.85240       -6.29430
C          0.83930        3.71230       -7.11500
C          1.08500        5.17250       -6.94560
C          2.11720        5.46080       -5.85520
C          1.56710        2.85350       -7.88380
C          1.12310        1.50870       -7.81430
Cl         1.84560        0.24540       -8.72750
Cl         2.90830        3.33340       -8.83700
C         -1.85950       -0.32110       -6.84700
S         -3.11840        0.68180       -7.52140
C          1.68350       -0.81360       -5.71150
C          2.20110       -1.95130       -5.21110
S          1.06330       -3.25290       -5.13020
H          6.23330      -11.87450       11.72920
H          6.65570       -9.36600       12.28360
H          8.46290       -3.84560       14.24850
H          9.32200       -3.92180       12.69870
H          8.36790       -1.65910       13.05240
H          7.59940       -2.44250       11.66710
H          6.75010       -2.35040       13.21290
H          1.85390      -12.82380        4.39940
H          1.35390      -13.15290        6.07000
H         -0.26050      -11.25240        5.95580
H         -0.58820      -12.44330        4.69180
H          0.23340      -10.93200        4.29040
H          3.37760       -7.08450        6.33450
H          4.14050       -2.65730        7.97860
H          4.98270        3.00420       10.45240
H          3.38230        3.42690        9.81260
H          3.95980        1.16460       11.78810
H          3.22560        2.72020       12.18930
H          2.36610        1.57960       11.14850
H          1.95650       -3.65750       -1.71650
H          0.51260       -4.65080       -1.44510
H         -0.83210       -2.55900       -1.11050
H          0.60900       -1.59220       -1.44800
H         -0.09120       -2.61640       -2.70800
H          1.49780       -0.20080        1.81090
H         -0.23470        3.28910        3.18220
H         -4.68110        6.54540        5.18360
H         -3.10740        7.36370        5.21840
H         -3.40430        5.95060        7.23740
H         -3.64510        4.52580        6.22180
H         -2.07610        5.33820        6.24540
H          5.62020        5.49390       -3.85330
H          5.61740        4.09760       -4.94660
H          7.57530        4.02810       -3.41350
H          6.49390        4.04910       -2.01580
H          6.49960        2.66120       -3.10690
H         -0.23060        4.76830       -3.77360
H         -1.61860        5.36540       -5.69240
H         -0.03150        4.63080      -12.06720
H          1.18870        4.28150      -10.84990
H          0.71400        2.26940      -12.22730
H         -0.99100        2.33660      -11.76930
H          0.23450        1.98490      -10.55310
H        -11.59600        4.31920       -4.87190
H        -11.46310        3.11010       -3.58070
H        -10.98880        6.11550       -3.24630
H        -12.42330        5.23250       -2.71190
H        -10.85670        4.90950       -1.96290
H         -7.97730        2.82340       -7.34880
H         -7.11150        1.15140      -10.57750
H        -10.74470        0.56170       -7.88670
H         -7.77720        0.14440       -4.49640
H         -6.18380       -1.44320       -7.75700
H         -4.28780       -2.65040       -6.70770
H         -3.62770       -7.30210       -3.28270
H         -2.39780       -8.19540       -4.17070
H         -1.87220       -6.22270       -1.88570
H         -1.76890       -7.98100       -1.77680
H         -0.61860       -7.08920       -2.77690
H          1.45540        5.56820       -7.89310
H          0.15410        5.68450       -6.70430
H          3.05830        4.97050       -6.08790
H          1.76840        5.10190       -4.89050
H          2.29010        6.53120       -5.78470
H          2.24550        0.09230       -5.82560
H          3.20380       -2.12540       -4.87320
