
  xtb     03022223093D
 energy: -360.150013055065 gnorm: 0.000265370126 xtb: 6.4.1 (unknown)
188211  0     0  0            999 V2000
    5.5446   -4.1867   14.7345 C   0  0  0  0  0  0  0  0  0  0  0  0
    5.1947   -4.4393   13.4539 C   0  0  0  0  0  0  0  0  0  0  0  0
    5.5134   -5.6341   12.7747 C   0  0  0  0  0  0  0  0  0  0  0  0
    6.1874   -6.7239   13.5017 C   0  0  0  0  0  0  0  0  0  0  0  0
    6.6258   -6.6489   14.7778 C   0  0  0  0  0  0  0  0  0  0  0  0
    6.4396   -5.2569   15.7626 S   0  0  0  0  0  0  0  0  0  0  0  0
    6.2579   -7.8060   12.5825 C   0  0  0  0  0  0  0  0  0  0  0  0
    5.6782   -7.4275   11.3754 C   0  0  0  0  0  0  0  0  0  0  0  0
    5.7209   -8.4624   10.4161 C   0  0  0  0  0  0  0  0  0  0  0  0
    6.3176   -9.5781   10.9123 C   0  0  0  0  0  0  0  0  0  0  0  0
    6.8532   -9.4203   12.5508 S   0  0  0  0  0  0  0  0  0  0  0  0
    5.2272   -6.0585   11.4750 C   0  0  0  0  0  0  0  0  0  0  0  0
    4.6299   -5.3828   10.3739 C   0  0  0  0  0  0  0  0  0  0  0  0
    4.4957   -4.0473   10.2034 C   0  0  0  0  0  0  0  0  0  0  0  0
    3.8912   -3.4403    9.0650 C   0  0  0  0  0  0  0  0  0  0  0  0
    3.3315   -4.0086    7.9530 C   0  0  0  0  0  0  0  0  0  0  0  0
    2.8301   -3.0724    7.0212 C   0  0  0  0  0  0  0  0  0  0  0  0
    2.2518   -3.3252    5.7634 C   0  0  0  0  0  0  0  0  0  0  0  0
    1.9819   -4.6760    5.3035 C   0  0  0  0  0  0  0  0  0  0  0  0
    2.5083   -5.2125    3.7348 S   0  0  0  0  0  0  0  0  0  0  0  0
    1.7999   -6.7783    3.9444 C   0  0  0  0  0  0  0  0  0  0  0  0
    1.8609   -7.7927    2.8563 C   0  0  0  0  0  0  0  0  0  0  0  0
    1.0714   -7.3331    1.6294 C   0  0  0  0  0  0  0  0  0  0  0  0
    1.1955   -6.8639    5.1627 C   0  0  0  0  0  0  0  0  0  0  0  0
    0.3757   -8.2603    5.7348 Cl  0  0  0  0  0  0  0  0  0  0  0  0
    1.2990   -5.6766    5.9375 C   0  0  0  0  0  0  0  0  0  0  0  0
    0.5515   -5.5131    7.4752 Cl  0  0  0  0  0  0  0  0  0  0  0  0
    1.9649   -2.2235    4.9688 C   0  0  0  0  0  0  0  0  0  0  0  0
    2.1818   -0.8893    5.3883 C   0  0  0  0  0  0  0  0  0  0  0  0
    2.7162   -0.6328    6.6648 C   0  0  0  0  0  0  0  0  0  0  0  0
    2.9583    0.7293    7.1106 C   0  0  0  0  0  0  0  0  0  0  0  0
    3.8822    1.8353    6.1353 S   0  0  0  0  0  0  0  0  0  0  0  0
    3.7055    3.1215    7.2809 C   0  0  0  0  0  0  0  0  0  0  0  0
    4.2706    4.4709    7.0036 C   0  0  0  0  0  0  0  0  0  0  0  0
    3.5899    5.1195    5.7968 C   0  0  0  0  0  0  0  0  0  0  0  0
    2.9765    2.7005    8.3519 C   0  0  0  0  0  0  0  0  0  0  0  0
    2.5564    1.3447    8.2626 C   0  0  0  0  0  0  0  0  0  0  0  0
    1.5666    0.6113    9.4536 Cl  0  0  0  0  0  0  0  0  0  0  0  0
    2.5820    3.6921    9.6962 Cl  0  0  0  0  0  0  0  0  0  0  0  0
    3.0344   -1.7334    7.4473 C   0  0  0  0  0  0  0  0  0  0  0  0
    3.8153   -1.6872    8.9983 S   0  0  0  0  0  0  0  0  0  0  0  0
    1.8002    0.0441    4.3956 C   0  0  0  0  0  0  0  0  0  0  0  0
    1.3328   -0.5361    3.2538 C   0  0  0  0  0  0  0  0  0  0  0  0
    1.2958   -2.2841    3.3623 S   0  0  0  0  0  0  0  0  0  0  0  0
    0.9948    0.1105    2.0314 C   0  0  0  0  0  0  0  0  0  0  0  0
    0.6331   -0.4733    0.8542 C   0  0  0  0  0  0  0  0  0  0  0  0
    0.5097    0.4447   -0.2167 C   0  0  0  0  0  0  0  0  0  0  0  0
    0.2072    0.1655   -1.5608 C   0  0  0  0  0  0  0  0  0  0  0  0
    0.1402   -1.2113   -2.0222 C   0  0  0  0  0  0  0  0  0  0  0  0
   -1.1970   -1.8598   -2.9227 S   0  0  0  0  0  0  0  0  0  0  0  0
   -0.4536   -3.4181   -3.0536 C   0  0  0  0  0  0  0  0  0  0  0  0
   -1.1242   -4.5661   -3.7253 C   0  0  0  0  0  0  0  0  0  0  0  0
   -1.6223   -5.5887   -2.7015 C   0  0  0  0  0  0  0  0  0  0  0  0
    0.7592   -3.4179   -2.4306 C   0  0  0  0  0  0  0  0  0  0  0  0
    1.7993   -4.7798   -2.3621 Cl  0  0  0  0  0  0  0  0  0  0  0  0
    1.1009   -2.1712   -1.8474 C   0  0  0  0  0  0  0  0  0  0  0  0
    2.6117   -1.9008   -1.0785 Cl  0  0  0  0  0  0  0  0  0  0  0  0
    0.0879    1.2519   -2.4144 C   0  0  0  0  0  0  0  0  0  0  0  0
    0.3289    2.5877   -2.0037 C   0  0  0  0  0  0  0  0  0  0  0  0
    0.6712    2.8639   -0.6669 C   0  0  0  0  0  0  0  0  0  0  0  0
    0.9518    4.2099   -0.1952 C   0  0  0  0  0  0  0  0  0  0  0  0
    2.3778    4.5259    0.7541 S   0  0  0  0  0  0  0  0  0  0  0  0
    1.9858    6.2002    0.9401 C   0  0  0  0  0  0  0  0  0  0  0  0
    2.8867    7.1229    1.6837 C   0  0  0  0  0  0  0  0  0  0  0  0
    4.0820    7.5388    0.8236 C   0  0  0  0  0  0  0  0  0  0  0  0
    0.8231    6.4855    0.2904 C   0  0  0  0  0  0  0  0  0  0  0  0
    0.2307    5.3627   -0.3494 C   0  0  0  0  0  0  0  0  0  0  0  0
   -1.2903    5.4725   -1.1423 Cl  0  0  0  0  0  0  0  0  0  0  0  0
    0.1061    8.0434    0.2488 Cl  0  0  0  0  0  0  0  0  0  0  0  0
    0.7523    1.7765    0.1941 C   0  0  0  0  0  0  0  0  0  0  0  0
    1.1499    1.8513    1.8883 S   0  0  0  0  0  0  0  0  0  0  0  0
    0.2383    3.4923   -3.0885 C   0  0  0  0  0  0  0  0  0  0  0  0
   -0.0857    2.8980   -4.2716 C   0  0  0  0  0  0  0  0  0  0  0  0
   -0.2786    1.1638   -4.1129 S   0  0  0  0  0  0  0  0  0  0  0  0
   -0.3261    3.5425   -5.5329 C   0  0  0  0  0  0  0  0  0  0  0  0
   -0.8410    4.8030   -5.6036 C   0  0  0  0  0  0  0  0  0  0  0  0
   -1.2336    5.4310   -6.7925 C   0  0  0  0  0  0  0  0  0  0  0  0
   -0.9661    4.8223   -8.1040 C   0  0  0  0  0  0  0  0  0  0  0  0
   -0.4184    3.5979   -8.2603 C   0  0  0  0  0  0  0  0  0  0  0  0
    0.0166    2.5709   -6.9559 S   0  0  0  0  0  0  0  0  0  0  0  0
   -1.5097    5.7333   -9.0479 C   0  0  0  0  0  0  0  0  0  0  0  0
   -2.1111    6.8035   -8.3750 C   0  0  0  0  0  0  0  0  0  0  0  0
   -2.7487    7.6983   -9.2634 C   0  0  0  0  0  0  0  0  0  0  0  0
   -2.6168    7.2991  -10.5549 C   0  0  0  0  0  0  0  0  0  0  0  0
   -1.7257    5.8263  -10.7510 S   0  0  0  0  0  0  0  0  0  0  0  0
   -1.9663    6.6019   -6.9615 C   0  0  0  0  0  0  0  0  0  0  0  0
   -2.5924    7.3850   -5.9166 C   0  0  0  0  0  0  0  0  0  0  0  0
   -3.2907    6.8655   -4.8903 C   0  0  0  0  0  0  0  0  0  0  0  0
   -3.6121    5.4630   -4.7748 C   0  0  0  0  0  0  0  0  0  0  0  0
   -3.8151    4.5917   -5.7987 C   0  0  0  0  0  0  0  0  0  0  0  0
   -3.9720    3.2469   -5.3978 C   0  0  0  0  0  0  0  0  0  0  0  0
   -4.0777    2.1154   -6.2266 C   0  0  0  0  0  0  0  0  0  0  0  0
   -4.0498    2.2682   -7.6711 C   0  0  0  0  0  0  0  0  0  0  0  0
   -2.8863    1.4036   -8.6328 S   0  0  0  0  0  0  0  0  0  0  0  0
   -3.3428    2.2329  -10.0802 C   0  0  0  0  0  0  0  0  0  0  0  0
   -2.6915    1.9375  -11.3863 C   0  0  0  0  0  0  0  0  0  0  0  0
   -3.5244    0.9487  -12.2052 C   0  0  0  0  0  0  0  0  0  0  0  0
   -4.3646    3.0977   -9.8258 C   0  0  0  0  0  0  0  0  0  0  0  0
   -5.0828    4.1014  -11.0162 Cl  0  0  0  0  0  0  0  0  0  0  0  0
   -4.7700    3.1185   -8.4649 C   0  0  0  0  0  0  0  0  0  0  0  0
   -6.0967    4.0652   -7.9227 Cl  0  0  0  0  0  0  0  0  0  0  0  0
   -4.1228    0.8831   -5.5934 C   0  0  0  0  0  0  0  0  0  0  0  0
   -4.1130    0.7422   -4.1847 C   0  0  0  0  0  0  0  0  0  0  0  0
   -4.0117    1.8758   -3.3579 C   0  0  0  0  0  0  0  0  0  0  0  0
   -3.9977    1.7268   -1.9117 C   0  0  0  0  0  0  0  0  0  0  0  0
   -2.6970    2.3493   -0.9442 S   0  0  0  0  0  0  0  0  0  0  0  0
   -3.3746    1.7220    0.5189 C   0  0  0  0  0  0  0  0  0  0  0  0
   -2.6836    1.8923    1.8273 C   0  0  0  0  0  0  0  0  0  0  0  0
   -2.2093    3.3262    2.0451 C   0  0  0  0  0  0  0  0  0  0  0  0
   -4.5505    1.0846    0.2565 C   0  0  0  0  0  0  0  0  0  0  0  0
   -4.9060    1.0829   -1.1189 C   0  0  0  0  0  0  0  0  0  0  0  0
   -6.3723    0.3996   -1.6933 Cl  0  0  0  0  0  0  0  0  0  0  0  0
   -5.5273    0.3370    1.4540 Cl  0  0  0  0  0  0  0  0  0  0  0  0
   -3.9134    3.1066   -3.9904 C   0  0  0  0  0  0  0  0  0  0  0  0
   -3.6989    4.6531   -3.2193 S   0  0  0  0  0  0  0  0  0  0  0  0
   -4.1850   -0.6146   -3.7907 C   0  0  0  0  0  0  0  0  0  0  0  0
   -4.2702   -1.4875   -4.8352 C   0  0  0  0  0  0  0  0  0  0  0  0
   -4.2297   -0.6621   -6.3842 S   0  0  0  0  0  0  0  0  0  0  0  0
   -4.4027   -2.9103   -4.7712 C   0  0  0  0  0  0  0  0  0  0  0  0
   -4.2914   -3.7209   -5.8661 C   0  0  0  0  0  0  0  0  0  0  0  0
   -4.4086   -5.1165   -5.8464 C   0  0  0  0  0  0  0  0  0  0  0  0
   -4.7042   -5.8222   -4.5899 C   0  0  0  0  0  0  0  0  0  0  0  0
   -4.8797   -5.2164   -3.3970 C   0  0  0  0  0  0  0  0  0  0  0  0
   -4.7526   -3.5226   -3.1554 S   0  0  0  0  0  0  0  0  0  0  0  0
   -4.7507   -7.1956   -4.9413 C   0  0  0  0  0  0  0  0  0  0  0  0
   -4.5062   -7.3475   -6.3095 C   0  0  0  0  0  0  0  0  0  0  0  0
   -4.5254   -8.7109   -6.6866 C   0  0  0  0  0  0  0  0  0  0  0  0
   -4.7771   -9.5268   -5.6305 C   0  0  0  0  0  0  0  0  0  0  0  0
   -5.0013   -8.6911   -4.1317 S   0  0  0  0  0  0  0  0  0  0  0  0
   -4.2955   -6.0436   -6.8856 C   0  0  0  0  0  0  0  0  0  0  0  0
   -4.0188   -5.7087   -8.2533 C   0  0  0  0  0  0  0  0  0  0  0  0
   -4.0010   -6.5469   -9.2897 C   0  0  0  0  0  0  0  0  0  0  0  0
    5.2830   -3.2684   15.2321 H   0  0  0  0  0  0  0  0  0  0  0  0
    4.6132   -3.6881   12.9410 H   0  0  0  0  0  0  0  0  0  0  0  0
    7.1301   -7.4691   15.2637 H   0  0  0  0  0  0  0  0  0  0  0  0
    5.3342   -8.3955    9.4152 H   0  0  0  0  0  0  0  0  0  0  0  0
    6.4852  -10.5118   10.4117 H   0  0  0  0  0  0  0  0  0  0  0  0
    4.2926   -6.0349    9.5786 H   0  0  0  0  0  0  0  0  0  0  0  0
    4.8865   -3.3600   10.9385 H   0  0  0  0  0  0  0  0  0  0  0  0
    3.2981   -5.0689    7.7883 H   0  0  0  0  0  0  0  0  0  0  0  0
    2.9025   -7.9585    2.5708 H   0  0  0  0  0  0  0  0  0  0  0  0
    1.4521   -8.7314    3.2338 H   0  0  0  0  0  0  0  0  0  0  0  0
    1.1169   -8.0897    0.8507 H   0  0  0  0  0  0  0  0  0  0  0  0
    1.4855   -6.4056    1.2407 H   0  0  0  0  0  0  0  0  0  0  0  0
    0.0296   -7.1647    1.8911 H   0  0  0  0  0  0  0  0  0  0  0  0
    4.1316    5.0924    7.8895 H   0  0  0  0  0  0  0  0  0  0  0  0
    5.3419    4.3835    6.8070 H   0  0  0  0  0  0  0  0  0  0  0  0
    3.7333    4.5073    4.9090 H   0  0  0  0  0  0  0  0  0  0  0  0
    2.5228    5.2257    5.9761 H   0  0  0  0  0  0  0  0  0  0  0  0
    4.0121    6.1047    5.6166 H   0  0  0  0  0  0  0  0  0  0  0  0
    1.8810    1.1102    4.5052 H   0  0  0  0  0  0  0  0  0  0  0  0
    0.4680   -1.5313    0.7608 H   0  0  0  0  0  0  0  0  0  0  0  0
   -0.4094   -5.0512   -4.3946 H   0  0  0  0  0  0  0  0  0  0  0  0
   -1.9573   -4.1983   -4.3245 H   0  0  0  0  0  0  0  0  0  0  0  0
   -0.7877   -5.9913   -2.1343 H   0  0  0  0  0  0  0  0  0  0  0  0
   -2.3183   -5.1229   -2.0083 H   0  0  0  0  0  0  0  0  0  0  0  0
   -2.1265   -6.4070   -3.2084 H   0  0  0  0  0  0  0  0  0  0  0  0
    2.3168    8.0072    1.9735 H   0  0  0  0  0  0  0  0  0  0  0  0
    3.2459    6.6257    2.5867 H   0  0  0  0  0  0  0  0  0  0  0  0
    4.6565    6.6636    0.5300 H   0  0  0  0  0  0  0  0  0  0  0  0
    4.7282    8.2107    1.3817 H   0  0  0  0  0  0  0  0  0  0  0  0
    3.7414    8.0487   -0.0740 H   0  0  0  0  0  0  0  0  0  0  0  0
    0.4473    4.5415   -3.0014 H   0  0  0  0  0  0  0  0  0  0  0  0
   -1.0159    5.3241   -4.6734 H   0  0  0  0  0  0  0  0  0  0  0  0
   -0.2558    3.1528   -9.2291 H   0  0  0  0  0  0  0  0  0  0  0  0
   -3.2779    8.5855   -8.9659 H   0  0  0  0  0  0  0  0  0  0  0  0
   -2.9956    7.7825  -11.4343 H   0  0  0  0  0  0  0  0  0  0  0  0
   -2.4989    8.4609   -5.9955 H   0  0  0  0  0  0  0  0  0  0  0  0
   -3.6515    7.5117   -4.1018 H   0  0  0  0  0  0  0  0  0  0  0  0
   -3.8263    4.9061   -6.8238 H   0  0  0  0  0  0  0  0  0  0  0  0
   -1.7006    1.5176  -11.2072 H   0  0  0  0  0  0  0  0  0  0  0  0
   -2.5818    2.8712  -11.9427 H   0  0  0  0  0  0  0  0  0  0  0  0
   -3.0322    0.7406  -13.1513 H   0  0  0  0  0  0  0  0  0  0  0  0
   -3.6448    0.0157  -11.6602 H   0  0  0  0  0  0  0  0  0  0  0  0
   -4.5086    1.3626  -12.4078 H   0  0  0  0  0  0  0  0  0  0  0  0
   -1.8224    1.2181    1.8673 H   0  0  0  0  0  0  0  0  0  0  0  0
   -3.3742    1.5982    2.6199 H   0  0  0  0  0  0  0  0  0  0  0  0
   -3.0525    4.0121    2.0282 H   0  0  0  0  0  0  0  0  0  0  0  0
   -1.5129    3.6157    1.2621 H   0  0  0  0  0  0  0  0  0  0  0  0
   -1.7063    3.4124    3.0044 H   0  0  0  0  0  0  0  0  0  0  0  0
   -4.1582   -0.9358   -2.7663 H   0  0  0  0  0  0  0  0  0  0  0  0
   -4.0862   -3.2284   -6.8079 H   0  0  0  0  0  0  0  0  0  0  0  0
   -5.1063   -5.7656   -2.4966 H   0  0  0  0  0  0  0  0  0  0  0  0
   -4.3590   -9.0902   -7.6777 H   0  0  0  0  0  0  0  0  0  0  0  0
   -4.8478  -10.5971   -5.6312 H   0  0  0  0  0  0  0  0  0  0  0  0
   -3.8147   -4.6605   -8.4330 H   0  0  0  0  0  0  0  0  0  0  0  0
   -3.7834   -6.1980  -10.2844 H   0  0  0  0  0  0  0  0  0  0  0  0
   -4.2087   -7.5962   -9.1898 H   0  0  0  0  0  0  0  0  0  0  0  0
  1  2  2  0  0  0  0
  2  3  1  0  0  0  0
  3  4  1  0  0  0  0
  4  5  2  0  0  0  0
  5  6  1  0  0  0  0
  4  7  1  0  0  0  0
  7  8  2  0  0  0  0
  8  9  1  0  0  0  0
  9 10  2  0  0  0  0
 10 11  1  0  0  0  0
  8 12  1  0  0  0  0
 12 13  1  0  0  0  0
 13 14  2  0  0  0  0
 14 15  1  0  0  0  0
 15 16  2  0  0  0  0
 16 17  1  0  0  0  0
 17 18  2  0  0  0  0
 18 19  1  0  0  0  0
 19 20  1  0  0  0  0
 20 21  1  0  0  0  0
 21 22  1  0  0  0  0
 22 23  1  0  0  0  0
 21 24  2  0  0  0  0
 24 25  1  0  0  0  0
 24 26  1  0  0  0  0
 26 27  1  0  0  0  0
 18 28  1  0  0  0  0
 28 29  2  0  0  0  0
 29 30  1  0  0  0  0
 30 31  1  0  0  0  0
 31 32  1  0  0  0  0
 32 33  1  0  0  0  0
 33 34  1  0  0  0  0
 34 35  1  0  0  0  0
 33 36  2  0  0  0  0
 36 37  1  0  0  0  0
 37 38  1  0  0  0  0
 36 39  1  0  0  0  0
 30 40  2  0  0  0  0
 40 41  1  0  0  0  0
 29 42  1  0  0  0  0
 42 43  2  0  0  0  0
 43 44  1  0  0  0  0
 43 45  1  0  0  0  0
 45 46  2  0  0  0  0
 46 47  1  0  0  0  0
 47 48  2  0  0  0  0
 48 49  1  0  0  0  0
 49 50  1  0  0  0  0
 50 51  1  0  0  0  0
 51 52  1  0  0  0  0
 52 53  1  0  0  0  0
 51 54  2  0  0  0  0
 54 55  1  0  0  0  0
 54 56  1  0  0  0  0
 56 57  1  0  0  0  0
 48 58  1  0  0  0  0
 58 59  2  0  0  0  0
 59 60  1  0  0  0  0
 60 61  1  0  0  0  0
 61 62  1  0  0  0  0
 62 63  1  0  0  0  0
 63 64  1  0  0  0  0
 64 65  1  0  0  0  0
 63 66  2  0  0  0  0
 66 67  1  0  0  0  0
 67 68  1  0  0  0  0
 66 69  1  0  0  0  0
 60 70  2  0  0  0  0
 70 71  1  0  0  0  0
 59 72  1  0  0  0  0
 72 73  2  0  0  0  0
 73 74  1  0  0  0  0
 73 75  1  0  0  0  0
 75 76  2  0  0  0  0
 76 77  1  0  0  0  0
 77 78  1  0  0  0  0
 78 79  2  0  0  0  0
 79 80  1  0  0  0  0
 78 81  1  0  0  0  0
 81 82  2  0  0  0  0
 82 83  1  0  0  0  0
 83 84  2  0  0  0  0
 84 85  1  0  0  0  0
 82 86  1  0  0  0  0
 86 87  1  0  0  0  0
 87 88  2  0  0  0  0
 88 89  1  0  0  0  0
 89 90  2  0  0  0  0
 90 91  1  0  0  0  0
 91 92  2  0  0  0  0
 92 93  1  0  0  0  0
 93 94  1  0  0  0  0
 94 95  1  0  0  0  0
 95 96  1  0  0  0  0
 96 97  1  0  0  0  0
 95 98  2  0  0  0  0
 98 99  1  0  0  0  0
 98100  1  0  0  0  0
100101  1  0  0  0  0
 92102  1  0  0  0  0
102103  2  0  0  0  0
103104  1  0  0  0  0
104105  1  0  0  0  0
105106  1  0  0  0  0
106107  1  0  0  0  0
107108  1  0  0  0  0
108109  1  0  0  0  0
107110  2  0  0  0  0
110111  1  0  0  0  0
111112  1  0  0  0  0
110113  1  0  0  0  0
104114  2  0  0  0  0
114115  1  0  0  0  0
103116  1  0  0  0  0
116117  2  0  0  0  0
117118  1  0  0  0  0
117119  1  0  0  0  0
119120  2  0  0  0  0
120121  1  0  0  0  0
121122  1  0  0  0  0
122123  2  0  0  0  0
123124  1  0  0  0  0
122125  1  0  0  0  0
125126  2  0  0  0  0
126127  1  0  0  0  0
127128  2  0  0  0  0
128129  1  0  0  0  0
126130  1  0  0  0  0
130131  1  0  0  0  0
131132  2  0  0  0  0
  6  1  1  0  0  0  0
 11  7  1  0  0  0  0
 41 15  1  0  0  0  0
 71 45  1  0  0  0  0
 80 75  1  0  0  0  0
 85 81  1  0  0  0  0
115 89  1  0  0  0  0
124119  1  0  0  0  0
129125  1  0  0  0  0
 12  3  2  0  0  0  0
 40 17  1  0  0  0  0
 70 47  1  0  0  0  0
 86 77  2  0  0  0  0
114 91  1  0  0  0  0
130121  2  0  0  0  0
 26 19  2  0  0  0  0
 44 28  1  0  0  0  0
 56 49  2  0  0  0  0
 74 58  1  0  0  0  0
100 93  2  0  0  0  0
118102  1  0  0  0  0
 37 31  2  0  0  0  0
 67 61  2  0  0  0  0
111105  2  0  0  0  0
  1133  1  0  0  0  0
  2134  1  0  0  0  0
  5135  1  0  0  0  0
  9136  1  0  0  0  0
 10137  1  0  0  0  0
 13138  1  0  0  0  0
 14139  1  0  0  0  0
 16140  1  0  0  0  0
 22141  1  0  0  0  0
 22142  1  0  0  0  0
 23143  1  0  0  0  0
 23144  1  0  0  0  0
 23145  1  0  0  0  0
 34146  1  0  0  0  0
 34147  1  0  0  0  0
 35148  1  0  0  0  0
 35149  1  0  0  0  0
 35150  1  0  0  0  0
 42151  1  0  0  0  0
 46152  1  0  0  0  0
 52153  1  0  0  0  0
 52154  1  0  0  0  0
 53155  1  0  0  0  0
 53156  1  0  0  0  0
 53157  1  0  0  0  0
 64158  1  0  0  0  0
 64159  1  0  0  0  0
 65160  1  0  0  0  0
 65161  1  0  0  0  0
 65162  1  0  0  0  0
 72163  1  0  0  0  0
 76164  1  0  0  0  0
 79165  1  0  0  0  0
 83166  1  0  0  0  0
 84167  1  0  0  0  0
 87168  1  0  0  0  0
 88169  1  0  0  0  0
 90170  1  0  0  0  0
 96171  1  0  0  0  0
 96172  1  0  0  0  0
 97173  1  0  0  0  0
 97174  1  0  0  0  0
 97175  1  0  0  0  0
108176  1  0  0  0  0
108177  1  0  0  0  0
109178  1  0  0  0  0
109179  1  0  0  0  0
109180  1  0  0  0  0
116181  1  0  0  0  0
120182  1  0  0  0  0
123183  1  0  0  0  0
127184  1  0  0  0  0
128185  1  0  0  0  0
131186  1  0  0  0  0
132187  1  0  0  0  0
132188  1  0  0  0  0
M  END
