182

C         -1.84620       -0.22040       -6.13420
C         -1.21350        0.17660       -7.25780
S          0.19630        1.13310       -6.95670
C         -0.07610        1.00570       -5.24610
C         -1.20390        0.23130       -4.94150
C         -1.51980       -0.04990       -3.59440
C         -2.73690       -0.90140       -3.33650
C         -3.99850       -0.03450       -3.35350
C         -0.74990        0.48640       -2.57510
C         -0.93090       -0.00590       -1.16500
C         -0.25220       -1.37100       -1.03000
C          0.30920        1.38110       -2.87780
C          1.16980        2.15920       -2.01290
C          2.11520        2.83440       -2.72030
S          2.04060        2.61670       -4.42290
C          0.65840        1.58650       -4.22470
C          1.02780        2.39070       -0.57360
C          2.02730        2.44530        0.30930
C          3.43710        2.26480       -0.07130
C          4.25410        3.34050       -0.20710
S          5.74030        3.00360       -1.02340
C          5.26120        1.34470       -1.20390
C          4.04720        1.06060       -0.56540
C          3.63490       -0.28860       -0.41700
C          2.62290       -0.56810        0.66210
C          3.26330       -0.37610        2.03960
C          4.27050       -1.28020       -1.14200
C          3.89640       -2.73320       -1.00710
C          4.82740       -3.44070       -0.02110
C          5.36310       -0.94080       -1.98620
C          6.08890       -1.74140       -2.94020
C          7.13210       -1.07300       -3.48850
S          7.32300        0.54210       -2.91020
C          5.90740        0.35200       -1.92490
C          5.68610       -3.07290       -3.41260
C          5.01110       -3.22690       -4.55030
C          4.45180       -4.52410       -4.92770
C          5.22520       -5.64040       -4.94610
S          4.34730       -7.11500       -5.10860
C          2.85800       -6.22350       -5.07150
C          3.04670       -4.83230       -5.05320
C          1.90870       -3.98640       -5.13630
C          2.08910       -2.52730       -5.47510
C          2.15890       -1.62150       -4.24580
C          0.64330       -4.52050       -4.96820
C         -0.59480       -3.67220       -5.09280
C         -1.19540       -3.83170       -6.49160
C          0.48020       -5.91630       -4.78090
C         -0.69280       -6.68870       -4.45450
C         -0.45850       -8.02470       -4.51810
S          1.17230       -8.44490       -4.88560
C          1.58530       -6.76130       -4.95950
C         -1.99380       -6.20150       -3.98160
C         -2.23830       -5.67240       -2.77320
C         -1.32170       -5.40230       -1.69280
C         -1.72700       -4.66430       -0.61290
C         -0.92700       -4.31420        0.48280
C          0.47650       -4.74210        0.55620
C          1.07940       -5.50000       -0.38340
S          0.30670       -6.06100       -1.80590
C          0.97780       -4.17500        1.75640
C         -0.02660       -3.43950        2.39120
C          0.42650       -2.89210        3.61500
C          1.72710       -3.20100        3.85520
S          2.46120       -4.17360        2.62700
C         -1.22310       -3.50860        1.58800
C         -2.45410       -2.81960        1.81310
C         -2.58310       -1.76280        2.63620
C         -3.81280       -1.04770        2.89220
C         -5.01690       -1.68180        2.97310
S         -6.32100       -0.67880        3.47970
C         -5.23550        0.67170        3.60060
C         -3.92440        0.35680        3.21100
C         -2.98590        1.40760        3.05850
C         -1.68130        1.13970        2.35140
C         -0.50750        0.96820        3.31640
C         -3.30080        2.68150        3.50010
C         -2.44440        3.86860        3.14790
C         -2.88730        4.42980        1.79220
C         -4.54180        2.92110        4.13890
C         -5.02700        4.08830        4.83370
C         -6.36070        4.00690        5.08670
S         -7.08480        2.50970        4.62590
C         -5.54290        1.94230        4.05920
C         -4.24340        5.14460        5.47660
C         -3.18650        4.91630        6.26400
C         -2.65720        3.57610        6.52580
C         -3.51160        2.57780        6.87710
S         -2.78210        1.03600        7.07490
C         -1.23690        1.73050        6.70370
C         -1.29480        3.10800        6.43320
C         -0.09910        3.78250        6.07960
C         -0.15800        5.25300        5.75670
C          0.07850        6.09470        7.01300
C          1.11270        3.10660        6.07010
C          2.37630        3.78000        5.59910
C          2.56780        3.53750        4.09980
C          1.16700        1.72950        6.39730
C          2.28410        0.81860        6.45090
C          1.88860       -0.45880        6.68200
S          0.18960       -0.65590        6.90310
C         -0.03100        1.05020        6.66690
C          3.71670        1.12340        6.36990
C          4.54080        0.55450        5.50540
H         -2.74450       -0.80980       -6.15070
H         -1.48550       -0.02950       -8.27460
H         -2.67030       -1.41340       -2.37930
H         -2.81380       -1.66830       -4.10860
H         -4.88340       -0.64750       -3.19640
H         -4.09680        0.48030       -4.30640
H         -3.95320        0.71550       -2.56670
H         -1.98570       -0.07760       -0.89820
H         -0.45570        0.66920       -0.46150
H         -0.29570       -1.70940        0.00140
H         -0.72780       -2.12040       -1.65870
H          0.78950       -1.29270       -1.33170
H          2.84580        3.51520       -2.33240
H          0.02060        2.60020       -0.23430
H          1.82250        2.69960        1.34080
H          4.04020        4.35380        0.07510
H          1.78200        0.11810        0.56840
H          2.23800       -1.58300        0.60380
H          2.53660       -0.59290        2.82120
H          3.61700        0.64540        2.16220
H          4.11160       -1.04670        2.16020
H          3.97180       -3.22040       -1.97890
H          2.86460       -2.84660       -0.67540
H          4.59110       -4.50120        0.03160
H          4.72020       -3.01890        0.97450
H          5.86480       -3.32870       -0.32840
H          7.81880       -1.44430       -4.22410
H          5.91560       -3.92550       -2.78600
H          4.79900       -2.36220       -5.16020
H          6.29440       -5.67940       -4.86840
H          1.26660       -2.19790       -6.11120
H          2.99690       -2.41520       -6.06640
H          1.21880       -1.63540       -3.70000
H          2.94670       -1.94050       -3.57120
H          2.36290       -0.59680       -4.54760
H         -1.33010       -3.98900       -4.35540
H         -0.37680       -2.62320       -4.90570
H         -2.10940       -3.24980       -6.58340
H         -0.49450       -3.49190       -7.25100
H         -1.42830       -4.87580       -6.68760
H         -1.16190       -8.80970       -4.31790
H         -2.82820       -6.34700       -4.65600
H         -3.25620       -5.36870       -2.55760
H         -2.74910       -4.30740       -0.62300
H          2.11210       -5.80370       -0.31360
H         -0.16460       -2.32400        4.30970
H          2.32040       -2.91880        4.70290
H         -3.30280       -3.13790        1.22170
H         -1.71920       -1.41510        3.17580
H         -5.20520       -2.72570        2.81430
H         -1.78500        0.23940        1.74530
H         -1.46000        1.96250        1.67110
H          0.38110        0.65120        2.77420
H         -0.28450        1.89710        3.83490
H         -0.73450        0.22360        4.07480
H         -1.38890        3.60670        3.11570
H         -2.57120        4.65190        3.88910
H         -2.81980        3.67590        1.01070
H         -2.26400        5.27660        1.51250
H         -3.92090        4.76450        1.84700
H         -6.96370        4.73220        5.59840
H         -4.63030        6.15080        5.38040
H         -2.71410        5.74820        6.76620
H         -4.56520        2.66960        7.05440
H         -1.13460        5.49260        5.34020
H          0.58080        5.51320        4.99970
H          1.07250        5.91510        7.41660
H         -0.64260        5.83880        7.78630
H         -0.01540        7.15430        6.78400
H          2.35450        4.84940        5.79850
H          3.23410        3.37220        6.12650
H          1.73290        3.94980        3.53540
H          3.48590        4.00630        3.75230
H          2.62830        2.46980        3.90000
H          2.52670       -1.31480        6.78640
H          4.09810        1.80000        7.12570
H          5.59690        0.76280        5.50620
H          4.18550       -0.12790        4.75200
