
  xtb     03022223293D
 energy: -360.131325436771 gnorm: 0.000560862126 xtb: 6.4.1 (unknown)
188211  0     0  0            999 V2000
    8.3287   -3.1314   13.8412 C   0  0  0  0  0  0  0  0  0  0  0  0
    7.1318   -3.5675   13.3891 C   0  0  0  0  0  0  0  0  0  0  0  0
    6.7851   -3.6322   12.0237 C   0  0  0  0  0  0  0  0  0  0  0  0
    7.7305   -3.1337   11.0107 C   0  0  0  0  0  0  0  0  0  0  0  0
    8.9738   -2.6722   11.2710 C   0  0  0  0  0  0  0  0  0  0  0  0
    9.6405   -2.5836   12.8495 S   0  0  0  0  0  0  0  0  0  0  0  0
    7.0527   -3.2523    9.7661 C   0  0  0  0  0  0  0  0  0  0  0  0
    5.7864   -3.7880    9.9774 C   0  0  0  0  0  0  0  0  0  0  0  0
    5.0611   -3.9347    8.7747 C   0  0  0  0  0  0  0  0  0  0  0  0
    5.7835   -3.5114    7.7030 C   0  0  0  0  0  0  0  0  0  0  0  0
    7.3622   -2.9245    8.1048 S   0  0  0  0  0  0  0  0  0  0  0  0
    5.6103   -4.0463   11.3891 C   0  0  0  0  0  0  0  0  0  0  0  0
    4.4060   -4.6104   11.8853 C   0  0  0  0  0  0  0  0  0  0  0  0
    4.1640   -5.1636   13.0999 C   0  0  0  0  0  0  0  0  0  0  0  0
    2.9030   -5.6933   13.5101 C   0  0  0  0  0  0  0  0  0  0  0  0
    1.7261   -5.5440   12.8192 C   0  0  0  0  0  0  0  0  0  0  0  0
    0.4959   -6.0794   13.1933 C   0  0  0  0  0  0  0  0  0  0  0  0
    0.3473   -6.8844   14.4096 C   0  0  0  0  0  0  0  0  0  0  0  0
    1.3604   -7.1434   15.2651 C   0  0  0  0  0  0  0  0  0  0  0  0
    2.9652   -6.5808   15.0318 S   0  0  0  0  0  0  0  0  0  0  0  0
   -1.0197   -7.2732   14.4299 C   0  0  0  0  0  0  0  0  0  0  0  0
   -1.6819   -6.7605   13.3110 C   0  0  0  0  0  0  0  0  0  0  0  0
   -3.0492   -7.1165   13.3045 C   0  0  0  0  0  0  0  0  0  0  0  0
   -3.3783   -7.8737   14.3834 C   0  0  0  0  0  0  0  0  0  0  0  0
   -2.0557   -8.1859   15.4549 S   0  0  0  0  0  0  0  0  0  0  0  0
   -0.7410   -6.0032   12.5260 C   0  0  0  0  0  0  0  0  0  0  0  0
   -0.9290   -5.3028   11.3131 C   0  0  0  0  0  0  0  0  0  0  0  0
   -2.0048   -5.3205   10.4880 C   0  0  0  0  0  0  0  0  0  0  0  0
   -2.0276   -4.5859    9.2694 C   0  0  0  0  0  0  0  0  0  0  0  0
   -1.1742   -3.6009    8.8459 C   0  0  0  0  0  0  0  0  0  0  0  0
   -1.4358   -3.1325    7.5415 C   0  0  0  0  0  0  0  0  0  0  0  0
   -0.7706   -2.1098    6.8398 C   0  0  0  0  0  0  0  0  0  0  0  0
    0.3325   -1.3689    7.4299 C   0  0  0  0  0  0  0  0  0  0  0  0
    1.7361   -2.1624    8.0905 S   0  0  0  0  0  0  0  0  0  0  0  0
    2.4971   -0.6608    8.5023 C   0  0  0  0  0  0  0  0  0  0  0  0
    3.8191   -0.6199    9.1850 C   0  0  0  0  0  0  0  0  0  0  0  0
    3.6945   -0.9919   10.6634 C   0  0  0  0  0  0  0  0  0  0  0  0
    1.6933    0.3810    8.1525 C   0  0  0  0  0  0  0  0  0  0  0  0
    2.0953    2.0293    8.4103 Cl  0  0  0  0  0  0  0  0  0  0  0  0
    0.4716   -0.0137    7.5418 C   0  0  0  0  0  0  0  0  0  0  0  0
   -0.7277    1.1219    7.0842 Cl  0  0  0  0  0  0  0  0  0  0  0  0
   -1.2197   -1.8334    5.5544 C   0  0  0  0  0  0  0  0  0  0  0  0
   -2.3047   -2.5196    4.9566 C   0  0  0  0  0  0  0  0  0  0  0  0
   -3.0002   -3.5095    5.6757 C   0  0  0  0  0  0  0  0  0  0  0  0
   -4.1509   -4.1795    5.0910 C   0  0  0  0  0  0  0  0  0  0  0  0
   -5.4980   -3.2578    4.4881 S   0  0  0  0  0  0  0  0  0  0  0  0
   -6.3643   -4.6807    4.0191 C   0  0  0  0  0  0  0  0  0  0  0  0
   -7.6852   -4.5855    3.3382 C   0  0  0  0  0  0  0  0  0  0  0  0
   -7.5110   -4.3458    1.8366 C   0  0  0  0  0  0  0  0  0  0  0  0
   -5.6351   -5.7943    4.3095 C   0  0  0  0  0  0  0  0  0  0  0  0
   -4.3837   -5.5155    4.9243 C   0  0  0  0  0  0  0  0  0  0  0  0
   -3.2628   -6.7474    5.3276 Cl  0  0  0  0  0  0  0  0  0  0  0  0
   -6.1581   -7.3940    3.9734 Cl  0  0  0  0  0  0  0  0  0  0  0  0
   -2.5441   -3.7967    6.9523 C   0  0  0  0  0  0  0  0  0  0  0  0
   -3.2395   -4.9494    8.0535 S   0  0  0  0  0  0  0  0  0  0  0  0
   -2.5114   -2.1183    3.6165 C   0  0  0  0  0  0  0  0  0  0  0  0
   -1.6371   -1.1591    3.1943 C   0  0  0  0  0  0  0  0  0  0  0  0
   -0.5112   -0.6922    4.4480 S   0  0  0  0  0  0  0  0  0  0  0  0
   -1.5821   -0.5719    1.8936 C   0  0  0  0  0  0  0  0  0  0  0  0
   -2.1289   -1.0800    0.7509 C   0  0  0  0  0  0  0  0  0  0  0  0
   -1.9149   -0.2690   -0.3880 C   0  0  0  0  0  0  0  0  0  0  0  0
   -2.2766   -0.5372   -1.7211 C   0  0  0  0  0  0  0  0  0  0  0  0
   -3.0074   -1.7437   -2.0718 C   0  0  0  0  0  0  0  0  0  0  0  0
   -4.4764   -2.1802   -1.2451 S   0  0  0  0  0  0  0  0  0  0  0  0
   -4.6879   -3.6080   -2.1974 C   0  0  0  0  0  0  0  0  0  0  0  0
   -5.8065   -4.5575   -1.9423 C   0  0  0  0  0  0  0  0  0  0  0  0
   -5.3275   -5.7424   -1.0996 C   0  0  0  0  0  0  0  0  0  0  0  0
   -3.6701   -3.7296   -3.0955 C   0  0  0  0  0  0  0  0  0  0  0  0
   -3.5359   -5.0240   -4.2131 Cl  0  0  0  0  0  0  0  0  0  0  0  0
   -2.7178   -2.6775   -3.0289 C   0  0  0  0  0  0  0  0  0  0  0  0
   -1.3027   -2.6725   -3.9948 Cl  0  0  0  0  0  0  0  0  0  0  0  0
   -1.8949    0.3974   -2.6754 C   0  0  0  0  0  0  0  0  0  0  0  0
   -1.1798    1.5786   -2.3530 C   0  0  0  0  0  0  0  0  0  0  0  0
   -0.8188    1.8456   -1.0211 C   0  0  0  0  0  0  0  0  0  0  0  0
   -0.0892    3.0504   -0.6620 C   0  0  0  0  0  0  0  0  0  0  0  0
    1.4038    3.4756   -1.4471 S   0  0  0  0  0  0  0  0  0  0  0  0
    1.5887    4.9092   -0.4970 C   0  0  0  0  0  0  0  0  0  0  0  0
    2.7803    5.7897   -0.6442 C   0  0  0  0  0  0  0  0  0  0  0  0
    3.8983    5.3601    0.3088 C   0  0  0  0  0  0  0  0  0  0  0  0
    0.5515    5.0330    0.3784 C   0  0  0  0  0  0  0  0  0  0  0  0
   -0.4027    3.9843    0.2869 C   0  0  0  0  0  0  0  0  0  0  0  0
   -1.8384    3.9673    1.2218 Cl  0  0  0  0  0  0  0  0  0  0  0  0
    0.3869    6.3341    1.4841 Cl  0  0  0  0  0  0  0  0  0  0  0  0
   -1.1856    0.9037   -0.0689 C   0  0  0  0  0  0  0  0  0  0  0  0
   -0.7690    0.9501    1.6192 S   0  0  0  0  0  0  0  0  0  0  0  0
   -0.9378    2.3774   -3.4958 C   0  0  0  0  0  0  0  0  0  0  0  0
   -1.4270    1.8399   -4.6495 C   0  0  0  0  0  0  0  0  0  0  0  0
   -2.2512    0.3207   -4.3769 S   0  0  0  0  0  0  0  0  0  0  0  0
   -1.2796    2.3516   -5.9707 C   0  0  0  0  0  0  0  0  0  0  0  0
   -1.6291    1.7512   -7.1434 C   0  0  0  0  0  0  0  0  0  0  0  0
   -1.2762    2.5036   -8.2898 C   0  0  0  0  0  0  0  0  0  0  0  0
   -1.4778    2.1727   -9.6424 C   0  0  0  0  0  0  0  0  0  0  0  0
   -2.2278    0.9861  -10.0151 C   0  0  0  0  0  0  0  0  0  0  0  0
   -1.5932   -0.1860  -11.1311 S   0  0  0  0  0  0  0  0  0  0  0  0
   -3.0011   -1.1835  -11.0051 C   0  0  0  0  0  0  0  0  0  0  0  0
   -3.0938   -2.4854  -11.7212 C   0  0  0  0  0  0  0  0  0  0  0  0
   -2.4953   -3.6151  -10.8793 C   0  0  0  0  0  0  0  0  0  0  0  0
   -3.9006   -0.6282  -10.1445 C   0  0  0  0  0  0  0  0  0  0  0  0
   -5.4212   -1.3283   -9.7679 Cl  0  0  0  0  0  0  0  0  0  0  0  0
   -3.4683    0.6029   -9.5837 C   0  0  0  0  0  0  0  0  0  0  0  0
   -4.4576    1.5373   -8.5370 Cl  0  0  0  0  0  0  0  0  0  0  0  0
   -0.9275    3.0276  -10.5859 C   0  0  0  0  0  0  0  0  0  0  0  0
   -0.2459    4.2214  -10.2448 C   0  0  0  0  0  0  0  0  0  0  0  0
   -0.1167    4.5932   -8.8948 C   0  0  0  0  0  0  0  0  0  0  0  0
    0.5018    5.8499   -8.5113 C   0  0  0  0  0  0  0  0  0  0  0  0
    1.7638    5.9129   -7.3175 S   0  0  0  0  0  0  0  0  0  0  0  0
    1.8892    7.6367   -7.4268 C   0  0  0  0  0  0  0  0  0  0  0  0
    2.8432    8.3872   -6.5647 C   0  0  0  0  0  0  0  0  0  0  0  0
    2.4630    8.2684   -5.0877 C   0  0  0  0  0  0  0  0  0  0  0  0
    0.9968    8.1190   -8.3366 C   0  0  0  0  0  0  0  0  0  0  0  0
    0.2118    7.1097   -8.9571 C   0  0  0  0  0  0  0  0  0  0  0  0
   -1.0309    7.4729  -10.0844 Cl  0  0  0  0  0  0  0  0  0  0  0  0
    0.8137    9.7828   -8.7180 Cl  0  0  0  0  0  0  0  0  0  0  0  0
   -0.6088    3.7045   -7.9483 C   0  0  0  0  0  0  0  0  0  0  0  0
   -0.4976    3.8998   -6.2225 S   0  0  0  0  0  0  0  0  0  0  0  0
    0.2592    4.8871  -11.3867 C   0  0  0  0  0  0  0  0  0  0  0  0
   -0.0396    4.2642  -12.5644 C   0  0  0  0  0  0  0  0  0  0  0  0
   -0.9769    2.8000  -12.3099 S   0  0  0  0  0  0  0  0  0  0  0  0
    0.3293    4.6609  -13.8879 C   0  0  0  0  0  0  0  0  0  0  0  0
    0.0450    3.9076  -14.9932 C   0  0  0  0  0  0  0  0  0  0  0  0
    0.4007    4.2386  -16.3052 C   0  0  0  0  0  0  0  0  0  0  0  0
    1.1313    5.4832  -16.5908 C   0  0  0  0  0  0  0  0  0  0  0  0
    1.5048    6.3788  -15.6533 C   0  0  0  0  0  0  0  0  0  0  0  0
    1.1878    6.1984  -13.9767 S   0  0  0  0  0  0  0  0  0  0  0  0
    1.3213    5.4833  -17.9969 C   0  0  0  0  0  0  0  0  0  0  0  0
    0.7572    4.3320  -18.5557 C   0  0  0  0  0  0  0  0  0  0  0  0
    0.9410    4.2978  -19.9581 C   0  0  0  0  0  0  0  0  0  0  0  0
    1.6142    5.3876  -20.4087 C   0  0  0  0  0  0  0  0  0  0  0  0
    2.0595    6.5053  -19.1645 S   0  0  0  0  0  0  0  0  0  0  0  0
    0.1751    3.5457  -17.4984 C   0  0  0  0  0  0  0  0  0  0  0  0
   -0.5082    2.2877  -17.5934 C   0  0  0  0  0  0  0  0  0  0  0  0
   -0.7854    1.6126  -18.7091 C   0  0  0  0  0  0  0  0  0  0  0  0
    8.5664   -3.0888   14.8905 H   0  0  0  0  0  0  0  0  0  0  0  0
    6.3997   -3.8588   14.1269 H   0  0  0  0  0  0  0  0  0  0  0  0
    9.6363   -2.3290   10.4923 H   0  0  0  0  0  0  0  0  0  0  0  0
    4.0604   -4.3192    8.6914 H   0  0  0  0  0  0  0  0  0  0  0  0
    5.4837   -3.5023    6.6733 H   0  0  0  0  0  0  0  0  0  0  0  0
    3.6088   -4.6218   11.1532 H   0  0  0  0  0  0  0  0  0  0  0  0
    4.9648   -5.2737   13.8158 H   0  0  0  0  0  0  0  0  0  0  0  0
    1.7647   -4.9628   11.9099 H   0  0  0  0  0  0  0  0  0  0  0  0
    1.2340   -7.7308   16.1608 H   0  0  0  0  0  0  0  0  0  0  0  0
   -3.7635   -6.8303   12.5547 H   0  0  0  0  0  0  0  0  0  0  0  0
   -4.3391   -8.2813   14.6308 H   0  0  0  0  0  0  0  0  0  0  0  0
   -0.0830   -4.7067   10.9993 H   0  0  0  0  0  0  0  0  0  0  0  0
   -2.8587   -5.9448   10.6994 H   0  0  0  0  0  0  0  0  0  0  0  0
   -0.3863   -3.2028    9.4571 H   0  0  0  0  0  0  0  0  0  0  0  0
    4.2239    0.3892    9.0920 H   0  0  0  0  0  0  0  0  0  0  0  0
    4.5017   -1.3168    8.6958 H   0  0  0  0  0  0  0  0  0  0  0  0
    3.0421   -0.2900   11.1770 H   0  0  0  0  0  0  0  0  0  0  0  0
    4.6723   -0.9730   11.1377 H   0  0  0  0  0  0  0  0  0  0  0  0
    3.2814   -1.9919   10.7676 H   0  0  0  0  0  0  0  0  0  0  0  0
   -8.2577   -3.7644    3.7729 H   0  0  0  0  0  0  0  0  0  0  0  0
   -8.2304   -5.5172    3.4993 H   0  0  0  0  0  0  0  0  0  0  0  0
   -6.9570   -3.4261    1.6615 H   0  0  0  0  0  0  0  0  0  0  0  0
   -6.9678   -5.1727    1.3872 H   0  0  0  0  0  0  0  0  0  0  0  0
   -8.4828   -4.2649    1.3570 H   0  0  0  0  0  0  0  0  0  0  0  0
   -3.2835   -2.5215    2.9884 H   0  0  0  0  0  0  0  0  0  0  0  0
   -2.6431   -2.0218    0.7218 H   0  0  0  0  0  0  0  0  0  0  0  0
   -6.1854   -4.9247   -2.8983 H   0  0  0  0  0  0  0  0  0  0  0  0
   -6.6115   -4.0367   -1.4220 H   0  0  0  0  0  0  0  0  0  0  0  0
   -6.1516   -6.4261   -0.9140 H   0  0  0  0  0  0  0  0  0  0  0  0
   -4.9355   -5.3960   -0.1462 H   0  0  0  0  0  0  0  0  0  0  0  0
   -4.5409   -6.2810   -1.6212 H   0  0  0  0  0  0  0  0  0  0  0  0
    3.1393    5.7431   -1.6736 H   0  0  0  0  0  0  0  0  0  0  0  0
    2.4864    6.8172   -0.4205 H   0  0  0  0  0  0  0  0  0  0  0  0
    3.5551    5.4122    1.3388 H   0  0  0  0  0  0  0  0  0  0  0  0
    4.7584    6.0144    0.1942 H   0  0  0  0  0  0  0  0  0  0  0  0
    4.2047    4.3388    0.0959 H   0  0  0  0  0  0  0  0  0  0  0  0
   -0.4108    3.3139   -3.4753 H   0  0  0  0  0  0  0  0  0  0  0  0
   -2.0958    0.7836   -7.1800 H   0  0  0  0  0  0  0  0  0  0  0  0
   -4.1448   -2.6999  -11.9245 H   0  0  0  0  0  0  0  0  0  0  0  0
   -2.5593   -2.4155  -12.6698 H   0  0  0  0  0  0  0  0  0  0  0  0
   -2.5729   -4.5590  -11.4121 H   0  0  0  0  0  0  0  0  0  0  0  0
   -1.4468   -3.4158  -10.6712 H   0  0  0  0  0  0  0  0  0  0  0  0
   -3.0265   -3.7032   -9.9351 H   0  0  0  0  0  0  0  0  0  0  0  0
    2.8352    9.4349   -6.8696 H   0  0  0  0  0  0  0  0  0  0  0  0
    3.8519    7.9922   -6.7090 H   0  0  0  0  0  0  0  0  0  0  0  0
    2.4689    7.2252   -4.7809 H   0  0  0  0  0  0  0  0  0  0  0  0
    3.1707    8.8194   -4.4742 H   0  0  0  0  0  0  0  0  0  0  0  0
    1.4680    8.6727   -4.9203 H   0  0  0  0  0  0  0  0  0  0  0  0
    0.8468    5.7854  -11.3351 H   0  0  0  0  0  0  0  0  0  0  0  0
   -0.4903    2.9832  -14.8182 H   0  0  0  0  0  0  0  0  0  0  0  0
    2.0380    7.2850  -15.8944 H   0  0  0  0  0  0  0  0  0  0  0  0
    0.6043    3.5183  -20.6159 H   0  0  0  0  0  0  0  0  0  0  0  0
    1.8885    5.6167  -21.4201 H   0  0  0  0  0  0  0  0  0  0  0  0
   -0.8214    1.8677  -16.6457 H   0  0  0  0  0  0  0  0  0  0  0  0
   -0.5146    1.9695  -19.6854 H   0  0  0  0  0  0  0  0  0  0  0  0
   -1.3059    0.6712  -18.6744 H   0  0  0  0  0  0  0  0  0  0  0  0
  1  2  2  0  0  0  0
  2  3  1  0  0  0  0
  3  4  1  0  0  0  0
  4  5  2  0  0  0  0
  5  6  1  0  0  0  0
  4  7  1  0  0  0  0
  7  8  2  0  0  0  0
  8  9  1  0  0  0  0
  9 10  2  0  0  0  0
 10 11  1  0  0  0  0
  8 12  1  0  0  0  0
 12 13  1  0  0  0  0
 13 14  2  0  0  0  0
 14 15  1  0  0  0  0
 15 16  2  0  0  0  0
 16 17  1  0  0  0  0
 17 18  1  0  0  0  0
 18 19  2  0  0  0  0
 19 20  1  0  0  0  0
 18 21  1  0  0  0  0
 21 22  2  0  0  0  0
 22 23  1  0  0  0  0
 23 24  2  0  0  0  0
 24 25  1  0  0  0  0
 22 26  1  0  0  0  0
 26 27  1  0  0  0  0
 27 28  2  0  0  0  0
 28 29  1  0  0  0  0
 29 30  2  0  0  0  0
 30 31  1  0  0  0  0
 31 32  2  0  0  0  0
 32 33  1  0  0  0  0
 33 34  1  0  0  0  0
 34 35  1  0  0  0  0
 35 36  1  0  0  0  0
 36 37  1  0  0  0  0
 35 38  2  0  0  0  0
 38 39  1  0  0  0  0
 38 40  1  0  0  0  0
 40 41  1  0  0  0  0
 32 42  1  0  0  0  0
 42 43  2  0  0  0  0
 43 44  1  0  0  0  0
 44 45  1  0  0  0  0
 45 46  1  0  0  0  0
 46 47  1  0  0  0  0
 47 48  1  0  0  0  0
 48 49  1  0  0  0  0
 47 50  2  0  0  0  0
 50 51  1  0  0  0  0
 51 52  1  0  0  0  0
 50 53  1  0  0  0  0
 44 54  2  0  0  0  0
 54 55  1  0  0  0  0
 43 56  1  0  0  0  0
 56 57  2  0  0  0  0
 57 58  1  0  0  0  0
 57 59  1  0  0  0  0
 59 60  2  0  0  0  0
 60 61  1  0  0  0  0
 61 62  2  0  0  0  0
 62 63  1  0  0  0  0
 63 64  1  0  0  0  0
 64 65  1  0  0  0  0
 65 66  1  0  0  0  0
 66 67  1  0  0  0  0
 65 68  2  0  0  0  0
 68 69  1  0  0  0  0
 68 70  1  0  0  0  0
 70 71  1  0  0  0  0
 62 72  1  0  0  0  0
 72 73  2  0  0  0  0
 73 74  1  0  0  0  0
 74 75  1  0  0  0  0
 75 76  1  0  0  0  0
 76 77  1  0  0  0  0
 77 78  1  0  0  0  0
 78 79  1  0  0  0  0
 77 80  2  0  0  0  0
 80 81  1  0  0  0  0
 81 82  1  0  0  0  0
 80 83  1  0  0  0  0
 74 84  2  0  0  0  0
 84 85  1  0  0  0  0
 73 86  1  0  0  0  0
 86 87  2  0  0  0  0
 87 88  1  0  0  0  0
 87 89  1  0  0  0  0
 89 90  2  0  0  0  0
 90 91  1  0  0  0  0
 91 92  2  0  0  0  0
 92 93  1  0  0  0  0
 93 94  1  0  0  0  0
 94 95  1  0  0  0  0
 95 96  1  0  0  0  0
 96 97  1  0  0  0  0
 95 98  2  0  0  0  0
 98 99  1  0  0  0  0
 98100  1  0  0  0  0
100101  1  0  0  0  0
 92102  1  0  0  0  0
102103  2  0  0  0  0
103104  1  0  0  0  0
104105  1  0  0  0  0
105106  1  0  0  0  0
106107  1  0  0  0  0
107108  1  0  0  0  0
108109  1  0  0  0  0
107110  2  0  0  0  0
110111  1  0  0  0  0
111112  1  0  0  0  0
110113  1  0  0  0  0
104114  2  0  0  0  0
114115  1  0  0  0  0
103116  1  0  0  0  0
116117  2  0  0  0  0
117118  1  0  0  0  0
117119  1  0  0  0  0
119120  2  0  0  0  0
120121  1  0  0  0  0
121122  1  0  0  0  0
122123  2  0  0  0  0
123124  1  0  0  0  0
122125  1  0  0  0  0
125126  2  0  0  0  0
126127  1  0  0  0  0
127128  2  0  0  0  0
128129  1  0  0  0  0
126130  1  0  0  0  0
130131  1  0  0  0  0
131132  2  0  0  0  0
  6  1  1  0  0  0  0
 11  7  1  0  0  0  0
 20 15  1  0  0  0  0
 25 21  1  0  0  0  0
 55 29  1  0  0  0  0
 85 59  1  0  0  0  0
115 89  1  0  0  0  0
124119  1  0  0  0  0
129125  1  0  0  0  0
 12  3  2  0  0  0  0
 26 17  2  0  0  0  0
 54 31  1  0  0  0  0
 84 61  1  0  0  0  0
114 91  1  0  0  0  0
130121  2  0  0  0  0
 40 33  2  0  0  0  0
 58 42  1  0  0  0  0
 70 63  2  0  0  0  0
 88 72  1  0  0  0  0
100 93  2  0  0  0  0
118102  1  0  0  0  0
 51 45  2  0  0  0  0
 81 75  2  0  0  0  0
111105  2  0  0  0  0
  1133  1  0  0  0  0
  2134  1  0  0  0  0
  5135  1  0  0  0  0
  9136  1  0  0  0  0
 10137  1  0  0  0  0
 13138  1  0  0  0  0
 14139  1  0  0  0  0
 16140  1  0  0  0  0
 19141  1  0  0  0  0
 23142  1  0  0  0  0
 24143  1  0  0  0  0
 27144  1  0  0  0  0
 28145  1  0  0  0  0
 30146  1  0  0  0  0
 36147  1  0  0  0  0
 36148  1  0  0  0  0
 37149  1  0  0  0  0
 37150  1  0  0  0  0
 37151  1  0  0  0  0
 48152  1  0  0  0  0
 48153  1  0  0  0  0
 49154  1  0  0  0  0
 49155  1  0  0  0  0
 49156  1  0  0  0  0
 56157  1  0  0  0  0
 60158  1  0  0  0  0
 66159  1  0  0  0  0
 66160  1  0  0  0  0
 67161  1  0  0  0  0
 67162  1  0  0  0  0
 67163  1  0  0  0  0
 78164  1  0  0  0  0
 78165  1  0  0  0  0
 79166  1  0  0  0  0
 79167  1  0  0  0  0
 79168  1  0  0  0  0
 86169  1  0  0  0  0
 90170  1  0  0  0  0
 96171  1  0  0  0  0
 96172  1  0  0  0  0
 97173  1  0  0  0  0
 97174  1  0  0  0  0
 97175  1  0  0  0  0
108176  1  0  0  0  0
108177  1  0  0  0  0
109178  1  0  0  0  0
109179  1  0  0  0  0
109180  1  0  0  0  0
116181  1  0  0  0  0
120182  1  0  0  0  0
123183  1  0  0  0  0
127184  1  0  0  0  0
128185  1  0  0  0  0
131186  1  0  0  0  0
132187  1  0  0  0  0
132188  1  0  0  0  0
M  END
