
  xtb     03032207343D
 energy: -368.722363775722 gnorm: 0.000618573479 xtb: 6.4.1 (unknown)
212235  0     0  0            999 V2000
   -4.2053   -7.1415   13.6963 C   0  0  0  0  0  0  0  0  0  0  0  0
   -4.4533   -5.8795   13.2928 C   0  0  0  0  0  0  0  0  0  0  0  0
   -4.0890   -5.6485   11.9324 C   0  0  0  0  0  0  0  0  0  0  0  0
   -4.1756   -4.4551   11.1999 C   0  0  0  0  0  0  0  0  0  0  0  0
   -4.7643   -3.2395   11.7759 C   0  0  0  0  0  0  0  0  0  0  0  0
   -4.0887   -2.0215   11.7270 C   0  0  0  0  0  0  0  0  0  0  0  0
   -4.6419   -0.8893   12.2851 C   0  0  0  0  0  0  0  0  0  0  0  0
   -5.8930   -0.9182   12.8983 C   0  0  0  0  0  0  0  0  0  0  0  0
   -6.5169    0.6091   13.5367 S   0  0  0  0  0  0  0  0  0  0  0  0
   -7.3312    0.1367   15.1074 C   0  0  0  0  0  0  0  0  0  0  0  0
   -6.3704   -0.5434   16.0618 C   0  0  0  0  0  0  0  0  0  0  0  0
   -6.5715   -2.1331   12.9074 C   0  0  0  0  0  0  0  0  0  0  0  0
   -7.8090   -2.2336   13.4425 F   0  0  0  0  0  0  0  0  0  0  0  0
   -6.0192   -3.2804   12.3747 C   0  0  0  0  0  0  0  0  0  0  0  0
   -3.6786   -4.4824    9.9050 C   0  0  0  0  0  0  0  0  0  0  0  0
   -3.1128   -5.6398    9.3147 C   0  0  0  0  0  0  0  0  0  0  0  0
   -3.0391   -6.8369   10.0433 C   0  0  0  0  0  0  0  0  0  0  0  0
   -2.4621   -8.0563    9.4649 C   0  0  0  0  0  0  0  0  0  0  0  0
   -3.1595   -9.2626    9.5012 C   0  0  0  0  0  0  0  0  0  0  0  0
   -2.6091  -10.4075    8.9677 C   0  0  0  0  0  0  0  0  0  0  0  0
   -1.3477  -10.4000    8.3745 C   0  0  0  0  0  0  0  0  0  0  0  0
   -0.7768  -11.9247    7.6846 S   0  0  0  0  0  0  0  0  0  0  0  0
    1.0180  -11.9476    8.0451 C   0  0  0  0  0  0  0  0  0  0  0  0
    1.3006  -11.8366    9.5297 C   0  0  0  0  0  0  0  0  0  0  0  0
   -0.6724   -9.1841    8.3264 C   0  0  0  0  0  0  0  0  0  0  0  0
   -1.2052   -8.0324    8.8697 C   0  0  0  0  0  0  0  0  0  0  0  0
    0.5418   -9.0853    7.7410 F   0  0  0  0  0  0  0  0  0  0  0  0
   -3.5389   -6.8090   11.3379 C   0  0  0  0  0  0  0  0  0  0  0  0
   -3.5133   -8.1414   12.4650 S   0  0  0  0  0  0  0  0  0  0  0  0
   -2.7189   -5.4079    7.9712 C   0  0  0  0  0  0  0  0  0  0  0  0
   -2.9678   -4.1405    7.5405 C   0  0  0  0  0  0  0  0  0  0  0  0
   -3.7121   -3.1485    8.7805 S   0  0  0  0  0  0  0  0  0  0  0  0
   -2.6744   -3.5802    6.2612 C   0  0  0  0  0  0  0  0  0  0  0  0
   -3.1090   -2.3933    5.7528 C   0  0  0  0  0  0  0  0  0  0  0  0
   -2.6184   -2.1185    4.4511 C   0  0  0  0  0  0  0  0  0  0  0  0
   -2.8737   -0.9907    3.6519 C   0  0  0  0  0  0  0  0  0  0  0  0
   -3.6824    0.1319    4.1407 C   0  0  0  0  0  0  0  0  0  0  0  0
   -3.4202    0.7224    5.3769 C   0  0  0  0  0  0  0  0  0  0  0  0
   -4.1595    1.8004    5.8108 C   0  0  0  0  0  0  0  0  0  0  0  0
   -5.1958    2.3293    5.0409 C   0  0  0  0  0  0  0  0  0  0  0  0
   -6.0850    3.6950    5.7152 S   0  0  0  0  0  0  0  0  0  0  0  0
   -6.5921    4.6653    4.2383 C   0  0  0  0  0  0  0  0  0  0  0  0
   -6.8049    6.1080    4.6518 C   0  0  0  0  0  0  0  0  0  0  0  0
   -5.4662    1.7102    3.8240 C   0  0  0  0  0  0  0  0  0  0  0  0
   -6.4895    2.1265    3.0442 F   0  0  0  0  0  0  0  0  0  0  0  0
   -4.7192    0.6435    3.3678 C   0  0  0  0  0  0  0  0  0  0  0  0
   -2.3055   -0.9849    2.3868 C   0  0  0  0  0  0  0  0  0  0  0  0
   -1.4577   -2.0191    1.9214 C   0  0  0  0  0  0  0  0  0  0  0  0
   -1.1652   -3.1251    2.7360 C   0  0  0  0  0  0  0  0  0  0  0  0
   -0.2094   -4.1399    2.2764 C   0  0  0  0  0  0  0  0  0  0  0  0
   -0.5110   -5.4993    2.2637 C   0  0  0  0  0  0  0  0  0  0  0  0
    0.3860   -6.4083    1.7432 C   0  0  0  0  0  0  0  0  0  0  0  0
    1.6251   -6.0089    1.2422 C   0  0  0  0  0  0  0  0  0  0  0  0
    2.6760   -7.2656    0.5832 S   0  0  0  0  0  0  0  0  0  0  0  0
    3.5721   -6.4509   -0.7931 C   0  0  0  0  0  0  0  0  0  0  0  0
    2.6372   -5.8648   -1.8309 C   0  0  0  0  0  0  0  0  0  0  0  0
    1.9422   -4.6565    1.3360 C   0  0  0  0  0  0  0  0  0  0  0  0
    1.0402   -3.7320    1.8188 C   0  0  0  0  0  0  0  0  0  0  0  0
    3.1527   -4.1924    0.9553 F   0  0  0  0  0  0  0  0  0  0  0  0
   -1.7879   -3.1640    3.9722 C   0  0  0  0  0  0  0  0  0  0  0  0
   -1.6240   -4.4386    5.1500 S   0  0  0  0  0  0  0  0  0  0  0  0
   -1.0044   -1.7787    0.6018 C   0  0  0  0  0  0  0  0  0  0  0  0
   -1.4453   -0.6013    0.0770 C   0  0  0  0  0  0  0  0  0  0  0  0
   -2.4677    0.2823    1.1943 S   0  0  0  0  0  0  0  0  0  0  0  0
   -1.1360   -0.0810   -1.2127 C   0  0  0  0  0  0  0  0  0  0  0  0
   -1.4899    1.1170   -1.7557 C   0  0  0  0  0  0  0  0  0  0  0  0
   -0.9460    1.3385   -3.0471 C   0  0  0  0  0  0  0  0  0  0  0  0
   -1.0730    2.4889   -3.8477 C   0  0  0  0  0  0  0  0  0  0  0  0
   -1.9975    3.5613   -3.4684 C   0  0  0  0  0  0  0  0  0  0  0  0
   -3.2925    3.2589   -3.0432 C   0  0  0  0  0  0  0  0  0  0  0  0
   -4.1708    4.2603   -2.6922 C   0  0  0  0  0  0  0  0  0  0  0  0
   -3.7974    5.6029   -2.7338 C   0  0  0  0  0  0  0  0  0  0  0  0
   -4.9897    6.7949   -2.2006 S   0  0  0  0  0  0  0  0  0  0  0  0
   -4.7887    8.1800   -3.3814 C   0  0  0  0  0  0  0  0  0  0  0  0
   -4.9883    7.7354   -4.8163 C   0  0  0  0  0  0  0  0  0  0  0  0
   -2.5004    5.8887   -3.1459 C   0  0  0  0  0  0  0  0  0  0  0  0
   -2.0432    7.1616   -3.1754 F   0  0  0  0  0  0  0  0  0  0  0  0
   -1.6213    4.8976   -3.5298 C   0  0  0  0  0  0  0  0  0  0  0  0
   -0.2951    2.5262   -4.9963 C   0  0  0  0  0  0  0  0  0  0  0  0
    0.4722    1.4212   -5.4399 C   0  0  0  0  0  0  0  0  0  0  0  0
    0.5403    0.2418   -4.6791 C   0  0  0  0  0  0  0  0  0  0  0  0
    1.3208   -0.9042   -5.1568 C   0  0  0  0  0  0  0  0  0  0  0  0
    1.1861   -1.3497   -6.4699 C   0  0  0  0  0  0  0  0  0  0  0  0
    1.9544   -2.3858   -6.9629 C   0  0  0  0  0  0  0  0  0  0  0  0
    2.8864   -3.0248   -6.1537 C   0  0  0  0  0  0  0  0  0  0  0  0
    3.9849   -4.3097   -6.6548 S   0  0  0  0  0  0  0  0  0  0  0  0
    3.6643   -4.5223   -8.4391 C   0  0  0  0  0  0  0  0  0  0  0  0
    2.4567   -5.3995   -8.7110 C   0  0  0  0  0  0  0  0  0  0  0  0
    2.9840   -2.5950   -4.8288 C   0  0  0  0  0  0  0  0  0  0  0  0
    2.2295   -1.5594   -4.3278 C   0  0  0  0  0  0  0  0  0  0  0  0
    3.8652   -3.2073   -4.0119 F   0  0  0  0  0  0  0  0  0  0  0  0
   -0.1350    0.2556   -3.4694 C   0  0  0  0  0  0  0  0  0  0  0  0
   -0.1191   -1.0229   -2.2865 S   0  0  0  0  0  0  0  0  0  0  0  0
    1.1784    1.7078   -6.6314 C   0  0  0  0  0  0  0  0  0  0  0  0
    1.0016    2.9793   -7.0868 C   0  0  0  0  0  0  0  0  0  0  0  0
   -0.1136    3.8831   -6.0812 S   0  0  0  0  0  0  0  0  0  0  0  0
    1.7435    3.6026   -8.1413 C   0  0  0  0  0  0  0  0  0  0  0  0
    2.0120    4.9440   -8.1472 C   0  0  0  0  0  0  0  0  0  0  0  0
    2.9708    5.5538   -8.9621 C   0  0  0  0  0  0  0  0  0  0  0  0
    3.5879    4.8024  -10.0674 C   0  0  0  0  0  0  0  0  0  0  0  0
    3.3631    3.4968  -10.3261 C   0  0  0  0  0  0  0  0  0  0  0  0
    2.3906    2.4866   -9.3362 S   0  0  0  0  0  0  0  0  0  0  0  0
    4.4280    5.7347  -10.7346 C   0  0  0  0  0  0  0  0  0  0  0  0
    4.3709    6.9621  -10.0785 C   0  0  0  0  0  0  0  0  0  0  0  0
    5.2149    7.9238  -10.6761 C   0  0  0  0  0  0  0  0  0  0  0  0
    5.8714    7.4126  -11.7506 C   0  0  0  0  0  0  0  0  0  0  0  0
    5.5037    5.7521  -12.0759 S   0  0  0  0  0  0  0  0  0  0  0  0
    3.4806    6.8596   -8.9444 C   0  0  0  0  0  0  0  0  0  0  0  0
    3.2489    7.9878   -8.1082 C   0  0  0  0  0  0  0  0  0  0  0  0
    2.8194    8.1584   -6.8295 C   0  0  0  0  0  0  0  0  0  0  0  0
    2.5649    7.2486   -5.7584 C   0  0  0  0  0  0  0  0  0  0  0  0
    3.0547    5.9709   -5.6210 C   0  0  0  0  0  0  0  0  0  0  0  0
    2.7358    5.0904   -4.5834 C   0  0  0  0  0  0  0  0  0  0  0  0
    1.8800    5.5330   -3.4699 C   0  0  0  0  0  0  0  0  0  0  0  0
    1.3655    6.7767   -3.3417 C   0  0  0  0  0  0  0  0  0  0  0  0
    1.5676    8.0059   -4.5113 S   0  0  0  0  0  0  0  0  0  0  0  0
    1.7314    4.4043   -2.6187 C   0  0  0  0  0  0  0  0  0  0  0  0
    2.4299    3.3276   -3.1553 C   0  0  0  0  0  0  0  0  0  0  0  0
    2.3117    2.1667   -2.3596 C   0  0  0  0  0  0  0  0  0  0  0  0
    1.5334    2.3864   -1.2686 C   0  0  0  0  0  0  0  0  0  0  0  0
    0.9094    3.9989   -1.1612 S   0  0  0  0  0  0  0  0  0  0  0  0
    3.0658    3.7330   -4.3843 C   0  0  0  0  0  0  0  0  0  0  0  0
    3.7461    2.7798   -5.1737 C   0  0  0  0  0  0  0  0  0  0  0  0
    4.3915    2.9161   -6.3604 C   0  0  0  0  0  0  0  0  0  0  0  0
    4.8848    1.8159   -7.1167 C   0  0  0  0  0  0  0  0  0  0  0  0
    5.4646    1.9886   -8.3500 C   0  0  0  0  0  0  0  0  0  0  0  0
    5.8746    0.9634   -9.2070 C   0  0  0  0  0  0  0  0  0  0  0  0
    5.7413   -0.4454   -8.8085 C   0  0  0  0  0  0  0  0  0  0  0  0
    5.2422   -0.8540   -7.6243 C   0  0  0  0  0  0  0  0  0  0  0  0
    4.6359    0.2089   -6.4244 S   0  0  0  0  0  0  0  0  0  0  0  0
    6.2383   -1.1896   -9.9092 C   0  0  0  0  0  0  0  0  0  0  0  0
    6.6447   -0.3224  -10.9269 C   0  0  0  0  0  0  0  0  0  0  0  0
    7.1662   -1.0342  -12.0334 C   0  0  0  0  0  0  0  0  0  0  0  0
    7.1308   -2.3770  -11.8369 C   0  0  0  0  0  0  0  0  0  0  0  0
    6.4702   -2.8471  -10.3064 S   0  0  0  0  0  0  0  0  0  0  0  0
    6.4162    1.0323  -10.4956 C   0  0  0  0  0  0  0  0  0  0  0  0
    6.6671    2.2468  -11.2163 C   0  0  0  0  0  0  0  0  0  0  0  0
    6.9883    2.3556  -12.5060 C   0  0  0  0  0  0  0  0  0  0  0  0
   -4.3845   -7.5717   14.6623 H   0  0  0  0  0  0  0  0  0  0  0  0
   -4.8635   -5.1195   13.9323 H   0  0  0  0  0  0  0  0  0  0  0  0
   -3.1109   -1.9699   11.2741 H   0  0  0  0  0  0  0  0  0  0  0  0
   -4.1092    0.0484   12.2589 H   0  0  0  0  0  0  0  0  0  0  0  0
   -8.1968   -0.4841   14.8874 H   0  0  0  0  0  0  0  0  0  0  0  0
   -7.6721    1.0916   15.5074 H   0  0  0  0  0  0  0  0  0  0  0  0
   -5.5040    0.0884   16.2461 H   0  0  0  0  0  0  0  0  0  0  0  0
   -6.8701   -0.7378   17.0087 H   0  0  0  0  0  0  0  0  0  0  0  0
   -6.0252   -1.4921   15.6545 H   0  0  0  0  0  0  0  0  0  0  0  0
   -6.5943   -4.1933   12.3993 H   0  0  0  0  0  0  0  0  0  0  0  0
   -4.1440   -9.2985    9.9412 H   0  0  0  0  0  0  0  0  0  0  0  0
   -3.1517  -11.3394    8.9988 H   0  0  0  0  0  0  0  0  0  0  0  0
    1.3352  -12.9152    7.6559 H   0  0  0  0  0  0  0  0  0  0  0  0
    1.5054  -11.1597    7.4755 H   0  0  0  0  0  0  0  0  0  0  0  0
    0.9772  -10.8719    9.9161 H   0  0  0  0  0  0  0  0  0  0  0  0
    2.3697  -11.9356    9.7065 H   0  0  0  0  0  0  0  0  0  0  0  0
    0.7806  -12.6197   10.0776 H   0  0  0  0  0  0  0  0  0  0  0  0
   -0.6238   -7.1241    8.8301 H   0  0  0  0  0  0  0  0  0  0  0  0
   -2.2876   -6.1601    7.3354 H   0  0  0  0  0  0  0  0  0  0  0  0
   -3.7798   -1.7453    6.2882 H   0  0  0  0  0  0  0  0  0  0  0  0
   -2.6071    0.3536    5.9834 H   0  0  0  0  0  0  0  0  0  0  0  0
   -3.9443    2.2631    6.7614 H   0  0  0  0  0  0  0  0  0  0  0  0
   -7.5069    4.2310    3.8378 H   0  0  0  0  0  0  0  0  0  0  0  0
   -5.7907    4.5803    3.5061 H   0  0  0  0  0  0  0  0  0  0  0  0
   -7.0999    6.6966    3.7857 H   0  0  0  0  0  0  0  0  0  0  0  0
   -7.5863    6.1784    5.4051 H   0  0  0  0  0  0  0  0  0  0  0  0
   -5.8895    6.5262    5.0645 H   0  0  0  0  0  0  0  0  0  0  0  0
   -4.9810    0.1999    2.4199 H   0  0  0  0  0  0  0  0  0  0  0  0
   -1.4682   -5.8397    2.6271 H   0  0  0  0  0  0  0  0  0  0  0  0
    0.1370   -7.4573    1.7047 H   0  0  0  0  0  0  0  0  0  0  0  0
    4.1623   -7.2652   -1.2137 H   0  0  0  0  0  0  0  0  0  0  0  0
    4.2459   -5.7020   -0.3838 H   0  0  0  0  0  0  0  0  0  0  0  0
    2.0335   -5.0646   -1.4070 H   0  0  0  0  0  0  0  0  0  0  0  0
    1.9706   -6.6300   -2.2236 H   0  0  0  0  0  0  0  0  0  0  0  0
    3.2219   -5.4508   -2.6494 H   0  0  0  0  0  0  0  0  0  0  0  0
    1.3356   -2.6948    1.8619 H   0  0  0  0  0  0  0  0  0  0  0  0
   -0.3837   -2.4614    0.0495 H   0  0  0  0  0  0  0  0  0  0  0  0
   -2.0836    1.8388   -1.2236 H   0  0  0  0  0  0  0  0  0  0  0  0
   -3.6216    2.2313   -3.0216 H   0  0  0  0  0  0  0  0  0  0  0  0
   -5.1736    4.0198   -2.3750 H   0  0  0  0  0  0  0  0  0  0  0  0
   -5.5647    8.8816   -3.0753 H   0  0  0  0  0  0  0  0  0  0  0  0
   -3.8148    8.6392   -3.2281 H   0  0  0  0  0  0  0  0  0  0  0  0
   -4.2114    7.0351   -5.1181 H   0  0  0  0  0  0  0  0  0  0  0  0
   -4.9462    8.5995   -5.4762 H   0  0  0  0  0  0  0  0  0  0  0  0
   -5.9554    7.2511   -4.9351 H   0  0  0  0  0  0  0  0  0  0  0  0
   -0.6297    5.1832   -3.8373 H   0  0  0  0  0  0  0  0  0  0  0  0
    0.4539   -0.8882   -7.1151 H   0  0  0  0  0  0  0  0  0  0  0  0
    1.8217   -2.6854   -7.9894 H   0  0  0  0  0  0  0  0  0  0  0  0
    4.5750   -4.9924   -8.8104 H   0  0  0  0  0  0  0  0  0  0  0  0
    3.5797   -3.5358   -8.8931 H   0  0  0  0  0  0  0  0  0  0  0  0
    2.3183   -5.5126   -9.7846 H   0  0  0  0  0  0  0  0  0  0  0  0
    1.5518   -4.9706   -8.2861 H   0  0  0  0  0  0  0  0  0  0  0  0
    2.6033   -6.3846   -8.2743 H   0  0  0  0  0  0  0  0  0  0  0  0
    2.3767   -1.2591   -3.3030 H   0  0  0  0  0  0  0  0  0  0  0  0
    1.8609    1.0183   -7.0935 H   0  0  0  0  0  0  0  0  0  0  0  0
    1.4909    5.5478   -7.4192 H   0  0  0  0  0  0  0  0  0  0  0  0
    3.8256    2.9789  -11.1517 H   0  0  0  0  0  0  0  0  0  0  0  0
    5.3358    8.9370  -10.3375 H   0  0  0  0  0  0  0  0  0  0  0  0
    6.5695    7.9136  -12.3925 H   0  0  0  0  0  0  0  0  0  0  0  0
    3.4826    8.9162   -8.6198 H   0  0  0  0  0  0  0  0  0  0  0  0
    2.6331    9.1897   -6.5473 H   0  0  0  0  0  0  0  0  0  0  0  0
    3.7399    5.6468   -6.3878 H   0  0  0  0  0  0  0  0  0  0  0  0
    0.7613    7.0702   -2.4975 H   0  0  0  0  0  0  0  0  0  0  0  0
    2.7805    1.2231   -2.5725 H   0  0  0  0  0  0  0  0  0  0  0  0
    1.2764    1.6924   -0.4921 H   0  0  0  0  0  0  0  0  0  0  0  0
    3.6935    1.7759   -4.7668 H   0  0  0  0  0  0  0  0  0  0  0  0
    4.5335    3.8841   -6.8160 H   0  0  0  0  0  0  0  0  0  0  0  0
    5.5940    3.0119   -8.6790 H   0  0  0  0  0  0  0  0  0  0  0  0
    5.1874   -1.8930   -7.3401 H   0  0  0  0  0  0  0  0  0  0  0  0
    7.5617   -0.5934  -12.9298 H   0  0  0  0  0  0  0  0  0  0  0  0
    7.4596   -3.1481  -12.5060 H   0  0  0  0  0  0  0  0  0  0  0  0
    6.5665    3.1547  -10.6335 H   0  0  0  0  0  0  0  0  0  0  0  0
    7.1539    3.3183  -12.9577 H   0  0  0  0  0  0  0  0  0  0  0  0
    7.0855    1.5016  -13.1509 H   0  0  0  0  0  0  0  0  0  0  0  0
  1  2  2  0  0  0  0
  2  3  1  0  0  0  0
  3  4  2  0  0  0  0
  4  5  1  0  0  0  0
  5  6  2  0  0  0  0
  6  7  1  0  0  0  0
  7  8  2  0  0  0  0
  8  9  1  0  0  0  0
  9 10  1  0  0  0  0
 10 11  1  0  0  0  0
  8 12  1  0  0  0  0
 12 13  1  0  0  0  0
 12 14  2  0  0  0  0
  4 15  1  0  0  0  0
 15 16  2  0  0  0  0
 16 17  1  0  0  0  0
 17 18  1  0  0  0  0
 18 19  2  0  0  0  0
 19 20  1  0  0  0  0
 20 21  2  0  0  0  0
 21 22  1  0  0  0  0
 22 23  1  0  0  0  0
 23 24  1  0  0  0  0
 21 25  1  0  0  0  0
 25 26  2  0  0  0  0
 25 27  1  0  0  0  0
 17 28  2  0  0  0  0
 28 29  1  0  0  0  0
 16 30  1  0  0  0  0
 30 31  2  0  0  0  0
 31 32  1  0  0  0  0
 31 33  1  0  0  0  0
 33 34  2  0  0  0  0
 34 35  1  0  0  0  0
 35 36  2  0  0  0  0
 36 37  1  0  0  0  0
 37 38  2  0  0  0  0
 38 39  1  0  0  0  0
 39 40  2  0  0  0  0
 40 41  1  0  0  0  0
 41 42  1  0  0  0  0
 42 43  1  0  0  0  0
 40 44  1  0  0  0  0
 44 45  1  0  0  0  0
 44 46  2  0  0  0  0
 36 47  1  0  0  0  0
 47 48  2  0  0  0  0
 48 49  1  0  0  0  0
 49 50  1  0  0  0  0
 50 51  2  0  0  0  0
 51 52  1  0  0  0  0
 52 53  2  0  0  0  0
 53 54  1  0  0  0  0
 54 55  1  0  0  0  0
 55 56  1  0  0  0  0
 53 57  1  0  0  0  0
 57 58  2  0  0  0  0
 57 59  1  0  0  0  0
 49 60  2  0  0  0  0
 60 61  1  0  0  0  0
 48 62  1  0  0  0  0
 62 63  2  0  0  0  0
 63 64  1  0  0  0  0
 63 65  1  0  0  0  0
 65 66  2  0  0  0  0
 66 67  1  0  0  0  0
 67 68  2  0  0  0  0
 68 69  1  0  0  0  0
 69 70  2  0  0  0  0
 70 71  1  0  0  0  0
 71 72  2  0  0  0  0
 72 73  1  0  0  0  0
 73 74  1  0  0  0  0
 74 75  1  0  0  0  0
 72 76  1  0  0  0  0
 76 77  1  0  0  0  0
 76 78  2  0  0  0  0
 68 79  1  0  0  0  0
 79 80  2  0  0  0  0
 80 81  1  0  0  0  0
 81 82  1  0  0  0  0
 82 83  2  0  0  0  0
 83 84  1  0  0  0  0
 84 85  2  0  0  0  0
 85 86  1  0  0  0  0
 86 87  1  0  0  0  0
 87 88  1  0  0  0  0
 85 89  1  0  0  0  0
 89 90  2  0  0  0  0
 89 91  1  0  0  0  0
 81 92  2  0  0  0  0
 92 93  1  0  0  0  0
 80 94  1  0  0  0  0
 94 95  2  0  0  0  0
 95 96  1  0  0  0  0
 95 97  1  0  0  0  0
 97 98  2  0  0  0  0
 98 99  1  0  0  0  0
 99100  1  0  0  0  0
100101  2  0  0  0  0
101102  1  0  0  0  0
100103  1  0  0  0  0
103104  2  0  0  0  0
104105  1  0  0  0  0
105106  2  0  0  0  0
106107  1  0  0  0  0
104108  1  0  0  0  0
108109  1  0  0  0  0
109110  2  0  0  0  0
110111  1  0  0  0  0
111112  2  0  0  0  0
112113  1  0  0  0  0
113114  1  0  0  0  0
114115  2  0  0  0  0
115116  1  0  0  0  0
114117  1  0  0  0  0
117118  2  0  0  0  0
118119  1  0  0  0  0
119120  2  0  0  0  0
120121  1  0  0  0  0
118122  1  0  0  0  0
122123  1  0  0  0  0
123124  2  0  0  0  0
124125  1  0  0  0  0
125126  2  0  0  0  0
126127  1  0  0  0  0
127128  1  0  0  0  0
128129  2  0  0  0  0
129130  1  0  0  0  0
128131  1  0  0  0  0
131132  2  0  0  0  0
132133  1  0  0  0  0
133134  2  0  0  0  0
134135  1  0  0  0  0
132136  1  0  0  0  0
136137  1  0  0  0  0
137138  2  0  0  0  0
 29  1  1  0  0  0  0
 61 33  1  0  0  0  0
 93 65  1  0  0  0  0
102 97  1  0  0  0  0
107103  1  0  0  0  0
116111  1  0  0  0  0
121117  1  0  0  0  0
130125  1  0  0  0  0
135131  1  0  0  0  0
 28  3  1  0  0  0  0
 60 35  1  0  0  0  0
 92 67  1  0  0  0  0
108 99  2  0  0  0  0
122113  2  0  0  0  0
136127  2  0  0  0  0
 14  5  1  0  0  0  0
 32 15  1  0  0  0  0
 46 37  1  0  0  0  0
 64 47  1  0  0  0  0
 78 69  1  0  0  0  0
 96 79  1  0  0  0  0
 26 18  1  0  0  0  0
 58 50  1  0  0  0  0
 90 82  1  0  0  0  0
  1139  1  0  0  0  0
  2140  1  0  0  0  0
  6141  1  0  0  0  0
  7142  1  0  0  0  0
 10143  1  0  0  0  0
 10144  1  0  0  0  0
 11145  1  0  0  0  0
 11146  1  0  0  0  0
 11147  1  0  0  0  0
 14148  1  0  0  0  0
 19149  1  0  0  0  0
 20150  1  0  0  0  0
 23151  1  0  0  0  0
 23152  1  0  0  0  0
 24153  1  0  0  0  0
 24154  1  0  0  0  0
 24155  1  0  0  0  0
 26156  1  0  0  0  0
 30157  1  0  0  0  0
 34158  1  0  0  0  0
 38159  1  0  0  0  0
 39160  1  0  0  0  0
 42161  1  0  0  0  0
 42162  1  0  0  0  0
 43163  1  0  0  0  0
 43164  1  0  0  0  0
 43165  1  0  0  0  0
 46166  1  0  0  0  0
 51167  1  0  0  0  0
 52168  1  0  0  0  0
 55169  1  0  0  0  0
 55170  1  0  0  0  0
 56171  1  0  0  0  0
 56172  1  0  0  0  0
 56173  1  0  0  0  0
 58174  1  0  0  0  0
 62175  1  0  0  0  0
 66176  1  0  0  0  0
 70177  1  0  0  0  0
 71178  1  0  0  0  0
 74179  1  0  0  0  0
 74180  1  0  0  0  0
 75181  1  0  0  0  0
 75182  1  0  0  0  0
 75183  1  0  0  0  0
 78184  1  0  0  0  0
 83185  1  0  0  0  0
 84186  1  0  0  0  0
 87187  1  0  0  0  0
 87188  1  0  0  0  0
 88189  1  0  0  0  0
 88190  1  0  0  0  0
 88191  1  0  0  0  0
 90192  1  0  0  0  0
 94193  1  0  0  0  0
 98194  1  0  0  0  0
101195  1  0  0  0  0
105196  1  0  0  0  0
106197  1  0  0  0  0
109198  1  0  0  0  0
110199  1  0  0  0  0
112200  1  0  0  0  0
115201  1  0  0  0  0
119202  1  0  0  0  0
120203  1  0  0  0  0
123204  1  0  0  0  0
124205  1  0  0  0  0
126206  1  0  0  0  0
129207  1  0  0  0  0
133208  1  0  0  0  0
134209  1  0  0  0  0
137210  1  0  0  0  0
138211  1  0  0  0  0
138212  1  0  0  0  0
M  END
