
  xtb     03022219423D
 energy: -275.754442580765 gnorm: 0.000455618417 xtb: 6.4.1 (unknown)
182199  0     0  0            999 V2000
   -1.8462   -0.2204   -6.1342 C   0  0  0  0  0  0  0  0  0  0  0  0
   -1.2135    0.1766   -7.2578 C   0  0  0  0  0  0  0  0  0  0  0  0
    0.1963    1.1331   -6.9567 S   0  0  0  0  0  0  0  0  0  0  0  0
   -0.0761    1.0057   -5.2461 C   0  0  0  0  0  0  0  0  0  0  0  0
   -1.2039    0.2313   -4.9415 C   0  0  0  0  0  0  0  0  0  0  0  0
   -1.5198   -0.0499   -3.5944 C   0  0  0  0  0  0  0  0  0  0  0  0
   -2.7369   -0.9014   -3.3365 C   0  0  0  0  0  0  0  0  0  0  0  0
   -3.9985   -0.0345   -3.3535 C   0  0  0  0  0  0  0  0  0  0  0  0
   -0.7499    0.4864   -2.5751 C   0  0  0  0  0  0  0  0  0  0  0  0
   -0.9309   -0.0059   -1.1650 C   0  0  0  0  0  0  0  0  0  0  0  0
   -0.2522   -1.3710   -1.0300 C   0  0  0  0  0  0  0  0  0  0  0  0
    0.3092    1.3811   -2.8778 C   0  0  0  0  0  0  0  0  0  0  0  0
    1.1698    2.1592   -2.0129 C   0  0  0  0  0  0  0  0  0  0  0  0
    2.1152    2.8344   -2.7203 C   0  0  0  0  0  0  0  0  0  0  0  0
    2.0406    2.6167   -4.4229 S   0  0  0  0  0  0  0  0  0  0  0  0
    0.6584    1.5865   -4.2247 C   0  0  0  0  0  0  0  0  0  0  0  0
    1.0278    2.3907   -0.5736 C   0  0  0  0  0  0  0  0  0  0  0  0
    2.0273    2.4453    0.3093 C   0  0  0  0  0  0  0  0  0  0  0  0
    3.4371    2.2648   -0.0713 C   0  0  0  0  0  0  0  0  0  0  0  0
    4.2541    3.3405   -0.2071 C   0  0  0  0  0  0  0  0  0  0  0  0
    5.7403    3.0036   -1.0234 S   0  0  0  0  0  0  0  0  0  0  0  0
    5.2612    1.3447   -1.2039 C   0  0  0  0  0  0  0  0  0  0  0  0
    4.0472    1.0606   -0.5654 C   0  0  0  0  0  0  0  0  0  0  0  0
    3.6349   -0.2886   -0.4170 C   0  0  0  0  0  0  0  0  0  0  0  0
    2.6229   -0.5681    0.6621 C   0  0  0  0  0  0  0  0  0  0  0  0
    3.2633   -0.3761    2.0396 C   0  0  0  0  0  0  0  0  0  0  0  0
    4.2705   -1.2802   -1.1420 C   0  0  0  0  0  0  0  0  0  0  0  0
    3.8964   -2.7332   -1.0071 C   0  0  0  0  0  0  0  0  0  0  0  0
    4.8274   -3.4407   -0.0211 C   0  0  0  0  0  0  0  0  0  0  0  0
    5.3631   -0.9408   -1.9862 C   0  0  0  0  0  0  0  0  0  0  0  0
    6.0889   -1.7414   -2.9402 C   0  0  0  0  0  0  0  0  0  0  0  0
    7.1321   -1.0730   -3.4885 C   0  0  0  0  0  0  0  0  0  0  0  0
    7.3230    0.5421   -2.9102 S   0  0  0  0  0  0  0  0  0  0  0  0
    5.9074    0.3520   -1.9249 C   0  0  0  0  0  0  0  0  0  0  0  0
    5.6861   -3.0729   -3.4126 C   0  0  0  0  0  0  0  0  0  0  0  0
    5.0111   -3.2269   -4.5503 C   0  0  0  0  0  0  0  0  0  0  0  0
    4.4518   -4.5241   -4.9277 C   0  0  0  0  0  0  0  0  0  0  0  0
    5.2252   -5.6404   -4.9461 C   0  0  0  0  0  0  0  0  0  0  0  0
    4.3473   -7.1150   -5.1086 S   0  0  0  0  0  0  0  0  0  0  0  0
    2.8580   -6.2235   -5.0715 C   0  0  0  0  0  0  0  0  0  0  0  0
    3.0467   -4.8323   -5.0532 C   0  0  0  0  0  0  0  0  0  0  0  0
    1.9087   -3.9864   -5.1363 C   0  0  0  0  0  0  0  0  0  0  0  0
    2.0891   -2.5273   -5.4751 C   0  0  0  0  0  0  0  0  0  0  0  0
    2.1589   -1.6215   -4.2458 C   0  0  0  0  0  0  0  0  0  0  0  0
    0.6433   -4.5205   -4.9682 C   0  0  0  0  0  0  0  0  0  0  0  0
   -0.5948   -3.6722   -5.0928 C   0  0  0  0  0  0  0  0  0  0  0  0
   -1.1954   -3.8317   -6.4916 C   0  0  0  0  0  0  0  0  0  0  0  0
    0.4802   -5.9163   -4.7809 C   0  0  0  0  0  0  0  0  0  0  0  0
   -0.6928   -6.6887   -4.4545 C   0  0  0  0  0  0  0  0  0  0  0  0
   -0.4585   -8.0247   -4.5181 C   0  0  0  0  0  0  0  0  0  0  0  0
    1.1723   -8.4449   -4.8856 S   0  0  0  0  0  0  0  0  0  0  0  0
    1.5853   -6.7613   -4.9595 C   0  0  0  0  0  0  0  0  0  0  0  0
   -1.9938   -6.2015   -3.9816 C   0  0  0  0  0  0  0  0  0  0  0  0
   -2.2383   -5.6724   -2.7732 C   0  0  0  0  0  0  0  0  0  0  0  0
   -1.3217   -5.4023   -1.6928 C   0  0  0  0  0  0  0  0  0  0  0  0
   -1.7270   -4.6643   -0.6129 C   0  0  0  0  0  0  0  0  0  0  0  0
   -0.9270   -4.3142    0.4828 C   0  0  0  0  0  0  0  0  0  0  0  0
    0.4765   -4.7421    0.5562 C   0  0  0  0  0  0  0  0  0  0  0  0
    1.0794   -5.5000   -0.3834 C   0  0  0  0  0  0  0  0  0  0  0  0
    0.3067   -6.0610   -1.8059 S   0  0  0  0  0  0  0  0  0  0  0  0
    0.9778   -4.1750    1.7564 C   0  0  0  0  0  0  0  0  0  0  0  0
   -0.0266   -3.4395    2.3912 C   0  0  0  0  0  0  0  0  0  0  0  0
    0.4265   -2.8921    3.6150 C   0  0  0  0  0  0  0  0  0  0  0  0
    1.7271   -3.2010    3.8552 C   0  0  0  0  0  0  0  0  0  0  0  0
    2.4612   -4.1736    2.6270 S   0  0  0  0  0  0  0  0  0  0  0  0
   -1.2231   -3.5086    1.5880 C   0  0  0  0  0  0  0  0  0  0  0  0
   -2.4541   -2.8196    1.8131 C   0  0  0  0  0  0  0  0  0  0  0  0
   -2.5831   -1.7628    2.6362 C   0  0  0  0  0  0  0  0  0  0  0  0
   -3.8128   -1.0477    2.8922 C   0  0  0  0  0  0  0  0  0  0  0  0
   -5.0169   -1.6818    2.9731 C   0  0  0  0  0  0  0  0  0  0  0  0
   -6.3210   -0.6788    3.4797 S   0  0  0  0  0  0  0  0  0  0  0  0
   -5.2355    0.6717    3.6006 C   0  0  0  0  0  0  0  0  0  0  0  0
   -3.9244    0.3568    3.2110 C   0  0  0  0  0  0  0  0  0  0  0  0
   -2.9859    1.4076    3.0585 C   0  0  0  0  0  0  0  0  0  0  0  0
   -1.6813    1.1397    2.3514 C   0  0  0  0  0  0  0  0  0  0  0  0
   -0.5075    0.9682    3.3164 C   0  0  0  0  0  0  0  0  0  0  0  0
   -3.3008    2.6815    3.5001 C   0  0  0  0  0  0  0  0  0  0  0  0
   -2.4444    3.8686    3.1479 C   0  0  0  0  0  0  0  0  0  0  0  0
   -2.8873    4.4298    1.7922 C   0  0  0  0  0  0  0  0  0  0  0  0
   -4.5418    2.9211    4.1389 C   0  0  0  0  0  0  0  0  0  0  0  0
   -5.0270    4.0883    4.8337 C   0  0  0  0  0  0  0  0  0  0  0  0
   -6.3607    4.0069    5.0867 C   0  0  0  0  0  0  0  0  0  0  0  0
   -7.0848    2.5097    4.6259 S   0  0  0  0  0  0  0  0  0  0  0  0
   -5.5429    1.9423    4.0592 C   0  0  0  0  0  0  0  0  0  0  0  0
   -4.2434    5.1446    5.4766 C   0  0  0  0  0  0  0  0  0  0  0  0
   -3.1865    4.9163    6.2640 C   0  0  0  0  0  0  0  0  0  0  0  0
   -2.6572    3.5761    6.5258 C   0  0  0  0  0  0  0  0  0  0  0  0
   -3.5116    2.5778    6.8771 C   0  0  0  0  0  0  0  0  0  0  0  0
   -2.7821    1.0360    7.0749 S   0  0  0  0  0  0  0  0  0  0  0  0
   -1.2369    1.7305    6.7037 C   0  0  0  0  0  0  0  0  0  0  0  0
   -1.2948    3.1080    6.4332 C   0  0  0  0  0  0  0  0  0  0  0  0
   -0.0991    3.7825    6.0796 C   0  0  0  0  0  0  0  0  0  0  0  0
   -0.1580    5.2530    5.7567 C   0  0  0  0  0  0  0  0  0  0  0  0
    0.0785    6.0947    7.0130 C   0  0  0  0  0  0  0  0  0  0  0  0
    1.1127    3.1066    6.0701 C   0  0  0  0  0  0  0  0  0  0  0  0
    2.3763    3.7800    5.5991 C   0  0  0  0  0  0  0  0  0  0  0  0
    2.5678    3.5375    4.0998 C   0  0  0  0  0  0  0  0  0  0  0  0
    1.1670    1.7295    6.3973 C   0  0  0  0  0  0  0  0  0  0  0  0
    2.2841    0.8186    6.4509 C   0  0  0  0  0  0  0  0  0  0  0  0
    1.8886   -0.4588    6.6820 C   0  0  0  0  0  0  0  0  0  0  0  0
    0.1896   -0.6559    6.9031 S   0  0  0  0  0  0  0  0  0  0  0  0
   -0.0310    1.0502    6.6669 C   0  0  0  0  0  0  0  0  0  0  0  0
    3.7167    1.1234    6.3699 C   0  0  0  0  0  0  0  0  0  0  0  0
    4.5408    0.5545    5.5054 C   0  0  0  0  0  0  0  0  0  0  0  0
   -2.7445   -0.8098   -6.1507 H   0  0  0  0  0  0  0  0  0  0  0  0
   -1.4855   -0.0295   -8.2746 H   0  0  0  0  0  0  0  0  0  0  0  0
   -2.6703   -1.4134   -2.3793 H   0  0  0  0  0  0  0  0  0  0  0  0
   -2.8138   -1.6683   -4.1086 H   0  0  0  0  0  0  0  0  0  0  0  0
   -4.8834   -0.6475   -3.1964 H   0  0  0  0  0  0  0  0  0  0  0  0
   -4.0968    0.4803   -4.3064 H   0  0  0  0  0  0  0  0  0  0  0  0
   -3.9532    0.7155   -2.5667 H   0  0  0  0  0  0  0  0  0  0  0  0
   -1.9857   -0.0776   -0.8982 H   0  0  0  0  0  0  0  0  0  0  0  0
   -0.4557    0.6692   -0.4615 H   0  0  0  0  0  0  0  0  0  0  0  0
   -0.2957   -1.7094    0.0014 H   0  0  0  0  0  0  0  0  0  0  0  0
   -0.7278   -2.1204   -1.6587 H   0  0  0  0  0  0  0  0  0  0  0  0
    0.7895   -1.2927   -1.3317 H   0  0  0  0  0  0  0  0  0  0  0  0
    2.8458    3.5152   -2.3324 H   0  0  0  0  0  0  0  0  0  0  0  0
    0.0206    2.6002   -0.2343 H   0  0  0  0  0  0  0  0  0  0  0  0
    1.8225    2.6996    1.3408 H   0  0  0  0  0  0  0  0  0  0  0  0
    4.0402    4.3538    0.0751 H   0  0  0  0  0  0  0  0  0  0  0  0
    1.7820    0.1181    0.5684 H   0  0  0  0  0  0  0  0  0  0  0  0
    2.2380   -1.5830    0.6038 H   0  0  0  0  0  0  0  0  0  0  0  0
    2.5366   -0.5929    2.8212 H   0  0  0  0  0  0  0  0  0  0  0  0
    3.6170    0.6454    2.1622 H   0  0  0  0  0  0  0  0  0  0  0  0
    4.1116   -1.0467    2.1602 H   0  0  0  0  0  0  0  0  0  0  0  0
    3.9718   -3.2204   -1.9789 H   0  0  0  0  0  0  0  0  0  0  0  0
    2.8646   -2.8466   -0.6754 H   0  0  0  0  0  0  0  0  0  0  0  0
    4.5911   -4.5012    0.0316 H   0  0  0  0  0  0  0  0  0  0  0  0
    4.7202   -3.0189    0.9745 H   0  0  0  0  0  0  0  0  0  0  0  0
    5.8648   -3.3287   -0.3284 H   0  0  0  0  0  0  0  0  0  0  0  0
    7.8188   -1.4443   -4.2241 H   0  0  0  0  0  0  0  0  0  0  0  0
    5.9156   -3.9255   -2.7860 H   0  0  0  0  0  0  0  0  0  0  0  0
    4.7990   -2.3622   -5.1602 H   0  0  0  0  0  0  0  0  0  0  0  0
    6.2944   -5.6794   -4.8684 H   0  0  0  0  0  0  0  0  0  0  0  0
    1.2666   -2.1979   -6.1112 H   0  0  0  0  0  0  0  0  0  0  0  0
    2.9969   -2.4152   -6.0664 H   0  0  0  0  0  0  0  0  0  0  0  0
    1.2188   -1.6354   -3.7000 H   0  0  0  0  0  0  0  0  0  0  0  0
    2.9467   -1.9405   -3.5712 H   0  0  0  0  0  0  0  0  0  0  0  0
    2.3629   -0.5968   -4.5476 H   0  0  0  0  0  0  0  0  0  0  0  0
   -1.3301   -3.9890   -4.3554 H   0  0  0  0  0  0  0  0  0  0  0  0
   -0.3768   -2.6232   -4.9057 H   0  0  0  0  0  0  0  0  0  0  0  0
   -2.1094   -3.2498   -6.5834 H   0  0  0  0  0  0  0  0  0  0  0  0
   -0.4945   -3.4919   -7.2510 H   0  0  0  0  0  0  0  0  0  0  0  0
   -1.4283   -4.8758   -6.6876 H   0  0  0  0  0  0  0  0  0  0  0  0
   -1.1619   -8.8097   -4.3179 H   0  0  0  0  0  0  0  0  0  0  0  0
   -2.8282   -6.3470   -4.6560 H   0  0  0  0  0  0  0  0  0  0  0  0
   -3.2562   -5.3687   -2.5576 H   0  0  0  0  0  0  0  0  0  0  0  0
   -2.7491   -4.3074   -0.6230 H   0  0  0  0  0  0  0  0  0  0  0  0
    2.1121   -5.8037   -0.3136 H   0  0  0  0  0  0  0  0  0  0  0  0
   -0.1646   -2.3240    4.3097 H   0  0  0  0  0  0  0  0  0  0  0  0
    2.3204   -2.9188    4.7029 H   0  0  0  0  0  0  0  0  0  0  0  0
   -3.3028   -3.1379    1.2217 H   0  0  0  0  0  0  0  0  0  0  0  0
   -1.7192   -1.4151    3.1758 H   0  0  0  0  0  0  0  0  0  0  0  0
   -5.2052   -2.7257    2.8143 H   0  0  0  0  0  0  0  0  0  0  0  0
   -1.7850    0.2394    1.7453 H   0  0  0  0  0  0  0  0  0  0  0  0
   -1.4600    1.9625    1.6711 H   0  0  0  0  0  0  0  0  0  0  0  0
    0.3811    0.6512    2.7742 H   0  0  0  0  0  0  0  0  0  0  0  0
   -0.2845    1.8971    3.8349 H   0  0  0  0  0  0  0  0  0  0  0  0
   -0.7345    0.2236    4.0748 H   0  0  0  0  0  0  0  0  0  0  0  0
   -1.3889    3.6067    3.1157 H   0  0  0  0  0  0  0  0  0  0  0  0
   -2.5712    4.6519    3.8891 H   0  0  0  0  0  0  0  0  0  0  0  0
   -2.8198    3.6759    1.0107 H   0  0  0  0  0  0  0  0  0  0  0  0
   -2.2640    5.2766    1.5125 H   0  0  0  0  0  0  0  0  0  0  0  0
   -3.9209    4.7645    1.8470 H   0  0  0  0  0  0  0  0  0  0  0  0
   -6.9637    4.7322    5.5984 H   0  0  0  0  0  0  0  0  0  0  0  0
   -4.6303    6.1508    5.3804 H   0  0  0  0  0  0  0  0  0  0  0  0
   -2.7141    5.7482    6.7662 H   0  0  0  0  0  0  0  0  0  0  0  0
   -4.5652    2.6696    7.0544 H   0  0  0  0  0  0  0  0  0  0  0  0
   -1.1346    5.4926    5.3402 H   0  0  0  0  0  0  0  0  0  0  0  0
    0.5808    5.5132    4.9997 H   0  0  0  0  0  0  0  0  0  0  0  0
    1.0725    5.9151    7.4166 H   0  0  0  0  0  0  0  0  0  0  0  0
   -0.6426    5.8388    7.7863 H   0  0  0  0  0  0  0  0  0  0  0  0
   -0.0154    7.1543    6.7840 H   0  0  0  0  0  0  0  0  0  0  0  0
    2.3545    4.8494    5.7985 H   0  0  0  0  0  0  0  0  0  0  0  0
    3.2341    3.3722    6.1265 H   0  0  0  0  0  0  0  0  0  0  0  0
    1.7329    3.9498    3.5354 H   0  0  0  0  0  0  0  0  0  0  0  0
    3.4859    4.0063    3.7523 H   0  0  0  0  0  0  0  0  0  0  0  0
    2.6283    2.4698    3.9000 H   0  0  0  0  0  0  0  0  0  0  0  0
    2.5267   -1.3148    6.7864 H   0  0  0  0  0  0  0  0  0  0  0  0
    4.0981    1.8000    7.1257 H   0  0  0  0  0  0  0  0  0  0  0  0
    5.5969    0.7628    5.5062 H   0  0  0  0  0  0  0  0  0  0  0  0
    4.1855   -0.1279    4.7520 H   0  0  0  0  0  0  0  0  0  0  0  0
  1  2  2  0  0  0  0
  2  3  1  0  0  0  0
  3  4  1  0  0  0  0
  4  5  2  0  0  0  0
  5  6  1  0  0  0  0
  6  7  1  0  0  0  0
  7  8  1  0  0  0  0
  6  9  2  0  0  0  0
  9 10  1  0  0  0  0
 10 11  1  0  0  0  0
  9 12  1  0  0  0  0
 12 13  1  0  0  0  0
 13 14  2  0  0  0  0
 14 15  1  0  0  0  0
 15 16  1  0  0  0  0
 13 17  1  0  0  0  0
 17 18  2  0  0  0  0
 18 19  1  0  0  0  0
 19 20  2  0  0  0  0
 20 21  1  0  0  0  0
 21 22  1  0  0  0  0
 22 23  2  0  0  0  0
 23 24  1  0  0  0  0
 24 25  1  0  0  0  0
 25 26  1  0  0  0  0
 24 27  2  0  0  0  0
 27 28  1  0  0  0  0
 28 29  1  0  0  0  0
 27 30  1  0  0  0  0
 30 31  1  0  0  0  0
 31 32  2  0  0  0  0
 32 33  1  0  0  0  0
 33 34  1  0  0  0  0
 31 35  1  0  0  0  0
 35 36  2  0  0  0  0
 36 37  1  0  0  0  0
 37 38  2  0  0  0  0
 38 39  1  0  0  0  0
 39 40  1  0  0  0  0
 40 41  2  0  0  0  0
 41 42  1  0  0  0  0
 42 43  1  0  0  0  0
 43 44  1  0  0  0  0
 42 45  2  0  0  0  0
 45 46  1  0  0  0  0
 46 47  1  0  0  0  0
 45 48  1  0  0  0  0
 48 49  1  0  0  0  0
 49 50  2  0  0  0  0
 50 51  1  0  0  0  0
 51 52  1  0  0  0  0
 49 53  1  0  0  0  0
 53 54  2  0  0  0  0
 54 55  1  0  0  0  0
 55 56  2  0  0  0  0
 56 57  1  0  0  0  0
 57 58  1  0  0  0  0
 58 59  2  0  0  0  0
 59 60  1  0  0  0  0
 58 61  1  0  0  0  0
 61 62  2  0  0  0  0
 62 63  1  0  0  0  0
 63 64  2  0  0  0  0
 64 65  1  0  0  0  0
 62 66  1  0  0  0  0
 66 67  1  0  0  0  0
 67 68  2  0  0  0  0
 68 69  1  0  0  0  0
 69 70  2  0  0  0  0
 70 71  1  0  0  0  0
 71 72  1  0  0  0  0
 72 73  2  0  0  0  0
 73 74  1  0  0  0  0
 74 75  1  0  0  0  0
 75 76  1  0  0  0  0
 74 77  2  0  0  0  0
 77 78  1  0  0  0  0
 78 79  1  0  0  0  0
 77 80  1  0  0  0  0
 80 81  1  0  0  0  0
 81 82  2  0  0  0  0
 82 83  1  0  0  0  0
 83 84  1  0  0  0  0
 81 85  1  0  0  0  0
 85 86  2  0  0  0  0
 86 87  1  0  0  0  0
 87 88  2  0  0  0  0
 88 89  1  0  0  0  0
 89 90  1  0  0  0  0
 90 91  2  0  0  0  0
 91 92  1  0  0  0  0
 92 93  1  0  0  0  0
 93 94  1  0  0  0  0
 92 95  2  0  0  0  0
 95 96  1  0  0  0  0
 96 97  1  0  0  0  0
 95 98  1  0  0  0  0
 98 99  1  0  0  0  0
 99100  2  0  0  0  0
100101  1  0  0  0  0
101102  1  0  0  0  0
 99103  1  0  0  0  0
103104  2  0  0  0  0
  5  1  1  0  0  0  0
 16 12  2  0  0  0  0
 23 19  1  0  0  0  0
 34 30  2  0  0  0  0
 41 37  1  0  0  0  0
 52 48  2  0  0  0  0
 60 55  1  0  0  0  0
 65 61  1  0  0  0  0
 73 69  1  0  0  0  0
 84 80  2  0  0  0  0
 91 87  1  0  0  0  0
102 98  2  0  0  0  0
 16  4  1  0  0  0  0
 34 22  1  0  0  0  0
 52 40  1  0  0  0  0
 66 57  2  0  0  0  0
 84 72  1  0  0  0  0
102 90  1  0  0  0  0
  1105  1  0  0  0  0
  2106  1  0  0  0  0
  7107  1  0  0  0  0
  7108  1  0  0  0  0
  8109  1  0  0  0  0
  8110  1  0  0  0  0
  8111  1  0  0  0  0
 10112  1  0  0  0  0
 10113  1  0  0  0  0
 11114  1  0  0  0  0
 11115  1  0  0  0  0
 11116  1  0  0  0  0
 14117  1  0  0  0  0
 17118  1  0  0  0  0
 18119  1  0  0  0  0
 20120  1  0  0  0  0
 25121  1  0  0  0  0
 25122  1  0  0  0  0
 26123  1  0  0  0  0
 26124  1  0  0  0  0
 26125  1  0  0  0  0
 28126  1  0  0  0  0
 28127  1  0  0  0  0
 29128  1  0  0  0  0
 29129  1  0  0  0  0
 29130  1  0  0  0  0
 32131  1  0  0  0  0
 35132  1  0  0  0  0
 36133  1  0  0  0  0
 38134  1  0  0  0  0
 43135  1  0  0  0  0
 43136  1  0  0  0  0
 44137  1  0  0  0  0
 44138  1  0  0  0  0
 44139  1  0  0  0  0
 46140  1  0  0  0  0
 46141  1  0  0  0  0
 47142  1  0  0  0  0
 47143  1  0  0  0  0
 47144  1  0  0  0  0
 50145  1  0  0  0  0
 53146  1  0  0  0  0
 54147  1  0  0  0  0
 56148  1  0  0  0  0
 59149  1  0  0  0  0
 63150  1  0  0  0  0
 64151  1  0  0  0  0
 67152  1  0  0  0  0
 68153  1  0  0  0  0
 70154  1  0  0  0  0
 75155  1  0  0  0  0
 75156  1  0  0  0  0
 76157  1  0  0  0  0
 76158  1  0  0  0  0
 76159  1  0  0  0  0
 78160  1  0  0  0  0
 78161  1  0  0  0  0
 79162  1  0  0  0  0
 79163  1  0  0  0  0
 79164  1  0  0  0  0
 82165  1  0  0  0  0
 85166  1  0  0  0  0
 86167  1  0  0  0  0
 88168  1  0  0  0  0
 93169  1  0  0  0  0
 93170  1  0  0  0  0
 94171  1  0  0  0  0
 94172  1  0  0  0  0
 94173  1  0  0  0  0
 96174  1  0  0  0  0
 96175  1  0  0  0  0
 97176  1  0  0  0  0
 97177  1  0  0  0  0
 97178  1  0  0  0  0
100179  1  0  0  0  0
103180  1  0  0  0  0
104181  1  0  0  0  0
104182  1  0  0  0  0
M  END
