
  xtb     03032209203D
 energy: -409.450426847981 gnorm: 0.000456616142 xtb: 6.4.1 (unknown)
210235  0     0  0            999 V2000
   -0.3758   -2.2666    9.9852 C   0  0  0  0  0  0  0  0  0  0  0  0
    0.3058   -1.8899    8.8845 C   0  0  0  0  0  0  0  0  0  0  0  0
   -0.4776   -1.9703    7.6962 C   0  0  0  0  0  0  0  0  0  0  0  0
   -0.1135   -1.6008    6.3938 C   0  0  0  0  0  0  0  0  0  0  0  0
    1.1596   -0.9430    6.1238 C   0  0  0  0  0  0  0  0  0  0  0  0
    2.7074   -1.6914    6.3533 S   0  0  0  0  0  0  0  0  0  0  0  0
    3.5576   -0.2390    5.9422 C   0  0  0  0  0  0  0  0  0  0  0  0
    5.0446   -0.1767    5.9810 C   0  0  0  0  0  0  0  0  0  0  0  0
    5.5456    0.2805    7.3527 C   0  0  0  0  0  0  0  0  0  0  0  0
    2.6754    0.7605    5.6600 C   0  0  0  0  0  0  0  0  0  0  0  0
    3.1267    2.3718    5.2984 Cl  0  0  0  0  0  0  0  0  0  0  0  0
    1.3164    0.3588    5.7404 C   0  0  0  0  0  0  0  0  0  0  0  0
    0.0102    1.4251    5.4397 Cl  0  0  0  0  0  0  0  0  0  0  0  0
   -1.0685   -1.7578    5.3996 C   0  0  0  0  0  0  0  0  0  0  0  0
   -2.3921   -2.1740    5.6763 C   0  0  0  0  0  0  0  0  0  0  0  0
   -2.7726   -2.5107    6.9853 C   0  0  0  0  0  0  0  0  0  0  0  0
   -4.1452   -2.8891    7.2782 C   0  0  0  0  0  0  0  0  0  0  0  0
   -5.4648   -1.8714    6.7766 S   0  0  0  0  0  0  0  0  0  0  0  0
   -6.6523   -2.9540    7.4196 C   0  0  0  0  0  0  0  0  0  0  0  0
   -8.1047   -2.6713    7.2550 C   0  0  0  0  0  0  0  0  0  0  0  0
   -8.5099   -2.7147    5.7804 C   0  0  0  0  0  0  0  0  0  0  0  0
   -6.0454   -4.0314    7.9918 C   0  0  0  0  0  0  0  0  0  0  0  0
   -4.6253   -3.9960    7.9195 C   0  0  0  0  0  0  0  0  0  0  0  0
   -3.6458   -5.2754    8.5022 Cl  0  0  0  0  0  0  0  0  0  0  0  0
   -6.8892   -5.3285    8.7345 Cl  0  0  0  0  0  0  0  0  0  0  0  0
   -1.7906   -2.4282    7.9655 C   0  0  0  0  0  0  0  0  0  0  0  0
   -2.0076   -2.7390    9.6638 S   0  0  0  0  0  0  0  0  0  0  0  0
   -3.1854   -2.1911    4.5037 C   0  0  0  0  0  0  0  0  0  0  0  0
   -2.5059   -1.8425    3.3772 C   0  0  0  0  0  0  0  0  0  0  0  0
   -0.8293   -1.4675    3.7002 S   0  0  0  0  0  0  0  0  0  0  0  0
   -3.0996   -1.7339    2.0762 C   0  0  0  0  0  0  0  0  0  0  0  0
   -2.6119   -2.0416    0.8448 C   0  0  0  0  0  0  0  0  0  0  0  0
   -3.5540   -1.8510   -0.2027 C   0  0  0  0  0  0  0  0  0  0  0  0
   -3.4131   -2.0984   -1.5840 C   0  0  0  0  0  0  0  0  0  0  0  0
   -2.1875   -2.6449   -2.1395 C   0  0  0  0  0  0  0  0  0  0  0  0
   -0.6272   -2.0369   -1.6604 S   0  0  0  0  0  0  0  0  0  0  0  0
    0.2232   -3.1675   -2.6521 C   0  0  0  0  0  0  0  0  0  0  0  0
    1.7023   -3.3101   -2.5763 C   0  0  0  0  0  0  0  0  0  0  0  0
    2.0847   -4.3312   -1.5016 C   0  0  0  0  0  0  0  0  0  0  0  0
   -0.6629   -3.9429   -3.3373 C   0  0  0  0  0  0  0  0  0  0  0  0
   -0.2042   -5.1782   -4.4344 Cl  0  0  0  0  0  0  0  0  0  0  0  0
   -2.0233   -3.6540   -3.0514 C   0  0  0  0  0  0  0  0  0  0  0  0
   -3.2822   -4.6173   -3.6988 Cl  0  0  0  0  0  0  0  0  0  0  0  0
   -4.4979   -1.7669   -2.3923 C   0  0  0  0  0  0  0  0  0  0  0  0
   -5.6964   -1.1960   -1.8948 C   0  0  0  0  0  0  0  0  0  0  0  0
   -5.8708   -1.0386   -0.5110 C   0  0  0  0  0  0  0  0  0  0  0  0
   -7.1040   -0.5306    0.0687 C   0  0  0  0  0  0  0  0  0  0  0  0
   -7.7909    0.9936   -0.4174 S   0  0  0  0  0  0  0  0  0  0  0  0
   -9.0906    0.8666    0.7170 C   0  0  0  0  0  0  0  0  0  0  0  0
  -10.0948    1.9548    0.8670 C   0  0  0  0  0  0  0  0  0  0  0  0
   -9.6184    3.0015    1.8774 C   0  0  0  0  0  0  0  0  0  0  0  0
   -8.9825   -0.2904    1.4274 C   0  0  0  0  0  0  0  0  0  0  0  0
   -7.8640   -1.0863    1.0608 C   0  0  0  0  0  0  0  0  0  0  0  0
   -7.5774   -2.6261    1.7560 Cl  0  0  0  0  0  0  0  0  0  0  0  0
  -10.0868   -0.7686    2.6501 Cl  0  0  0  0  0  0  0  0  0  0  0  0
   -4.7906   -1.3700    0.2964 C   0  0  0  0  0  0  0  0  0  0  0  0
   -4.7548   -1.1702    2.0191 S   0  0  0  0  0  0  0  0  0  0  0  0
   -6.5912   -0.8396   -2.9320 C   0  0  0  0  0  0  0  0  0  0  0  0
   -6.1173   -1.1214   -4.1787 C   0  0  0  0  0  0  0  0  0  0  0  0
   -4.5381   -1.8736   -4.1278 S   0  0  0  0  0  0  0  0  0  0  0  0
   -6.7048   -0.8071   -5.4468 C   0  0  0  0  0  0  0  0  0  0  0  0
   -6.3581   -1.4488   -6.6025 C   0  0  0  0  0  0  0  0  0  0  0  0
   -6.7672   -1.0536   -7.8829 C   0  0  0  0  0  0  0  0  0  0  0  0
   -7.7664    0.0150   -8.0489 C   0  0  0  0  0  0  0  0  0  0  0  0
   -8.2851    0.7383   -7.0336 C   0  0  0  0  0  0  0  0  0  0  0  0
   -7.8292    0.5425   -5.3939 S   0  0  0  0  0  0  0  0  0  0  0  0
   -8.0330    0.0672   -9.4428 C   0  0  0  0  0  0  0  0  0  0  0  0
   -7.2565   -0.8870  -10.0991 C   0  0  0  0  0  0  0  0  0  0  0  0
   -7.4667   -0.8770  -11.4958 C   0  0  0  0  0  0  0  0  0  0  0  0
   -8.3831    0.0594  -11.8551 C   0  0  0  0  0  0  0  0  0  0  0  0
   -9.0192    0.9693  -10.5248 S   0  0  0  0  0  0  0  0  0  0  0  0
   -6.4357   -1.5742   -9.1339 C   0  0  0  0  0  0  0  0  0  0  0  0
   -5.5330   -2.6118   -9.5359 C   0  0  0  0  0  0  0  0  0  0  0  0
   -4.2797   -2.9306   -9.1431 C   0  0  0  0  0  0  0  0  0  0  0  0
   -3.3611   -2.2902   -8.2587 C   0  0  0  0  0  0  0  0  0  0  0  0
   -2.0548   -2.6803   -8.1150 C   0  0  0  0  0  0  0  0  0  0  0  0
   -1.3034   -1.8794   -7.2282 C   0  0  0  0  0  0  0  0  0  0  0  0
    0.0473   -2.0255   -6.8657 C   0  0  0  0  0  0  0  0  0  0  0  0
    0.9241   -2.9471   -7.5626 C   0  0  0  0  0  0  0  0  0  0  0  0
    1.9774   -4.0378   -6.7129 S   0  0  0  0  0  0  0  0  0  0  0  0
    2.6306   -4.6805   -8.1781 C   0  0  0  0  0  0  0  0  0  0  0  0
    3.7092   -5.7060   -8.1537 C   0  0  0  0  0  0  0  0  0  0  0  0
    5.0790   -5.0465   -7.9762 C   0  0  0  0  0  0  0  0  0  0  0  0
    2.0659   -4.0675   -9.2567 C   0  0  0  0  0  0  0  0  0  0  0  0
    2.4723   -4.4300  -10.8847 Cl  0  0  0  0  0  0  0  0  0  0  0  0
    1.0969   -3.0882   -8.9136 C   0  0  0  0  0  0  0  0  0  0  0  0
    0.3086   -2.1245  -10.0959 Cl  0  0  0  0  0  0  0  0  0  0  0  0
    0.4980   -1.2310   -5.8218 C   0  0  0  0  0  0  0  0  0  0  0  0
   -0.3243   -0.3059   -5.1334 C   0  0  0  0  0  0  0  0  0  0  0  0
   -1.6534   -0.0901   -5.5583 C   0  0  0  0  0  0  0  0  0  0  0  0
   -2.5473    0.7942   -4.8343 C   0  0  0  0  0  0  0  0  0  0  0  0
   -2.5623    0.7598   -3.0881 S   0  0  0  0  0  0  0  0  0  0  0  0
   -3.9207    1.8192   -2.9833 C   0  0  0  0  0  0  0  0  0  0  0  0
   -4.5170    2.2177   -1.6785 C   0  0  0  0  0  0  0  0  0  0  0  0
   -3.5735    1.9836   -0.5076 C   0  0  0  0  0  0  0  0  0  0  0  0
   -4.3172    2.1901   -4.2330 C   0  0  0  0  0  0  0  0  0  0  0  0
   -3.5425    1.6252   -5.2807 C   0  0  0  0  0  0  0  0  0  0  0  0
   -3.7974    2.0916   -6.9101 Cl  0  0  0  0  0  0  0  0  0  0  0  0
   -5.6402    3.2415   -4.5264 Cl  0  0  0  0  0  0  0  0  0  0  0  0
   -2.0946   -0.8666   -6.6271 C   0  0  0  0  0  0  0  0  0  0  0  0
   -3.6923   -0.8591   -7.3092 S   0  0  0  0  0  0  0  0  0  0  0  0
    0.3732    0.3132   -4.0682 C   0  0  0  0  0  0  0  0  0  0  0  0
    1.6661   -0.1051   -3.9414 C   0  0  0  0  0  0  0  0  0  0  0  0
    2.1146   -1.2515   -5.1835 S   0  0  0  0  0  0  0  0  0  0  0  0
    2.5829    0.2114   -2.8943 C   0  0  0  0  0  0  0  0  0  0  0  0
    2.2929    0.7963   -1.6956 C   0  0  0  0  0  0  0  0  0  0  0  0
    3.4040    0.8727   -0.8227 C   0  0  0  0  0  0  0  0  0  0  0  0
    3.4438    1.3713    0.4924 C   0  0  0  0  0  0  0  0  0  0  0  0
    2.2401    1.8417    1.1582 C   0  0  0  0  0  0  0  0  0  0  0  0
    2.1627    3.4219    1.8796 S   0  0  0  0  0  0  0  0  0  0  0  0
    0.5092    3.2155    2.3478 C   0  0  0  0  0  0  0  0  0  0  0  0
   -0.2431    4.2993    3.0397 C   0  0  0  0  0  0  0  0  0  0  0  0
    0.5841    4.9679    4.1335 C   0  0  0  0  0  0  0  0  0  0  0  0
    0.0619    1.9852    1.9679 C   0  0  0  0  0  0  0  0  0  0  0  0
   -1.5411    1.4280    2.2210 Cl  0  0  0  0  0  0  0  0  0  0  0  0
    1.0415    1.1999    1.3037 C   0  0  0  0  0  0  0  0  0  0  0  0
    0.7486   -0.4195    0.8179 Cl  0  0  0  0  0  0  0  0  0  0  0  0
    4.6844    1.3987    1.1103 C   0  0  0  0  0  0  0  0  0  0  0  0
    5.8706    0.9131    0.5084 C   0  0  0  0  0  0  0  0  0  0  0  0
    5.8149    0.3457   -0.7772 C   0  0  0  0  0  0  0  0  0  0  0  0
    6.9946   -0.2377   -1.3916 C   0  0  0  0  0  0  0  0  0  0  0  0
    7.5040    0.2093   -2.9927 S   0  0  0  0  0  0  0  0  0  0  0  0
    8.8645   -0.8582   -2.9425 C   0  0  0  0  0  0  0  0  0  0  0  0
    9.8302   -0.9310   -4.0732 C   0  0  0  0  0  0  0  0  0  0  0  0
   10.8961    0.1611   -3.9546 C   0  0  0  0  0  0  0  0  0  0  0  0
    8.9103   -1.5129   -1.7477 C   0  0  0  0  0  0  0  0  0  0  0  0
    7.8501   -1.1680   -0.8681 C   0  0  0  0  0  0  0  0  0  0  0  0
    7.6382   -1.9239    0.6587 Cl  0  0  0  0  0  0  0  0  0  0  0  0
   10.1185   -2.6582   -1.3291 Cl  0  0  0  0  0  0  0  0  0  0  0  0
    4.5833    0.3607   -1.4183 C   0  0  0  0  0  0  0  0  0  0  0  0
    4.2664   -0.2589   -3.0136 S   0  0  0  0  0  0  0  0  0  0  0  0
    6.9991    1.0907    1.3449 C   0  0  0  0  0  0  0  0  0  0  0  0
    6.7016    1.6477    2.5555 C   0  0  0  0  0  0  0  0  0  0  0  0
    4.9884    1.9982    2.7094 S   0  0  0  0  0  0  0  0  0  0  0  0
    7.5771    1.9309    3.6505 C   0  0  0  0  0  0  0  0  0  0  0  0
    7.1440    2.5450    4.7934 C   0  0  0  0  0  0  0  0  0  0  0  0
    7.9369    2.8099    5.9141 C   0  0  0  0  0  0  0  0  0  0  0  0
    9.3599    2.4368    5.9300 C   0  0  0  0  0  0  0  0  0  0  0  0
    9.9978    1.8329    4.9054 C   0  0  0  0  0  0  0  0  0  0  0  0
    9.2417    1.3970    3.4273 S   0  0  0  0  0  0  0  0  0  0  0  0
    9.8315    2.8463    7.2042 C   0  0  0  0  0  0  0  0  0  0  0  0
    8.7886    3.4237    7.9365 C   0  0  0  0  0  0  0  0  0  0  0  0
    9.2320    3.8650    9.2051 C   0  0  0  0  0  0  0  0  0  0  0  0
   10.5521    3.6112    9.3976 C   0  0  0  0  0  0  0  0  0  0  0  0
   11.3229    2.8316    8.0581 S   0  0  0  0  0  0  0  0  0  0  0  0
    7.5938    3.3991    7.1336 C   0  0  0  0  0  0  0  0  0  0  0  0
    6.2796    3.8652    7.4750 C   0  0  0  0  0  0  0  0  0  0  0  0
    5.8663    4.2549    8.6810 C   0  0  0  0  0  0  0  0  0  0  0  0
   -0.0231   -2.3043   10.9973 H   0  0  0  0  0  0  0  0  0  0  0  0
    1.3306   -1.5665    8.8954 H   0  0  0  0  0  0  0  0  0  0  0  0
    5.3862    0.5251    5.2183 H   0  0  0  0  0  0  0  0  0  0  0  0
    5.4526   -1.1629    5.7536 H   0  0  0  0  0  0  0  0  0  0  0  0
    6.6305    0.3436    7.3508 H   0  0  0  0  0  0  0  0  0  0  0  0
    5.2376   -0.4233    8.1222 H   0  0  0  0  0  0  0  0  0  0  0  0
    5.1459    1.2616    7.5955 H   0  0  0  0  0  0  0  0  0  0  0  0
   -8.3318   -1.6823    7.6606 H   0  0  0  0  0  0  0  0  0  0  0  0
   -8.6690   -3.4149    7.8198 H   0  0  0  0  0  0  0  0  0  0  0  0
   -9.5725   -2.5110    5.6780 H   0  0  0  0  0  0  0  0  0  0  0  0
   -7.9562   -1.9694    5.2138 H   0  0  0  0  0  0  0  0  0  0  0  0
   -8.3025   -3.6950    5.3583 H   0  0  0  0  0  0  0  0  0  0  0  0
   -4.2221   -2.4726    4.4832 H   0  0  0  0  0  0  0  0  0  0  0  0
   -1.6163   -2.4171    0.6990 H   0  0  0  0  0  0  0  0  0  0  0  0
    2.0812   -3.6400   -3.5455 H   0  0  0  0  0  0  0  0  0  0  0  0
    2.1504   -2.3484   -2.3273 H   0  0  0  0  0  0  0  0  0  0  0  0
    1.7251   -4.0071   -0.5277 H   0  0  0  0  0  0  0  0  0  0  0  0
    3.1655   -4.4330   -1.4573 H   0  0  0  0  0  0  0  0  0  0  0  0
    1.6506   -5.3014   -1.7289 H   0  0  0  0  0  0  0  0  0  0  0  0
  -10.2605    2.4315   -0.1006 H   0  0  0  0  0  0  0  0  0  0  0  0
  -11.0354    1.5192    1.2097 H   0  0  0  0  0  0  0  0  0  0  0  0
   -8.6846    3.4492    1.5455 H   0  0  0  0  0  0  0  0  0  0  0  0
  -10.3640    3.7849    1.9819 H   0  0  0  0  0  0  0  0  0  0  0  0
   -9.4573    2.5410    2.8488 H   0  0  0  0  0  0  0  0  0  0  0  0
   -7.5529   -0.3910   -2.7621 H   0  0  0  0  0  0  0  0  0  0  0  0
   -5.7269   -2.3222   -6.5103 H   0  0  0  0  0  0  0  0  0  0  0  0
   -9.0184    1.5139   -7.1900 H   0  0  0  0  0  0  0  0  0  0  0  0
   -6.9717   -1.5225  -12.1988 H   0  0  0  0  0  0  0  0  0  0  0  0
   -8.7394    0.2866  -12.8409 H   0  0  0  0  0  0  0  0  0  0  0  0
   -5.9185   -3.1956  -10.3663 H   0  0  0  0  0  0  0  0  0  0  0  0
   -3.8285   -3.7827   -9.6399 H   0  0  0  0  0  0  0  0  0  0  0  0
   -1.6492   -3.5416   -8.6143 H   0  0  0  0  0  0  0  0  0  0  0  0
    3.5310   -6.4000   -7.3304 H   0  0  0  0  0  0  0  0  0  0  0  0
    3.6878   -6.2621   -9.0927 H   0  0  0  0  0  0  0  0  0  0  0  0
    5.1067   -4.4810   -7.0476 H   0  0  0  0  0  0  0  0  0  0  0  0
    5.2798   -4.3686   -8.8019 H   0  0  0  0  0  0  0  0  0  0  0  0
    5.8577   -5.8038   -7.9493 H   0  0  0  0  0  0  0  0  0  0  0  0
   -5.4393    1.6469   -1.5265 H   0  0  0  0  0  0  0  0  0  0  0  0
   -4.8006    3.2718   -1.7343 H   0  0  0  0  0  0  0  0  0  0  0  0
   -4.0613    2.2464    0.4270 H   0  0  0  0  0  0  0  0  0  0  0  0
   -3.2769    0.9381   -0.4607 H   0  0  0  0  0  0  0  0  0  0  0  0
   -2.6752    2.5873   -0.6124 H   0  0  0  0  0  0  0  0  0  0  0  0
   -0.0594    1.0478   -3.4168 H   0  0  0  0  0  0  0  0  0  0  0  0
    1.3114    1.1481   -1.4404 H   0  0  0  0  0  0  0  0  0  0  0  0
   -1.1511    3.8662    3.4644 H   0  0  0  0  0  0  0  0  0  0  0  0
   -0.5436    5.0522    2.3038 H   0  0  0  0  0  0  0  0  0  0  0  0
    0.8740    4.2402    4.8864 H   0  0  0  0  0  0  0  0  0  0  0  0
    0.0052    5.7523    4.6137 H   0  0  0  0  0  0  0  0  0  0  0  0
    1.4856    5.4068    3.7116 H   0  0  0  0  0  0  0  0  0  0  0  0
   10.3093   -1.9117   -4.0623 H   0  0  0  0  0  0  0  0  0  0  0  0
    9.2926   -0.8133   -5.0155 H   0  0  0  0  0  0  0  0  0  0  0  0
   11.5932    0.0939   -4.7854 H   0  0  0  0  0  0  0  0  0  0  0  0
   11.4491    0.0487   -3.0256 H   0  0  0  0  0  0  0  0  0  0  0  0
   10.4313    1.1441   -3.9666 H   0  0  0  0  0  0  0  0  0  0  0  0
    8.0003    0.8297    1.0544 H   0  0  0  0  0  0  0  0  0  0  0  0
    6.1043    2.8453    4.8165 H   0  0  0  0  0  0  0  0  0  0  0  0
   11.0438    1.5721    4.9451 H   0  0  0  0  0  0  0  0  0  0  0  0
    8.6255    4.3557    9.9436 H   0  0  0  0  0  0  0  0  0  0  0  0
   11.1442    3.8377   10.2628 H   0  0  0  0  0  0  0  0  0  0  0  0
    5.5709    3.8771    6.6564 H   0  0  0  0  0  0  0  0  0  0  0  0
    6.5078    4.2461    9.5431 H   0  0  0  0  0  0  0  0  0  0  0  0
    4.8547    4.5852    8.8423 H   0  0  0  0  0  0  0  0  0  0  0  0
  1  2  2  0  0  0  0
  2  3  1  0  0  0  0
  3  4  2  0  0  0  0
  4  5  1  0  0  0  0
  5  6  1  0  0  0  0
  6  7  1  0  0  0  0
  7  8  1  0  0  0  0
  8  9  1  0  0  0  0
  7 10  2  0  0  0  0
 10 11  1  0  0  0  0
 10 12  1  0  0  0  0
 12 13  1  0  0  0  0
  4 14  1  0  0  0  0
 14 15  2  0  0  0  0
 15 16  1  0  0  0  0
 16 17  1  0  0  0  0
 17 18  1  0  0  0  0
 18 19  1  0  0  0  0
 19 20  1  0  0  0  0
 20 21  1  0  0  0  0
 19 22  2  0  0  0  0
 22 23  1  0  0  0  0
 23 24  1  0  0  0  0
 22 25  1  0  0  0  0
 16 26  2  0  0  0  0
 26 27  1  0  0  0  0
 15 28  1  0  0  0  0
 28 29  2  0  0  0  0
 29 30  1  0  0  0  0
 29 31  1  0  0  0  0
 31 32  2  0  0  0  0
 32 33  1  0  0  0  0
 33 34  2  0  0  0  0
 34 35  1  0  0  0  0
 35 36  1  0  0  0  0
 36 37  1  0  0  0  0
 37 38  1  0  0  0  0
 38 39  1  0  0  0  0
 37 40  2  0  0  0  0
 40 41  1  0  0  0  0
 40 42  1  0  0  0  0
 42 43  1  0  0  0  0
 34 44  1  0  0  0  0
 44 45  2  0  0  0  0
 45 46  1  0  0  0  0
 46 47  1  0  0  0  0
 47 48  1  0  0  0  0
 48 49  1  0  0  0  0
 49 50  1  0  0  0  0
 50 51  1  0  0  0  0
 49 52  2  0  0  0  0
 52 53  1  0  0  0  0
 53 54  1  0  0  0  0
 52 55  1  0  0  0  0
 46 56  2  0  0  0  0
 56 57  1  0  0  0  0
 45 58  1  0  0  0  0
 58 59  2  0  0  0  0
 59 60  1  0  0  0  0
 59 61  1  0  0  0  0
 61 62  2  0  0  0  0
 62 63  1  0  0  0  0
 63 64  1  0  0  0  0
 64 65  2  0  0  0  0
 65 66  1  0  0  0  0
 64 67  1  0  0  0  0
 67 68  2  0  0  0  0
 68 69  1  0  0  0  0
 69 70  2  0  0  0  0
 70 71  1  0  0  0  0
 68 72  1  0  0  0  0
 72 73  1  0  0  0  0
 73 74  2  0  0  0  0
 74 75  1  0  0  0  0
 75 76  2  0  0  0  0
 76 77  1  0  0  0  0
 77 78  2  0  0  0  0
 78 79  1  0  0  0  0
 79 80  1  0  0  0  0
 80 81  1  0  0  0  0
 81 82  1  0  0  0  0
 82 83  1  0  0  0  0
 81 84  2  0  0  0  0
 84 85  1  0  0  0  0
 84 86  1  0  0  0  0
 86 87  1  0  0  0  0
 78 88  1  0  0  0  0
 88 89  2  0  0  0  0
 89 90  1  0  0  0  0
 90 91  1  0  0  0  0
 91 92  1  0  0  0  0
 92 93  1  0  0  0  0
 93 94  1  0  0  0  0
 94 95  1  0  0  0  0
 93 96  2  0  0  0  0
 96 97  1  0  0  0  0
 97 98  1  0  0  0  0
 96 99  1  0  0  0  0
 90100  2  0  0  0  0
100101  1  0  0  0  0
 89102  1  0  0  0  0
102103  2  0  0  0  0
103104  1  0  0  0  0
103105  1  0  0  0  0
105106  2  0  0  0  0
106107  1  0  0  0  0
107108  2  0  0  0  0
108109  1  0  0  0  0
109110  1  0  0  0  0
110111  1  0  0  0  0
111112  1  0  0  0  0
112113  1  0  0  0  0
111114  2  0  0  0  0
114115  1  0  0  0  0
114116  1  0  0  0  0
116117  1  0  0  0  0
108118  1  0  0  0  0
118119  2  0  0  0  0
119120  1  0  0  0  0
120121  1  0  0  0  0
121122  1  0  0  0  0
122123  1  0  0  0  0
123124  1  0  0  0  0
124125  1  0  0  0  0
123126  2  0  0  0  0
126127  1  0  0  0  0
127128  1  0  0  0  0
126129  1  0  0  0  0
120130  2  0  0  0  0
130131  1  0  0  0  0
119132  1  0  0  0  0
132133  2  0  0  0  0
133134  1  0  0  0  0
133135  1  0  0  0  0
135136  2  0  0  0  0
136137  1  0  0  0  0
137138  1  0  0  0  0
138139  2  0  0  0  0
139140  1  0  0  0  0
138141  1  0  0  0  0
141142  2  0  0  0  0
142143  1  0  0  0  0
143144  2  0  0  0  0
144145  1  0  0  0  0
142146  1  0  0  0  0
146147  1  0  0  0  0
147148  2  0  0  0  0
 27  1  1  0  0  0  0
 57 31  1  0  0  0  0
 66 61  1  0  0  0  0
 71 67  1  0  0  0  0
101 75  1  0  0  0  0
131105  1  0  0  0  0
140135  1  0  0  0  0
145141  1  0  0  0  0
 26  3  1  0  0  0  0
 56 33  1  0  0  0  0
 72 63  2  0  0  0  0
100 77  1  0  0  0  0
130107  1  0  0  0  0
146137  2  0  0  0  0
 12  5  2  0  0  0  0
 30 14  1  0  0  0  0
 42 35  2  0  0  0  0
 60 44  1  0  0  0  0
 86 79  2  0  0  0  0
104 88  1  0  0  0  0
116109  2  0  0  0  0
134118  1  0  0  0  0
 23 17  2  0  0  0  0
 53 47  2  0  0  0  0
 97 91  2  0  0  0  0
127121  2  0  0  0  0
  1149  1  0  0  0  0
  2150  1  0  0  0  0
  8151  1  0  0  0  0
  8152  1  0  0  0  0
  9153  1  0  0  0  0
  9154  1  0  0  0  0
  9155  1  0  0  0  0
 20156  1  0  0  0  0
 20157  1  0  0  0  0
 21158  1  0  0  0  0
 21159  1  0  0  0  0
 21160  1  0  0  0  0
 28161  1  0  0  0  0
 32162  1  0  0  0  0
 38163  1  0  0  0  0
 38164  1  0  0  0  0
 39165  1  0  0  0  0
 39166  1  0  0  0  0
 39167  1  0  0  0  0
 50168  1  0  0  0  0
 50169  1  0  0  0  0
 51170  1  0  0  0  0
 51171  1  0  0  0  0
 51172  1  0  0  0  0
 58173  1  0  0  0  0
 62174  1  0  0  0  0
 65175  1  0  0  0  0
 69176  1  0  0  0  0
 70177  1  0  0  0  0
 73178  1  0  0  0  0
 74179  1  0  0  0  0
 76180  1  0  0  0  0
 82181  1  0  0  0  0
 82182  1  0  0  0  0
 83183  1  0  0  0  0
 83184  1  0  0  0  0
 83185  1  0  0  0  0
 94186  1  0  0  0  0
 94187  1  0  0  0  0
 95188  1  0  0  0  0
 95189  1  0  0  0  0
 95190  1  0  0  0  0
102191  1  0  0  0  0
106192  1  0  0  0  0
112193  1  0  0  0  0
112194  1  0  0  0  0
113195  1  0  0  0  0
113196  1  0  0  0  0
113197  1  0  0  0  0
124198  1  0  0  0  0
124199  1  0  0  0  0
125200  1  0  0  0  0
125201  1  0  0  0  0
125202  1  0  0  0  0
132203  1  0  0  0  0
136204  1  0  0  0  0
139205  1  0  0  0  0
143206  1  0  0  0  0
144207  1  0  0  0  0
147208  1  0  0  0  0
148209  1  0  0  0  0
148210  1  0  0  0  0
M  END
