166

C          4.44290       -4.65690       -1.00060
C          4.38110       -4.08970        0.22540
C          3.87500       -2.79660        0.46700
C          3.41470       -1.98140       -0.67140
C          3.41730       -2.36890       -1.96570
S          3.93050       -3.92120       -2.48310
C          2.99730       -0.74340       -0.11370
C          3.17750       -0.77480        1.26450
C          2.76160        0.42350        1.88300
C          2.29780        1.31790        0.97080
S          2.33640        0.74700       -0.66330
C          3.74290       -2.05110        1.64430
C          4.07630       -2.30550        3.00000
C          4.50050       -3.44330        3.60120
C          4.73400       -3.55700        5.00510
C          4.88760       -4.78030        5.61110
C          4.88920       -4.99980        6.99400
C          4.98970       -3.87400        7.93270
C          4.95470       -2.57860        7.55630
S          4.73820       -2.06280        5.93460
C          5.07970       -4.46470        9.22230
C          4.98990       -5.85150        9.10460
C          5.02970       -6.49560       10.36090
C          5.15310       -5.60180       11.37680
S          5.21360       -3.95020       10.85830
C          4.82790       -6.19770        7.71500
C          4.60960       -7.54190        7.27850
C          3.91070       -7.99780        6.21360
C          3.11910       -7.22450        5.30560
C          2.45910       -6.04720        5.50550
C          1.89410       -5.49190        4.33280
C          1.24640       -4.25110        4.18140
C          1.00830       -3.38340        5.31880
S          1.46040       -1.70480        5.25110
C          1.01070       -1.43000        6.89830
C          1.14360       -0.08030        7.51190
C          0.03400        0.85440        7.02560
C          0.50600       -2.57120        7.44530
Cl        -0.05480       -2.69340        9.06280
C          0.49940       -3.67840        6.55420
Cl        -0.18730       -5.19070        6.99000
C          0.93780       -3.85780        2.88510
C          1.21700       -4.65410        1.74970
C          1.79660       -5.92760        1.90550
C          2.03600       -6.78900        0.76240
S          3.57180       -7.57300        0.52740
C          3.06280       -8.31140       -0.95230
C          3.95820       -9.22850       -1.70950
C          3.80200      -10.66840       -1.21420
C          1.76780       -7.98440       -1.22040
C          1.18270       -7.12220       -0.25450
Cl        -0.46640       -6.64820       -0.34010
Cl         0.90570       -8.55110       -2.59060
C          2.14560       -6.30010        3.19560
S          2.98980       -7.75770        3.63350
C          0.88740       -3.98970        0.54680
C          0.31600       -2.76490        0.73890
S          0.19040       -2.35250        2.43190
C         -0.10270       -1.86560       -0.28500
C          0.21360       -1.96970       -1.60780
C         -0.27670       -0.90550       -2.39370
C         -0.06900       -0.69860       -3.76810
C          0.74830       -1.62440       -4.53800
S          0.38170       -3.32240       -4.61360
C          1.77710       -3.66280       -5.58200
C          2.07870       -5.04620       -6.04410
C          1.90800       -6.07610       -4.93090
C          2.47160       -2.51580       -5.82560
Cl         3.92430       -2.44640       -6.73720
C          1.89070       -1.35830       -5.23830
Cl         2.61610        0.19470       -5.33310
C         -0.65030        0.42750       -4.32620
C         -1.44220        1.32890       -3.57190
C         -1.64130        1.12890       -2.19280
C         -2.52100        2.00300       -1.43200
S         -4.16230        2.26070       -1.95830
C         -4.53790        3.24530       -0.58560
C         -5.90400        3.79860       -0.36560
C         -6.64380        4.06820       -1.67010
C         -3.44150        3.37020        0.21420
C         -2.30130        2.66510       -0.25770
Cl        -0.79620        2.71940        0.54960
Cl        -3.42260        4.28460        1.66900
C         -1.02190        0.02330       -1.62500
S         -1.07000       -0.44940        0.05050
C         -1.92990        2.38970       -4.36490
C         -1.56800        2.30910       -5.68300
S         -0.57350        0.90120       -5.99860
C         -1.89760        3.23630       -6.72140
C         -2.77400        4.26630       -6.50370
C         -3.11000        5.24780       -7.43490
C         -2.67480        5.13920       -8.83410
C         -1.81350        4.19650       -9.27570
S         -1.10070        2.99800       -8.27090
C         -3.34720        6.19280       -9.51140
C         -4.12570        6.91650       -8.60420
C         -4.80410        7.98980       -9.22250
C         -4.53440        8.05130      -10.55250
S         -3.44770        6.82230      -11.10870
C         -3.96120        6.35370       -7.29160
C         -4.54230        6.83970       -6.08710
C         -3.98590        6.63830       -4.86640
C         -4.53620        6.93890       -3.58580
C         -5.78040        7.45730       -3.33720
C         -6.32350        7.66230       -2.06430
C         -5.55420        7.33490       -0.85270
C         -4.29750        6.84270       -0.85130
S         -3.42800        6.48490       -2.28220
C         -6.42060        7.63780        0.22820
C         -7.63800        8.12470       -0.25700
C         -8.54130        8.39450        0.79800
C         -8.00090        8.11640        2.01240
S         -6.37920        7.51420        1.94290
C         -7.58060        8.15410       -1.69490
C         -8.59410        8.58950       -2.61200
C         -9.72070        9.23280       -2.30420
H          4.83730       -5.64680       -1.15390
H          4.74950       -4.67490        1.05400
H          3.08940       -1.72100       -2.76300
H          2.79350        0.61750        2.93970
H          1.92720        2.30710        1.15340
H          3.93970       -1.44100        3.63940
H          4.60520       -4.36440        3.04720
H          4.98510       -5.63690        4.96060
H          5.02360       -1.76450        8.26030
H          4.97270       -7.55870       10.51120
H          5.21300       -5.80540       12.42830
H          5.05120       -8.29240        7.92470
H          3.94890       -9.05790        5.99710
H          2.39550       -5.58810        6.47280
H          1.09140       -0.18360        8.59700
H          2.11480        0.34280        7.24660
H         -0.94020        0.45810        7.30030
H          0.14950        1.83730        7.47450
H          0.07450        0.95560        5.94360
H          4.99480       -8.91200       -1.58320
H          3.70010       -9.17620       -2.76910
H          4.46050      -11.32910       -1.77130
H          2.77660      -11.00280       -1.34890
H          4.05280      -10.73220       -0.15820
H          1.06860       -4.40470       -0.42630
H          0.79900       -2.77610       -2.00460
H          3.10270       -5.06360       -6.42170
H          1.41060       -5.30030       -6.87280
H          2.12410       -7.07230       -5.30700
H          0.88740       -6.06150       -4.55590
H          2.58320       -5.86130       -4.10620
H         -5.81490        4.71690        0.21890
H         -6.48040        3.08620        0.23400
H         -6.80370        3.14020       -2.21450
H         -6.07320        4.74180       -2.30390
H         -7.60850        4.52490       -1.46570
H         -2.50870        3.19420       -3.95280
H         -3.26730        4.29470       -5.54520
H         -1.48920        4.14000      -10.30300
H         -5.45590        8.67900       -8.71680
H         -4.90970        8.75730      -11.26750
H         -5.45650        7.40920       -6.18690
H         -2.99590        6.20420       -4.82850
H         -6.38530        7.70590       -4.19760
H         -3.75660        6.62210        0.05520
H         -9.54410        8.76270        0.68450
H         -8.46070        8.22690        2.97530
H         -8.39240        8.37200       -3.65380
H         -9.97280        9.50540       -1.29590
H        -10.42380        9.52270       -3.06600
