232

C          2.37820      -11.89120        7.91240
C          2.80870      -10.65890        7.57420
C          1.89320       -9.96480        6.73060
C          2.02720       -8.68950        6.15800
C          3.27060       -7.94110        6.20970
S          3.30380       -6.23000        6.52270
C          5.01070       -6.13240        6.27520
C          5.73030       -4.82840        6.30780
C          6.07190       -4.37780        4.88510
C          5.51540       -7.36220        5.97150
Cl         7.17700       -7.66410        5.66440
C          4.53490       -8.38720        5.92630
Cl         4.92020       -9.98610        5.43300
C          0.92590       -8.19950        5.46400
C         -0.24040       -8.96170        5.22060
C         -0.34480      -10.26410        5.73570
C         -1.52090      -11.07690        5.47050
S         -2.05050      -11.36920        3.83920
C         -3.39440      -12.32740        4.36180
C         -4.36200      -12.88740        3.37860
C         -5.22730      -11.78170        2.77020
C         -3.41890      -12.40270        5.72180
C         -2.35650      -11.70000        6.35410
Cl        -2.22070      -11.58530        8.05820
Cl        -4.60850      -13.25770        6.61530
C          0.72120      -10.72660        6.49860
S          0.83310      -12.29230        7.24970
C         -1.19730       -8.24070        4.45930
C         -0.79710       -6.97880        4.14620
S          0.80380       -6.61730        4.75810
C         -1.50540       -5.96660        3.43050
C         -1.28460       -4.62500        3.48910
C         -2.15160       -3.87290        2.66070
C         -2.19090       -2.47860        2.49410
C         -1.40130       -1.59860        3.33790
S         -0.42570       -0.31640        2.68240
C          0.05650        0.22390        4.25250
C          0.92470        1.41910        4.44210
C          1.88400        1.62450        3.27900
C         -0.50420       -0.55990        5.21690
Cl        -0.25650       -0.32610        6.89850
C         -1.32960       -1.59410        4.70470
Cl        -2.21250       -2.65260        5.72680
C         -3.04060       -1.99110        1.51020
C         -3.87080       -2.82570        0.71950
C         -3.87100       -4.21630        0.93130
C         -4.70290       -5.11420        0.14670
S         -5.76200       -6.25290        0.92390
C         -6.29680       -6.90680       -0.58710
C         -7.26270       -8.03890       -0.63000
C         -6.61700       -9.33190       -0.12850
C         -5.67700       -6.27330       -1.62180
C         -4.77700       -5.25280       -1.21110
Cl        -3.82780       -4.35900       -2.32730
Cl        -5.93310       -6.65870       -3.27420
C         -3.01900       -4.70400        1.91250
S         -2.79890       -6.38350        2.32450
C         -4.62660       -2.08140       -0.21800
C         -4.37380       -0.74010       -0.17340
S         -3.24010       -0.31840        1.09020
C         -4.80510        0.26920       -1.08680
C         -5.55400        0.12400       -2.22070
C         -5.60400        1.29360       -3.01900
C         -6.19100        1.46770       -4.28890
C         -6.91390        0.39620       -4.95060
S         -6.24310       -1.20250       -5.09520
C         -7.60890       -1.78530       -5.98590
C         -7.67810       -3.20210       -6.43820
C         -7.50460       -4.17290       -5.27150
C         -8.52220       -0.78790       -6.15180
Cl       -10.01510       -0.97720       -6.97750
C         -8.12990        0.45020       -5.57420
Cl        -9.14240        1.83250       -5.59630
C         -5.97210        2.68580       -4.92460
C         -5.22900        3.73120       -4.32760
C         -4.67880        3.57770       -3.04760
C         -3.76650        4.57870       -2.51100
S         -4.20660        6.22860       -2.19550
C         -2.58530        6.65750       -1.75460
C         -2.24720        8.03030       -1.28870
C         -2.49400        8.17440        0.21500
C         -1.76510        5.57300       -1.84650
C         -2.43390        4.39680       -2.27480
Cl        -1.62510        2.91670       -2.53460
Cl        -0.07740        5.59530       -1.52320
C         -4.87450        2.35550       -2.42560
S         -4.18920        1.89330       -0.90040
C         -4.94360        4.77330       -5.23790
C         -5.39400        4.53620       -6.50240
S         -6.33390        3.05840       -6.59280
C         -4.93100        5.26440       -7.65610
C         -3.63840        5.70870       -7.64160
C         -2.99730        6.36800       -8.69090
C         -3.75110        6.81220       -9.87010
C         -5.03490        6.45590      -10.10090
S         -5.97540        5.46990       -9.04780
C         -2.82350        7.58810      -10.61820
C         -1.58380        7.60180       -9.96900
C         -0.61660        8.34060      -10.68470
C         -1.13130        8.86110      -11.82930
S         -2.79860        8.47440      -12.09220
C         -1.67180        6.80630       -8.77510
C         -0.62940        6.48270       -7.85050
C         -0.62300        5.30580       -7.18210
C          0.23080        4.88610       -6.12130
C          1.21000        5.52930       -5.41720
C          1.77430        4.74510       -4.38070
C          2.75780        5.12380       -3.44620
C          3.36710        6.44300       -3.46700
S          4.11500        7.06710       -4.90970
C          4.60810        8.52670       -4.12200
C          5.40530        9.56280       -4.83450
C          6.90490        9.29470       -4.68660
C          4.21430        8.51400       -2.81790
Cl         4.52470        9.79170       -1.71520
C          3.50810        7.33920       -2.44350
Cl         2.84000        7.13990       -0.87840
C          3.13680        4.17160       -2.50870
C          2.56520        2.87670       -2.45170
C          1.52020        2.52160       -3.32440
C          0.81690        1.26010       -3.17820
S          0.34150        0.33100       -4.57300
C         -0.45510       -0.86460       -3.61420
C         -1.23480       -1.97170       -4.23180
C         -2.71350       -1.58330       -4.32700
C         -0.34420       -0.55760       -2.29120
C          0.36350        0.64610       -2.03610
Cl         0.45230        1.28940       -0.44770
Cl        -0.98600       -1.54140       -1.03900
C          1.17950        3.45920       -4.29450
S         -0.04580        3.26320       -5.50790
C          3.18100        2.07450       -1.46480
C          4.14080        2.72560       -0.74830
S          4.38500        4.36550       -1.30700
C          4.80660        2.22110        0.40570
C          5.75750        2.81140        1.18120
C          6.08280        2.06160        2.34150
C          6.98860        2.38900        3.36400
C          7.74720        3.62890        3.32400
S          6.94300        5.16270        3.15740
C          8.43410        6.04080        3.20060
C          8.45330        7.52130        3.04610
C          8.10040        7.93040        1.61450
C          9.48310        5.18140        3.33230
Cl        11.12570        5.67350        3.40340
C          9.09820        3.81480        3.40880
Cl        10.24290        2.54340        3.50500
C          7.10220        1.48950        4.41830
C          6.33180        0.30420        4.51080
C          5.40830       -0.01060        3.50220
C          4.49650       -1.13990        3.59380
S          4.25030       -2.20170        2.23870
C          2.99830       -3.08060        3.04870
C          2.26930       -4.17070        2.34680
C          1.32240       -3.59600        1.29140
C          2.79680       -2.57380        4.29800
C          3.64520       -1.47670        4.61150
Cl         3.51330       -0.62560        6.09580
Cl         1.64250       -3.18090        5.41530
C          5.34210        0.85840        2.41840
S          4.28930        0.67520        1.04630
C          6.63900       -0.42790        5.69410
C          7.56040        0.18470        6.46510
S          8.12810        1.68030        5.81130
H          2.87170      -12.61360        8.53280
H          3.73150      -10.23440        7.92340
H          6.65140       -4.93710        6.88530
H          5.09840       -4.08300        6.79270
H          5.16380       -4.27010        4.29730
H          6.71210       -5.11070        4.40230
H          6.59380       -3.42490        4.90190
H         -4.99390      -13.61520        3.88970
H         -3.81740      -13.39770        2.58130
H         -5.78800      -11.27010        3.54860
H         -5.92880      -12.20550        2.05680
H         -4.60210      -11.05530        2.25620
H         -2.15830       -8.63040        4.17670
H         -0.52170       -4.18870        4.10640
H          1.48030        1.29630        5.37430
H          0.28910        2.30420        4.55380
H          1.33600        1.81380        2.35900
H          2.54210        2.46830        3.47120
H          2.48920        0.73360        3.13820
H         -8.12650       -7.80320       -0.00440
H         -7.60370       -8.16710       -1.65850
H         -6.27880       -9.20950        0.89760
H         -7.33520      -10.14630       -0.16520
H         -5.76210       -9.59240       -0.74750
H         -5.31800       -2.52470       -0.90930
H         -6.02460       -0.80210       -2.49180
H         -8.64320       -3.36200       -6.92150
H         -6.89220       -3.38530       -7.17640
H         -8.28250       -4.01740       -4.52770
H         -7.56410       -5.19850       -5.62550
H         -6.53710       -4.02400       -4.79780
H         -1.19410        8.22070       -1.50480
H         -2.85440        8.75870       -1.82880
H         -1.88590        7.46120        0.76550
H         -3.54070        7.99080        0.44570
H         -2.23500        9.17820        0.54070
H         -4.38650        5.65020       -4.96480
H         -3.06760        5.52480       -6.74430
H         -5.56980        6.75170      -10.98970
H          0.40250        8.48120      -10.37290
H         -0.62960        9.46340      -12.56130
H          0.16510        7.20310       -7.71040
H         -1.35020        4.55800       -7.46990
H          1.51380        6.53870       -5.62440
H          5.13740        9.56220       -5.89230
H          5.16730       10.54120       -4.41220
H          7.47400       10.05870       -5.20920
H          7.18700        9.30590       -3.63690
H          7.15770        8.32310       -5.10430
H         -1.13400       -2.86800       -3.61620
H         -0.84430       -2.18260       -5.22800
H         -2.83340       -0.68600       -4.92930
H         -3.11840       -1.38940       -3.33670
H         -3.28550       -2.38650       -4.78280
H          2.93960        1.04270       -1.29040
H          6.19690        3.76070        0.93450
H          7.73390        7.96880        3.73560
H          9.45060        7.88360        3.30060
H          8.12160        9.01260        1.51960
H          7.10510        7.57680        1.35510
H          8.81420        7.50530        0.91300
H          2.98630       -4.83690        1.86240
H          1.70520       -4.74640        3.08110
H          1.88370       -3.04820        0.53820
H          0.77260       -4.39740        0.80520
H          0.60990       -2.91550        1.74930
H          6.18920       -1.37120        5.94110
H          7.96490       -0.15160        7.39980
