188

C         -1.89810       -0.26170      -17.67330
C         -0.99180       -0.03530      -16.69690
C          0.18250        0.72120      -16.88600
C          0.47660        1.31640      -18.19480
C         -0.30900        1.20070      -19.28850
S         -1.78500        0.32500      -19.30090
C          1.71130        1.99900      -18.02170
C          2.16190        1.84880      -16.71010
C          3.39160        2.51490      -16.50650
C          3.82500        3.13490      -17.63560
S          2.77190        2.94190      -18.99250
C          1.20220        1.04440      -15.98550
C          1.23010        0.64330      -14.62580
C          2.16170        0.96150      -13.69740
C          2.08880        0.54440      -12.34110
C          2.95010        0.86860      -11.32830
C          2.58360        0.33980      -10.06960
C          3.24910        0.47620       -8.83800
C          4.42290        1.32220       -8.70680
S          5.90370        0.72610       -8.01800
C          6.70060        2.24840       -8.21850
C          8.13340        2.42640       -7.85460
C          9.04220        2.10060       -9.04250
C          5.85700        3.15420       -8.78930
Cl         6.29290        4.77700       -9.13970
C          4.56390        2.63510       -9.06320
Cl         3.29610        3.60100       -9.70240
C          2.72500       -0.21720       -7.75530
C          1.55420       -1.00830       -7.84010
C          0.86420       -1.11400       -9.06220
C         -0.35220       -1.90190       -9.17830
S         -0.39220       -3.57720       -8.70890
C         -2.05090       -3.75090       -9.17090
C         -2.74850       -5.06310       -9.08170
C         -2.59530       -5.85060      -10.38530
C         -2.53000       -2.57260       -9.65920
C         -1.57320       -1.52200       -9.66180
Cl        -1.96510        0.07390      -10.14840
Cl        -4.13950       -2.35440      -10.21250
C          1.40060       -0.43980      -10.14860
S          0.77660       -0.47430      -11.77020
C          1.19230       -1.55410       -6.58690
C          2.04080       -1.20540       -5.57500
S          3.34700       -0.18130       -6.13000
C          1.91010       -1.54690       -4.19550
C          1.01370       -2.41870       -3.64690
C          1.05980       -2.46270       -2.23370
C          0.23060       -3.18940       -1.36040
C         -0.79870       -4.08760       -1.85610
S         -1.97280       -3.56800       -3.03060
C         -2.76700       -5.10630       -3.03920
C         -3.91980       -5.36850       -3.94390
C         -3.45740       -5.50830       -5.39580
C         -2.14380       -5.96250       -2.18240
Cl        -2.63300       -7.58660       -1.92370
C         -1.03370       -5.38820       -1.50480
Cl        -0.05270       -6.29160       -0.42910
C          0.40910       -2.97300        0.00010
C          1.40590       -2.10950        0.52040
C          2.29220       -1.45060       -0.35100
C          3.37590       -0.61700        0.14180
S          3.12170        0.65030        1.30750
C          4.79390        1.09440        1.31460
C          5.31700        2.15000        2.22450
C          5.78710        1.53570        3.54580
C          5.49670        0.29450        0.46470
C          4.69880       -0.67140       -0.20460
Cl         5.37730       -1.83960       -1.25830
Cl         7.18810        0.42670        0.21160
C          2.07400       -1.62010       -1.71260
S          2.90860       -0.77760       -2.98470
C          1.32670       -2.00500        1.92880
C          0.29670       -2.71700        2.47210
S         -0.59360       -3.61710        1.26740
C         -0.11870       -2.70160        3.83860
C          0.20620       -1.75020        4.76250
C         -0.42960       -1.93580        6.01130
C         -0.38030       -1.09690        7.14070
C          0.37370        0.14660        7.12100
S          0.14390        1.30210        5.83830
C          1.29380        2.40570        6.51390
C          1.64160        3.67170        5.81100
C          2.57010        3.40210        4.62500
C          1.81680        1.89670        7.66470
Cl         2.99370        2.70000        8.62260
C          1.29360        0.62110        8.01460
Cl         1.85830       -0.24900        9.37870
C         -1.12740       -1.48900        8.24170
C         -1.90060       -2.67730        8.27420
C         -1.94440       -3.51560        7.14620
C         -2.74390       -4.72900        7.13250
S         -4.43770       -4.70140        7.52910
C         -4.61390       -6.39990        7.24600
C         -5.91570       -7.08580        7.47120
C         -6.14760       -7.34250        8.96200
C         -3.41990       -6.94350        6.87850
C         -2.35970       -5.99970        6.80540
Cl        -0.75140       -6.45480        6.42820
Cl        -3.19210       -8.60740        6.52670
C         -1.21670       -3.11380        6.03270
S         -1.20120       -3.91060        4.48570
C         -2.56320       -2.84480        9.51340
C         -2.35350       -1.82050       10.39280
S         -1.29760       -0.58930        9.71760
C         -2.85690       -1.66260       11.71900
C         -2.54650       -0.57120       12.48580
C         -2.98420       -0.35050       13.78970
C         -3.84220       -1.32310       14.47320
C         -4.28030       -2.46860       13.90860
S         -3.89350       -2.96120       12.30650
C         -4.06030       -0.77300       15.76620
C         -3.39430        0.44990       15.88900
C         -3.59870        1.02800       17.16230
C         -4.38780        0.25080       17.94910
S         -4.91960       -1.20960       17.18870
C         -2.71320        0.72940       14.64930
C         -1.92370        1.83930       14.27280
C         -1.54980        2.89790       15.03510
C         -0.75900        3.98830       14.56400
C         -0.39630        4.19590       13.25640
C          0.38870        5.25170       12.79080
C          0.90960        6.27530       13.70970
C          0.66590        6.29120       15.03750
S         -0.27500        5.10450       15.84320
C          1.64610        7.16630       12.88720
C          1.58460        6.74630       11.55390
C          2.33500        7.59670       10.70810
C          2.91650        8.61190       11.39690
S          2.59050        8.58790       13.09760
C          0.78900        5.55130       11.48260
C          0.42620        4.79260       10.32040
C          0.54820        5.17940        9.05040
H         -2.79050       -0.84200      -17.51080
H         -1.18650       -0.45980      -15.72190
H         -0.05840        1.65560      -20.23360
H          3.94450        2.54710      -15.58600
H          4.72120        3.71010      -17.76410
H          0.40200        0.02430      -14.30120
H          3.00800        1.58220      -13.94690
H          3.82920        1.46630      -11.48590
H          8.29280        3.46200       -7.54780
H          8.37720        1.77070       -7.01750
H          8.89270        1.07150       -9.36050
H         10.08390        2.23240       -8.76310
H          8.81950        2.75910       -9.87830
H         -3.80790       -4.88510       -8.88700
H         -2.33120       -5.64040       -8.25580
H         -3.11020       -6.80420      -10.30780
H         -3.01940       -5.29120      -11.21510
H         -1.54420       -6.03650      -10.59240
H          0.31910       -2.16050       -6.43620
H          0.33500       -3.00490       -4.23640
H         -4.63490       -4.54650       -3.87130
H         -4.41090       -6.28790       -3.62170
H         -2.74910       -6.32830       -5.48690
H         -2.97570       -4.59130       -5.72760
H         -4.30890       -5.70890       -6.04040
H          4.53430        2.88420        2.41840
H          6.15720        2.64910        1.73810
H          6.58520        0.82070        3.36430
H          6.16050        2.31200        4.20820
H          4.96550        1.01930        4.03690
H          2.00240       -1.41620        2.51940
H          0.85740       -0.92580        4.54230
H          0.72930        4.15270        5.45240
H          2.13630        4.33810        6.51930
H          2.80830        4.33570        4.12210
H          2.09290        2.73210        3.91280
H          3.49330        2.94570        4.97180
H         -6.72560       -6.46710        7.08010
H         -5.90740       -8.03410        6.93120
H         -5.35330       -7.96590        9.36490
H         -7.09730       -7.84920        9.11050
H         -6.16340       -6.40220        9.50820
H         -3.17510       -3.69600        9.75020
H         -1.90120        0.16400       12.02320
H         -4.91390       -3.16970       14.42850
H         -3.19540        1.96680       17.49430
H         -4.70310        0.44380       18.95600
H         -1.58230        1.81020       13.24780
H         -1.83340        2.93870       16.07610
H         -0.75550        3.48630       12.52580
H          1.04630        7.06010       15.69140
H          2.45930        7.46960        9.64840
H          3.53620        9.39750       11.01020
H         -0.01100        3.82190       10.52040
H          0.94670        6.13920        8.77550
H          0.22620        4.54360        8.24420
