
  xtb     03032203083D
 energy: -211.630817713791 gnorm: 0.000167968774 xtb: 6.4.1 (unknown)
147159  0     0  0            999 V2000
    1.4696    7.4938    1.2003 C   0  0  0  0  0  0  0  0  0  0  0  0
    0.7886    6.1440    1.9914 S   0  0  0  0  0  0  0  0  0  0  0  0
    0.0123    5.5806    0.5395 C   0  0  0  0  0  0  0  0  0  0  0  0
    0.2511    6.4703   -0.5115 C   0  0  0  0  0  0  0  0  0  0  0  0
    1.1111    7.5518   -0.1295 C   0  0  0  0  0  0  0  0  0  0  0  0
    1.4814    8.5285   -1.0812 C   0  0  0  0  0  0  0  0  0  0  0  0
    0.9922    8.4855   -2.3582 C   0  0  0  0  0  0  0  0  0  0  0  0
    1.4313    9.5374   -3.3672 C   0  0  0  0  0  0  0  0  0  0  0  0
    1.0228   10.9259   -2.8557 C   0  0  0  0  0  0  0  0  0  0  0  0
    2.9577    9.4689   -3.5210 C   0  0  0  0  0  0  0  0  0  0  0  0
    0.8075    9.3366   -4.7510 C   0  0  0  0  0  0  0  0  0  0  0  0
    0.0666    7.4625   -2.6918 C   0  0  0  0  0  0  0  0  0  0  0  0
   -0.3009    6.4898   -1.8087 C   0  0  0  0  0  0  0  0  0  0  0  0
   -0.7148    4.3626    0.5576 C   0  0  0  0  0  0  0  0  0  0  0  0
   -1.6266    3.9193    1.9630 S   0  0  0  0  0  0  0  0  0  0  0  0
   -2.1879    2.4245    1.2638 C   0  0  0  0  0  0  0  0  0  0  0  0
   -1.6521    2.2792   -0.0312 C   0  0  0  0  0  0  0  0  0  0  0  0
   -0.8147    3.3666   -0.4215 C   0  0  0  0  0  0  0  0  0  0  0  0
   -0.1432    3.3363   -1.6607 C   0  0  0  0  0  0  0  0  0  0  0  0
   -0.3675    2.3255   -2.5559 C   0  0  0  0  0  0  0  0  0  0  0  0
    0.2649    2.2986   -3.9370 C   0  0  0  0  0  0  0  0  0  0  0  0
    1.0508    0.9951   -4.1195 C   0  0  0  0  0  0  0  0  0  0  0  0
    1.2227    3.4708   -4.1685 C   0  0  0  0  0  0  0  0  0  0  0  0
   -0.8556    2.3804   -4.9842 C   0  0  0  0  0  0  0  0  0  0  0  0
   -1.2577    1.2882   -2.1858 C   0  0  0  0  0  0  0  0  0  0  0  0
   -1.8653    1.2468   -0.9643 C   0  0  0  0  0  0  0  0  0  0  0  0
   -3.0086    1.5433    1.9957 C   0  0  0  0  0  0  0  0  0  0  0  0
   -3.0621   -0.1499    1.6042 S   0  0  0  0  0  0  0  0  0  0  0  0
   -4.1575   -0.5346    2.9038 C   0  0  0  0  0  0  0  0  0  0  0  0
   -4.4704    0.6280    3.6243 C   0  0  0  0  0  0  0  0  0  0  0  0
   -3.8218    1.7954    3.1199 C   0  0  0  0  0  0  0  0  0  0  0  0
   -4.0583    3.0402    3.7315 C   0  0  0  0  0  0  0  0  0  0  0  0
   -4.8492    3.1476    4.8458 C   0  0  0  0  0  0  0  0  0  0  0  0
   -5.1055    4.4704    5.5474 C   0  0  0  0  0  0  0  0  0  0  0  0
   -6.6153    4.7469    5.5679 C   0  0  0  0  0  0  0  0  0  0  0  0
   -4.5721    4.3784    6.9844 C   0  0  0  0  0  0  0  0  0  0  0  0
   -4.4125    5.6479    4.8564 C   0  0  0  0  0  0  0  0  0  0  0  0
   -5.4346    1.9714    5.3679 C   0  0  0  0  0  0  0  0  0  0  0  0
   -5.2688    0.7532    4.7771 C   0  0  0  0  0  0  0  0  0  0  0  0
   -4.5711   -1.8840    3.0497 C   0  0  0  0  0  0  0  0  0  0  0  0
   -3.8281   -2.9182    2.5198 C   0  0  0  0  0  0  0  0  0  0  0  0
   -4.1505   -4.2695    2.5739 C   0  0  0  0  0  0  0  0  0  0  0  0
   -5.3499   -4.7259    3.2926 C   0  0  0  0  0  0  0  0  0  0  0  0
   -6.2393   -3.8985    3.8772 C   0  0  0  0  0  0  0  0  0  0  0  0
   -6.1033   -2.1847    3.8751 S   0  0  0  0  0  0  0  0  0  0  0  0
   -5.3007   -6.1464    3.2504 C   0  0  0  0  0  0  0  0  0  0  0  0
   -4.1550   -6.5543    2.5714 C   0  0  0  0  0  0  0  0  0  0  0  0
   -4.0475   -7.9613    2.5058 C   0  0  0  0  0  0  0  0  0  0  0  0
   -5.0912   -8.5718    3.1250 C   0  0  0  0  0  0  0  0  0  0  0  0
   -6.2437   -7.4731    3.8085 S   0  0  0  0  0  0  0  0  0  0  0  0
   -3.4289   -5.3936    2.1209 C   0  0  0  0  0  0  0  0  0  0  0  0
   -2.2093   -5.4723    1.4143 C   0  0  0  0  0  0  0  0  0  0  0  0
   -1.6341   -4.4873    0.6650 C   0  0  0  0  0  0  0  0  0  0  0  0
   -0.3559   -4.5367    0.0735 C   0  0  0  0  0  0  0  0  0  0  0  0
   -0.0301   -3.4893   -1.2770 S   0  0  0  0  0  0  0  0  0  0  0  0
    1.5746   -4.1107   -1.5026 C   0  0  0  0  0  0  0  0  0  0  0  0
    1.8819   -5.0386   -0.4978 C   0  0  0  0  0  0  0  0  0  0  0  0
    0.7914   -5.2878    0.3904 C   0  0  0  0  0  0  0  0  0  0  0  0
    0.9881   -6.1281    1.4995 C   0  0  0  0  0  0  0  0  0  0  0  0
    2.1959   -6.7427    1.7281 C   0  0  0  0  0  0  0  0  0  0  0  0
    2.3530   -7.6453    2.9433 C   0  0  0  0  0  0  0  0  0  0  0  0
    1.2787   -8.7419    2.9025 C   0  0  0  0  0  0  0  0  0  0  0  0
    2.1812   -6.7996    4.2133 C   0  0  0  0  0  0  0  0  0  0  0  0
    3.7222   -8.3282    3.0023 C   0  0  0  0  0  0  0  0  0  0  0  0
    3.2673   -6.4682    0.8497 C   0  0  0  0  0  0  0  0  0  0  0  0
    3.1299   -5.6269   -0.2176 C   0  0  0  0  0  0  0  0  0  0  0  0
    2.3735   -3.6452   -2.5761 C   0  0  0  0  0  0  0  0  0  0  0  0
    2.2433   -1.9919   -3.0948 S   0  0  0  0  0  0  0  0  0  0  0  0
    3.4541   -2.1820   -4.2828 C   0  0  0  0  0  0  0  0  0  0  0  0
    3.9470   -3.4678   -4.3160 C   0  0  0  0  0  0  0  0  0  0  0  0
    3.3167   -4.3249   -3.3551 C   0  0  0  0  0  0  0  0  0  0  0  0
    3.6304   -5.6973   -3.3466 C   0  0  0  0  0  0  0  0  0  0  0  0
    4.5995   -6.2077   -4.1716 C   0  0  0  0  0  0  0  0  0  0  0  0
    4.9280   -7.6922   -4.0973 C   0  0  0  0  0  0  0  0  0  0  0  0
    6.0598   -8.1017   -5.0437 C   0  0  0  0  0  0  0  0  0  0  0  0
    3.6774   -8.5019   -4.4679 C   0  0  0  0  0  0  0  0  0  0  0  0
    5.3602   -8.0356   -2.6637 C   0  0  0  0  0  0  0  0  0  0  0  0
    5.2617   -5.3312   -5.0697 C   0  0  0  0  0  0  0  0  0  0  0  0
    4.9409   -4.0110   -5.1614 C   0  0  0  0  0  0  0  0  0  0  0  0
    2.0924    8.1729    1.7473 H   0  0  0  0  0  0  0  0  0  0  0  0
    2.1554    9.3078   -0.7593 H   0  0  0  0  0  0  0  0  0  0  0  0
   -0.0555   10.9741   -2.7180 H   0  0  0  0  0  0  0  0  0  0  0  0
    1.3140   11.6904   -3.5730 H   0  0  0  0  0  0  0  0  0  0  0  0
    1.4975   11.1527   -1.9051 H   0  0  0  0  0  0  0  0  0  0  0  0
    3.2571    8.4806   -3.8642 H   0  0  0  0  0  0  0  0  0  0  0  0
    3.2949   10.2039   -4.2489 H   0  0  0  0  0  0  0  0  0  0  0  0
    3.4602    9.6683   -2.5786 H   0  0  0  0  0  0  0  0  0  0  0  0
    1.1787   10.1036   -5.4280 H   0  0  0  0  0  0  0  0  0  0  0  0
   -0.2760    9.4237   -4.7112 H   0  0  0  0  0  0  0  0  0  0  0  0
    1.0747    8.3669   -5.1650 H   0  0  0  0  0  0  0  0  0  0  0  0
   -0.3774    7.4500   -3.6733 H   0  0  0  0  0  0  0  0  0  0  0  0
   -1.0314    5.7458   -2.0882 H   0  0  0  0  0  0  0  0  0  0  0  0
    0.5510    4.1306   -1.8713 H   0  0  0  0  0  0  0  0  0  0  0  0
    1.8303    0.9179   -3.3647 H   0  0  0  0  0  0  0  0  0  0  0  0
    1.5165    0.9742   -5.1026 H   0  0  0  0  0  0  0  0  0  0  0  0
    0.4071    0.1251   -4.0311 H   0  0  0  0  0  0  0  0  0  0  0  0
    0.7064    4.4250   -4.0907 H   0  0  0  0  0  0  0  0  0  0  0  0
    2.0421    3.4527   -3.4535 H   0  0  0  0  0  0  0  0  0  0  0  0
    1.6467    3.3988   -5.1681 H   0  0  0  0  0  0  0  0  0  0  0  0
   -1.4287    3.2961   -4.8522 H   0  0  0  0  0  0  0  0  0  0  0  0
   -1.5363    1.5376   -4.9022 H   0  0  0  0  0  0  0  0  0  0  0  0
   -0.4320    2.3803   -5.9863 H   0  0  0  0  0  0  0  0  0  0  0  0
   -1.4553    0.4881   -2.8820 H   0  0  0  0  0  0  0  0  0  0  0  0
   -2.5220    0.4267   -0.7230 H   0  0  0  0  0  0  0  0  0  0  0  0
   -3.6056    3.9139    3.2994 H   0  0  0  0  0  0  0  0  0  0  0  0
   -6.8143    5.6958    6.0615 H   0  0  0  0  0  0  0  0  0  0  0  0
   -7.1565    3.9685    6.0983 H   0  0  0  0  0  0  0  0  0  0  0  0
   -7.0011    4.7987    4.5519 H   0  0  0  0  0  0  0  0  0  0  0  0
   -3.5074    4.1542    6.9750 H   0  0  0  0  0  0  0  0  0  0  0  0
   -4.7211    5.3249    7.4996 H   0  0  0  0  0  0  0  0  0  0  0  0
   -5.0793    3.6010    7.5491 H   0  0  0  0  0  0  0  0  0  0  0  0
   -4.7699    5.7694    3.8365 H   0  0  0  0  0  0  0  0  0  0  0  0
   -4.6305    6.5649    5.4000 H   0  0  0  0  0  0  0  0  0  0  0  0
   -3.3333    5.5145    4.8413 H   0  0  0  0  0  0  0  0  0  0  0  0
   -6.0421    2.0313    6.2576 H   0  0  0  0  0  0  0  0  0  0  0  0
   -5.7386   -0.1178    5.2041 H   0  0  0  0  0  0  0  0  0  0  0  0
   -2.8870   -2.6357    2.0703 H   0  0  0  0  0  0  0  0  0  0  0  0
   -7.1102   -4.2548    4.4042 H   0  0  0  0  0  0  0  0  0  0  0  0
   -3.2476   -8.4979    2.0275 H   0  0  0  0  0  0  0  0  0  0  0  0
   -5.2704   -9.6242    3.2295 H   0  0  0  0  0  0  0  0  0  0  0  0
   -1.7275   -6.4405    1.4442 H   0  0  0  0  0  0  0  0  0  0  0  0
   -2.2152   -3.6076    0.4239 H   0  0  0  0  0  0  0  0  0  0  0  0
    0.1788   -6.2471    2.1999 H   0  0  0  0  0  0  0  0  0  0  0  0
    1.4059   -9.4219    3.7423 H   0  0  0  0  0  0  0  0  0  0  0  0
    0.2785   -8.3216    2.9593 H   0  0  0  0  0  0  0  0  0  0  0  0
    1.3591   -9.3141    1.9802 H   0  0  0  0  0  0  0  0  0  0  0  0
    2.9307   -6.0114    4.2447 H   0  0  0  0  0  0  0  0  0  0  0  0
    2.2974   -7.4226    5.0978 H   0  0  0  0  0  0  0  0  0  0  0  0
    1.1991   -6.3356    4.2485 H   0  0  0  0  0  0  0  0  0  0  0  0
    3.7585   -8.9912    3.8645 H   0  0  0  0  0  0  0  0  0  0  0  0
    3.9003   -8.9255    2.1107 H   0  0  0  0  0  0  0  0  0  0  0  0
    4.5220   -7.5994    3.1103 H   0  0  0  0  0  0  0  0  0  0  0  0
    4.2370   -6.8999    1.0349 H   0  0  0  0  0  0  0  0  0  0  0  0
    3.9838   -5.3790   -0.8289 H   0  0  0  0  0  0  0  0  0  0  0  0
    3.7399   -1.3469   -4.8901 H   0  0  0  0  0  0  0  0  0  0  0  0
    3.0759   -6.3401   -2.6818 H   0  0  0  0  0  0  0  0  0  0  0  0
    6.2555   -9.1665   -4.9325 H   0  0  0  0  0  0  0  0  0  0  0  0
    5.7909   -7.9188   -6.0815 H   0  0  0  0  0  0  0  0  0  0  0  0
    6.9782   -7.5670   -4.8116 H   0  0  0  0  0  0  0  0  0  0  0  0
    2.8576   -8.2963   -3.7851 H   0  0  0  0  0  0  0  0  0  0  0  0
    3.8953   -9.5672   -4.4288 H   0  0  0  0  0  0  0  0  0  0  0  0
    3.3525   -8.2525   -5.4760 H   0  0  0  0  0  0  0  0  0  0  0  0
    4.5613   -7.8465   -1.9519 H   0  0  0  0  0  0  0  0  0  0  0  0
    5.6337   -9.0867   -2.5966 H   0  0  0  0  0  0  0  0  0  0  0  0
    6.2227   -7.4367   -2.3774 H   0  0  0  0  0  0  0  0  0  0  0  0
    6.0291   -5.7175   -5.7198 H   0  0  0  0  0  0  0  0  0  0  0  0
    5.4323   -3.3669   -5.8757 H   0  0  0  0  0  0  0  0  0  0  0  0
  1  2  1  0  0  0  0
  2  3  1  0  0  0  0
  3  4  2  0  0  0  0
  4  5  1  0  0  0  0
  5  6  1  0  0  0  0
  6  7  2  0  0  0  0
  7  8  1  0  0  0  0
  8  9  1  0  0  0  0
  8 10  1  0  0  0  0
  8 11  1  0  0  0  0
  7 12  1  0  0  0  0
 12 13  2  0  0  0  0
  3 14  1  0  0  0  0
 14 15  1  0  0  0  0
 15 16  1  0  0  0  0
 16 17  2  0  0  0  0
 17 18  1  0  0  0  0
 18 19  1  0  0  0  0
 19 20  2  0  0  0  0
 20 21  1  0  0  0  0
 21 22  1  0  0  0  0
 21 23  1  0  0  0  0
 21 24  1  0  0  0  0
 20 25  1  0  0  0  0
 25 26  2  0  0  0  0
 16 27  1  0  0  0  0
 27 28  1  0  0  0  0
 28 29  1  0  0  0  0
 29 30  2  0  0  0  0
 30 31  1  0  0  0  0
 31 32  1  0  0  0  0
 32 33  2  0  0  0  0
 33 34  1  0  0  0  0
 34 35  1  0  0  0  0
 34 36  1  0  0  0  0
 34 37  1  0  0  0  0
 33 38  1  0  0  0  0
 38 39  2  0  0  0  0
 29 40  1  0  0  0  0
 40 41  2  0  0  0  0
 41 42  1  0  0  0  0
 42 43  1  0  0  0  0
 43 44  2  0  0  0  0
 44 45  1  0  0  0  0
 43 46  1  0  0  0  0
 46 47  2  0  0  0  0
 47 48  1  0  0  0  0
 48 49  2  0  0  0  0
 49 50  1  0  0  0  0
 47 51  1  0  0  0  0
 51 52  1  0  0  0  0
 52 53  2  0  0  0  0
 53 54  1  0  0  0  0
 54 55  1  0  0  0  0
 55 56  1  0  0  0  0
 56 57  2  0  0  0  0
 57 58  1  0  0  0  0
 58 59  1  0  0  0  0
 59 60  2  0  0  0  0
 60 61  1  0  0  0  0
 61 62  1  0  0  0  0
 61 63  1  0  0  0  0
 61 64  1  0  0  0  0
 60 65  1  0  0  0  0
 65 66  2  0  0  0  0
 56 67  1  0  0  0  0
 67 68  1  0  0  0  0
 68 69  1  0  0  0  0
 69 70  2  0  0  0  0
 70 71  1  0  0  0  0
 71 72  1  0  0  0  0
 72 73  2  0  0  0  0
 73 74  1  0  0  0  0
 74 75  1  0  0  0  0
 74 76  1  0  0  0  0
 74 77  1  0  0  0  0
 73 78  1  0  0  0  0
 78 79  2  0  0  0  0
  5  1  2  0  0  0  0
 18 14  2  0  0  0  0
 31 27  2  0  0  0  0
 45 40  1  0  0  0  0
 50 46  1  0  0  0  0
 58 54  2  0  0  0  0
 71 67  2  0  0  0  0
 13  4  1  0  0  0  0
 26 17  1  0  0  0  0
 39 30  1  0  0  0  0
 51 42  2  0  0  0  0
 66 57  1  0  0  0  0
 79 70  1  0  0  0  0
  1 80  1  0  0  0  0
  6 81  1  0  0  0  0
  9 82  1  0  0  0  0
  9 83  1  0  0  0  0
  9 84  1  0  0  0  0
 10 85  1  0  0  0  0
 10 86  1  0  0  0  0
 10 87  1  0  0  0  0
 11 88  1  0  0  0  0
 11 89  1  0  0  0  0
 11 90  1  0  0  0  0
 12 91  1  0  0  0  0
 13 92  1  0  0  0  0
 19 93  1  0  0  0  0
 22 94  1  0  0  0  0
 22 95  1  0  0  0  0
 22 96  1  0  0  0  0
 23 97  1  0  0  0  0
 23 98  1  0  0  0  0
 23 99  1  0  0  0  0
 24100  1  0  0  0  0
 24101  1  0  0  0  0
 24102  1  0  0  0  0
 25103  1  0  0  0  0
 26104  1  0  0  0  0
 32105  1  0  0  0  0
 35106  1  0  0  0  0
 35107  1  0  0  0  0
 35108  1  0  0  0  0
 36109  1  0  0  0  0
 36110  1  0  0  0  0
 36111  1  0  0  0  0
 37112  1  0  0  0  0
 37113  1  0  0  0  0
 37114  1  0  0  0  0
 38115  1  0  0  0  0
 39116  1  0  0  0  0
 41117  1  0  0  0  0
 44118  1  0  0  0  0
 48119  1  0  0  0  0
 49120  1  0  0  0  0
 52121  1  0  0  0  0
 53122  1  0  0  0  0
 59123  1  0  0  0  0
 62124  1  0  0  0  0
 62125  1  0  0  0  0
 62126  1  0  0  0  0
 63127  1  0  0  0  0
 63128  1  0  0  0  0
 63129  1  0  0  0  0
 64130  1  0  0  0  0
 64131  1  0  0  0  0
 64132  1  0  0  0  0
 65133  1  0  0  0  0
 66134  1  0  0  0  0
 69135  1  0  0  0  0
 72136  1  0  0  0  0
 75137  1  0  0  0  0
 75138  1  0  0  0  0
 75139  1  0  0  0  0
 76140  1  0  0  0  0
 76141  1  0  0  0  0
 76142  1  0  0  0  0
 77143  1  0  0  0  0
 77144  1  0  0  0  0
 77145  1  0  0  0  0
 78146  1  0  0  0  0
 79147  1  0  0  0  0
M  END
