
  xtb     03022209543D
 energy: -163.314999984038 gnorm: 0.000431458077 xtb: 6.4.1 (unknown)
112124  0     0  0            999 V2000
   14.6304   -1.4920   -5.8286 C   0  0  0  0  0  0  0  0  0  0  0  0
   13.4006   -1.2389   -6.1492 C   0  0  0  0  0  0  0  0  0  0  0  0
   12.1688   -0.9842   -6.4636 C   0  0  0  0  0  0  0  0  0  0  0  0
   11.6110   -1.0096   -7.8834 C   0  0  0  0  0  0  0  0  0  0  0  0
   10.1823   -0.6630   -7.6477 C   0  0  0  0  0  0  0  0  0  0  0  0
    9.8969   -0.4529   -6.3539 C   0  0  0  0  0  0  0  0  0  0  0  0
   11.0788   -0.6208   -5.4611 C   0  0  0  0  0  0  0  0  0  0  0  0
    8.4913   -0.1219   -6.2016 C   0  0  0  0  0  0  0  0  0  0  0  0
    7.9363   -0.1388   -7.4368 C   0  0  0  0  0  0  0  0  0  0  0  0
    8.9600   -0.4848   -8.4798 C   0  0  0  0  0  0  0  0  0  0  0  0
    7.8671    0.1654   -4.9258 C   0  0  0  0  0  0  0  0  0  0  0  0
    6.5981    0.4251   -4.7487 C   0  0  0  0  0  0  0  0  0  0  0  0
    5.3425    0.6687   -4.5459 C   0  0  0  0  0  0  0  0  0  0  0  0
    4.7103    2.0583   -4.5467 C   0  0  0  0  0  0  0  0  0  0  0  0
    3.3449    1.7615   -4.0326 C   0  0  0  0  0  0  0  0  0  0  0  0
    3.1233    0.4503   -3.8531 C   0  0  0  0  0  0  0  0  0  0  0  0
    4.2986   -0.3933   -4.2115 C   0  0  0  0  0  0  0  0  0  0  0  0
    1.7897    0.2407   -3.3194 C   0  0  0  0  0  0  0  0  0  0  0  0
    1.2112    1.4574   -3.1863 C   0  0  0  0  0  0  0  0  0  0  0  0
    2.1434    2.5462   -3.6346 C   0  0  0  0  0  0  0  0  0  0  0  0
    1.2436   -1.0637   -2.9943 C   0  0  0  0  0  0  0  0  0  0  0  0
    0.2030   -1.2574   -2.2283 C   0  0  0  0  0  0  0  0  0  0  0  0
   -0.7845   -1.4423   -1.4107 C   0  0  0  0  0  0  0  0  0  0  0  0
   -2.2572   -1.5152   -1.7997 C   0  0  0  0  0  0  0  0  0  0  0  0
   -2.9034   -1.7603   -0.4819 C   0  0  0  0  0  0  0  0  0  0  0  0
   -2.0262   -1.8312    0.5326 C   0  0  0  0  0  0  0  0  0  0  0  0
   -0.6150   -1.6429    0.0932 C   0  0  0  0  0  0  0  0  0  0  0  0
   -2.7355   -2.0442    1.7830 C   0  0  0  0  0  0  0  0  0  0  0  0
   -4.0611   -2.1072    1.4873 C   0  0  0  0  0  0  0  0  0  0  0  0
   -4.2923   -1.9379    0.0174 C   0  0  0  0  0  0  0  0  0  0  0  0
   -2.1389   -2.1836    3.0943 C   0  0  0  0  0  0  0  0  0  0  0  0
   -2.8260   -1.9103    4.2381 C   0  0  0  0  0  0  0  0  0  0  0  0
   -2.3442   -2.0968    5.5446 C   0  0  0  0  0  0  0  0  0  0  0  0
   -0.9453   -2.4995    5.7702 C   0  0  0  0  0  0  0  0  0  0  0  0
   -0.0790   -2.8041    4.7812 C   0  0  0  0  0  0  0  0  0  0  0  0
   -0.4819   -2.7773    3.1125 S   0  0  0  0  0  0  0  0  0  0  0  0
   -0.7730   -2.4733    7.1803 C   0  0  0  0  0  0  0  0  0  0  0  0
   -1.9687   -2.0930    7.7899 C   0  0  0  0  0  0  0  0  0  0  0  0
   -1.8626   -2.0630    9.1981 C   0  0  0  0  0  0  0  0  0  0  0  0
   -0.6167   -2.4098    9.6136 C   0  0  0  0  0  0  0  0  0  0  0  0
    0.4754   -2.7904    8.3231 S   0  0  0  0  0  0  0  0  0  0  0  0
   -2.9643   -1.8736    6.7747 C   0  0  0  0  0  0  0  0  0  0  0  0
   -4.3150   -1.4596    7.0120 C   0  0  0  0  0  0  0  0  0  0  0  0
   -5.3324   -1.7183    6.1698 C   0  0  0  0  0  0  0  0  0  0  0  0
   -6.6313   -1.0959    6.2120 C   0  0  0  0  0  0  0  0  0  0  0  0
   -7.3920   -1.1473    5.1425 C   0  0  0  0  0  0  0  0  0  0  0  0
   -7.8834   -1.1622    3.9441 C   0  0  0  0  0  0  0  0  0  0  0  0
   -8.8960   -2.1482    3.3760 C   0  0  0  0  0  0  0  0  0  0  0  0
   -8.7995   -1.8549    1.9175 C   0  0  0  0  0  0  0  0  0  0  0  0
   -8.0021   -0.8111    1.6418 C   0  0  0  0  0  0  0  0  0  0  0  0
   -7.4415   -0.1727    2.8646 C   0  0  0  0  0  0  0  0  0  0  0  0
   -7.9392   -0.6009    0.2061 C   0  0  0  0  0  0  0  0  0  0  0  0
   -8.7308   -1.5336   -0.3743 C   0  0  0  0  0  0  0  0  0  0  0  0
   -9.3580   -2.4244    0.6595 C   0  0  0  0  0  0  0  0  0  0  0  0
   -7.1269    0.3972   -0.4599 C   0  0  0  0  0  0  0  0  0  0  0  0
   -6.2669    1.1592    0.1674 C   0  0  0  0  0  0  0  0  0  0  0  0
   -5.4101    1.8779    0.8215 C   0  0  0  0  0  0  0  0  0  0  0  0
   -3.9647    1.4708    1.0985 C   0  0  0  0  0  0  0  0  0  0  0  0
   -3.4778    2.6263    1.8977 C   0  0  0  0  0  0  0  0  0  0  0  0
   -4.4095    3.5777    2.0785 C   0  0  0  0  0  0  0  0  0  0  0  0
   -5.7105    3.2441    1.4309 C   0  0  0  0  0  0  0  0  0  0  0  0
   -3.8576    4.6563    2.8633 C   0  0  0  0  0  0  0  0  0  0  0  0
   -2.5842    4.3492    3.1590 C   0  0  0  0  0  0  0  0  0  0  0  0
   -2.2106    3.0159    2.5731 C   0  0  0  0  0  0  0  0  0  0  0  0
   15.3801   -0.7165   -5.7866 H   0  0  0  0  0  0  0  0  0  0  0  0
   14.9646   -2.4910   -5.5935 H   0  0  0  0  0  0  0  0  0  0  0  0
   12.1214   -0.2826   -8.5231 H   0  0  0  0  0  0  0  0  0  0  0  0
   11.7374   -1.9950   -8.3426 H   0  0  0  0  0  0  0  0  0  0  0  0
   11.3292    0.2956   -4.9182 H   0  0  0  0  0  0  0  0  0  0  0  0
   10.9376   -1.4162   -4.7233 H   0  0  0  0  0  0  0  0  0  0  0  0
    6.9081    0.0648   -7.6740 H   0  0  0  0  0  0  0  0  0  0  0  0
    8.6887   -1.3927   -9.0240 H   0  0  0  0  0  0  0  0  0  0  0  0
    9.0677    0.3134   -9.2181 H   0  0  0  0  0  0  0  0  0  0  0  0
    8.5304    0.1577   -4.0671 H   0  0  0  0  0  0  0  0  0  0  0  0
    4.6932    2.4816   -5.5568 H   0  0  0  0  0  0  0  0  0  0  0  0
    5.2681    2.7512   -3.9108 H   0  0  0  0  0  0  0  0  0  0  0  0
    4.6310   -1.0332   -3.3902 H   0  0  0  0  0  0  0  0  0  0  0  0
    4.1013   -1.0357   -5.0757 H   0  0  0  0  0  0  0  0  0  0  0  0
    0.2187    1.6520   -2.8230 H   0  0  0  0  0  0  0  0  0  0  0  0
    2.3548    3.2518   -2.8277 H   0  0  0  0  0  0  0  0  0  0  0  0
    1.7224    3.1208   -4.4631 H   0  0  0  0  0  0  0  0  0  0  0  0
    1.7635   -1.9145   -3.4212 H   0  0  0  0  0  0  0  0  0  0  0  0
   -2.5927   -0.5835   -2.2661 H   0  0  0  0  0  0  0  0  0  0  0  0
   -2.4402   -2.3219   -2.5158 H   0  0  0  0  0  0  0  0  0  0  0  0
    0.0117   -2.5133    0.3030 H   0  0  0  0  0  0  0  0  0  0  0  0
   -0.1417   -0.7751    0.5605 H   0  0  0  0  0  0  0  0  0  0  0  0
   -4.8675   -2.2850    2.1751 H   0  0  0  0  0  0  0  0  0  0  0  0
   -4.9353   -1.0793   -0.1942 H   0  0  0  0  0  0  0  0  0  0  0  0
   -4.7857   -2.8144   -0.4086 H   0  0  0  0  0  0  0  0  0  0  0  0
   -3.8114   -1.4854    4.1164 H   0  0  0  0  0  0  0  0  0  0  0  0
    0.9403   -3.1020    4.9717 H   0  0  0  0  0  0  0  0  0  0  0  0
   -2.6602   -1.8010    9.8699 H   0  0  0  0  0  0  0  0  0  0  0  0
   -0.2514   -2.4720   10.6203 H   0  0  0  0  0  0  0  0  0  0  0  0
   -4.4935   -0.8860    7.9138 H   0  0  0  0  0  0  0  0  0  0  0  0
   -5.1708   -2.3775    5.3290 H   0  0  0  0  0  0  0  0  0  0  0  0
   -6.9157   -0.5368    7.0935 H   0  0  0  0  0  0  0  0  0  0  0  0
   -8.6352   -3.1797    3.6281 H   0  0  0  0  0  0  0  0  0  0  0  0
   -9.8995   -1.9566    3.7714 H   0  0  0  0  0  0  0  0  0  0  0  0
   -6.3558   -0.0625    2.8436 H   0  0  0  0  0  0  0  0  0  0  0  0
   -7.8703    0.8203    3.0315 H   0  0  0  0  0  0  0  0  0  0  0  0
   -8.9044   -1.6594   -1.4281 H   0  0  0  0  0  0  0  0  0  0  0  0
  -10.4490   -2.3755    0.6275 H   0  0  0  0  0  0  0  0  0  0  0  0
   -9.0781   -3.4700    0.5100 H   0  0  0  0  0  0  0  0  0  0  0  0
   -7.2446    0.4720   -1.5356 H   0  0  0  0  0  0  0  0  0  0  0  0
   -3.4020    1.3310    0.1702 H   0  0  0  0  0  0  0  0  0  0  0  0
   -3.9141    0.5270    1.6506 H   0  0  0  0  0  0  0  0  0  0  0  0
   -6.5336    3.1849    2.1485 H   0  0  0  0  0  0  0  0  0  0  0  0
   -5.9940    3.9679    0.6614 H   0  0  0  0  0  0  0  0  0  0  0  0
   -4.3906    5.5446    3.1516 H   0  0  0  0  0  0  0  0  0  0  0  0
   -1.8927    4.9409    3.7310 H   0  0  0  0  0  0  0  0  0  0  0  0
   -1.9174    2.3054    3.3490 H   0  0  0  0  0  0  0  0  0  0  0  0
   -1.3722    3.1023    1.8790 H   0  0  0  0  0  0  0  0  0  0  0  0
  1  2  2  0  0  0  0
  2  3  2  0  0  0  0
  3  4  1  0  0  0  0
  4  5  1  0  0  0  0
  5  6  2  0  0  0  0
  6  7  1  0  0  0  0
  6  8  1  0  0  0  0
  8  9  2  0  0  0  0
  9 10  1  0  0  0  0
  8 11  1  0  0  0  0
 11 12  2  0  0  0  0
 12 13  2  0  0  0  0
 13 14  1  0  0  0  0
 14 15  1  0  0  0  0
 15 16  2  0  0  0  0
 16 17  1  0  0  0  0
 16 18  1  0  0  0  0
 18 19  2  0  0  0  0
 19 20  1  0  0  0  0
 18 21  1  0  0  0  0
 21 22  2  0  0  0  0
 22 23  2  0  0  0  0
 23 24  1  0  0  0  0
 24 25  1  0  0  0  0
 25 26  2  0  0  0  0
 26 27  1  0  0  0  0
 26 28  1  0  0  0  0
 28 29  2  0  0  0  0
 29 30  1  0  0  0  0
 28 31  1  0  0  0  0
 31 32  2  0  0  0  0
 32 33  1  0  0  0  0
 33 34  1  0  0  0  0
 34 35  2  0  0  0  0
 35 36  1  0  0  0  0
 34 37  1  0  0  0  0
 37 38  2  0  0  0  0
 38 39  1  0  0  0  0
 39 40  2  0  0  0  0
 40 41  1  0  0  0  0
 38 42  1  0  0  0  0
 42 43  1  0  0  0  0
 43 44  2  0  0  0  0
 44 45  1  0  0  0  0
 45 46  2  0  0  0  0
 46 47  2  0  0  0  0
 47 48  1  0  0  0  0
 48 49  1  0  0  0  0
 49 50  2  0  0  0  0
 50 51  1  0  0  0  0
 50 52  1  0  0  0  0
 52 53  2  0  0  0  0
 53 54  1  0  0  0  0
 52 55  1  0  0  0  0
 55 56  2  0  0  0  0
 56 57  2  0  0  0  0
 57 58  1  0  0  0  0
 58 59  1  0  0  0  0
 59 60  2  0  0  0  0
 60 61  1  0  0  0  0
 60 62  1  0  0  0  0
 62 63  2  0  0  0  0
 63 64  1  0  0  0  0
  7  3  1  0  0  0  0
 17 13  1  0  0  0  0
 27 23  1  0  0  0  0
 36 31  1  0  0  0  0
 41 37  1  0  0  0  0
 51 47  1  0  0  0  0
 61 57  1  0  0  0  0
 10  5  1  0  0  0  0
 20 15  1  0  0  0  0
 30 25  1  0  0  0  0
 42 33  2  0  0  0  0
 54 49  1  0  0  0  0
 64 59  1  0  0  0  0
  1 65  1  0  0  0  0
  1 66  1  0  0  0  0
  4 67  1  0  0  0  0
  4 68  1  0  0  0  0
  7 69  1  0  0  0  0
  7 70  1  0  0  0  0
  9 71  1  0  0  0  0
 10 72  1  0  0  0  0
 10 73  1  0  0  0  0
 11 74  1  0  0  0  0
 14 75  1  0  0  0  0
 14 76  1  0  0  0  0
 17 77  1  0  0  0  0
 17 78  1  0  0  0  0
 19 79  1  0  0  0  0
 20 80  1  0  0  0  0
 20 81  1  0  0  0  0
 21 82  1  0  0  0  0
 24 83  1  0  0  0  0
 24 84  1  0  0  0  0
 27 85  1  0  0  0  0
 27 86  1  0  0  0  0
 29 87  1  0  0  0  0
 30 88  1  0  0  0  0
 30 89  1  0  0  0  0
 32 90  1  0  0  0  0
 35 91  1  0  0  0  0
 39 92  1  0  0  0  0
 40 93  1  0  0  0  0
 43 94  1  0  0  0  0
 44 95  1  0  0  0  0
 45 96  1  0  0  0  0
 48 97  1  0  0  0  0
 48 98  1  0  0  0  0
 51 99  1  0  0  0  0
 51100  1  0  0  0  0
 53101  1  0  0  0  0
 54102  1  0  0  0  0
 54103  1  0  0  0  0
 55104  1  0  0  0  0
 58105  1  0  0  0  0
 58106  1  0  0  0  0
 61107  1  0  0  0  0
 61108  1  0  0  0  0
 62109  1  0  0  0  0
 63110  1  0  0  0  0
 64111  1  0  0  0  0
 64112  1  0  0  0  0
M  END
