
  xtb     03022217593D
 energy: -458.788579775637 gnorm: 0.000737478550 xtb: 6.4.1 (unknown)
232259  0     0  0            999 V2000
    4.7319   -6.0311    2.9305 C   0  0  0  0  0  0  0  0  0  0  0  0
    4.9929   -4.7113    2.8455 C   0  0  0  0  0  0  0  0  0  0  0  0
    3.8542   -3.9418    2.4670 C   0  0  0  0  0  0  0  0  0  0  0  0
    3.7345   -2.5460    2.3573 C   0  0  0  0  0  0  0  0  0  0  0  0
    4.8365   -1.6378    2.6279 C   0  0  0  0  0  0  0  0  0  0  0  0
    5.2058   -0.3518    1.5150 S   0  0  0  0  0  0  0  0  0  0  0  0
    6.4549    0.2795    2.5286 C   0  0  0  0  0  0  0  0  0  0  0  0
    7.1465    1.5532    2.1908 C   0  0  0  0  0  0  0  0  0  0  0  0
    6.3697    2.7431    2.7605 C   0  0  0  0  0  0  0  0  0  0  0  0
    6.5772   -0.4795    3.6534 C   0  0  0  0  0  0  0  0  0  0  0  0
    7.7172   -0.1663    4.8984 Cl  0  0  0  0  0  0  0  0  0  0  0  0
    5.6617   -1.5644    3.7160 C   0  0  0  0  0  0  0  0  0  0  0  0
    5.5540   -2.5818    5.0938 Cl  0  0  0  0  0  0  0  0  0  0  0  0
    2.4849   -2.0505    2.0011 C   0  0  0  0  0  0  0  0  0  0  0  0
    1.3803   -2.8828    1.7034 C   0  0  0  0  0  0  0  0  0  0  0  0
    1.5004   -4.2795    1.8001 C   0  0  0  0  0  0  0  0  0  0  0  0
    0.3955   -5.1701    1.4881 C   0  0  0  0  0  0  0  0  0  0  0  0
    0.6471   -6.5198    0.4175 S   0  0  0  0  0  0  0  0  0  0  0  0
   -0.9938   -7.0412    0.5482 C   0  0  0  0  0  0  0  0  0  0  0  0
   -1.4919   -8.2593   -0.1510 C   0  0  0  0  0  0  0  0  0  0  0  0
   -0.3806   -9.0058   -0.8748 C   0  0  0  0  0  0  0  0  0  0  0  0
   -1.6872   -6.2064    1.3733 C   0  0  0  0  0  0  0  0  0  0  0  0
   -0.9045   -5.1518    1.9151 C   0  0  0  0  0  0  0  0  0  0  0  0
   -1.5405   -4.0609    3.0782 Cl  0  0  0  0  0  0  0  0  0  0  0  0
   -3.3520   -6.4055    1.7322 Cl  0  0  0  0  0  0  0  0  0  0  0  0
    2.7354   -4.7701    2.2085 C   0  0  0  0  0  0  0  0  0  0  0  0
    3.1042   -6.4436    2.5230 S   0  0  0  0  0  0  0  0  0  0  0  0
    0.2335   -2.1264    1.3729 C   0  0  0  0  0  0  0  0  0  0  0  0
    0.4010   -0.7770    1.4809 C   0  0  0  0  0  0  0  0  0  0  0  0
    2.0444   -0.3657    1.9185 S   0  0  0  0  0  0  0  0  0  0  0  0
   -0.6463    0.1841    1.3310 C   0  0  0  0  0  0  0  0  0  0  0  0
   -0.6504    1.5483    1.3864 C   0  0  0  0  0  0  0  0  0  0  0  0
   -1.9402    2.1267    1.2333 C   0  0  0  0  0  0  0  0  0  0  0  0
   -2.3250    3.4877    1.2556 C   0  0  0  0  0  0  0  0  0  0  0  0
   -1.3438    4.5514    1.3831 C   0  0  0  0  0  0  0  0  0  0  0  0
    0.1000    4.5662    0.4144 S   0  0  0  0  0  0  0  0  0  0  0  0
    0.6594    6.0447    1.1011 C   0  0  0  0  0  0  0  0  0  0  0  0
    1.9447    6.6677    0.6777 C   0  0  0  0  0  0  0  0  0  0  0  0
    2.4896    6.0504   -0.6019 C   0  0  0  0  0  0  0  0  0  0  0  0
   -0.2269    6.4879    2.0381 C   0  0  0  0  0  0  0  0  0  0  0  0
   -0.0066    7.9326    2.9382 Cl  0  0  0  0  0  0  0  0  0  0  0  0
   -1.3553    5.6458    2.2094 C   0  0  0  0  0  0  0  0  0  0  0  0
   -2.5229    5.9497    3.4254 Cl  0  0  0  0  0  0  0  0  0  0  0  0
   -3.6904    3.7556    1.1665 C   0  0  0  0  0  0  0  0  0  0  0  0
   -4.6684    2.7315    1.1118 C   0  0  0  0  0  0  0  0  0  0  0  0
   -4.2897    1.3866    1.0182 C   0  0  0  0  0  0  0  0  0  0  0  0
   -5.2571    0.3230    0.8024 C   0  0  0  0  0  0  0  0  0  0  0  0
   -5.0531   -0.7637   -0.5428 S   0  0  0  0  0  0  0  0  0  0  0  0
   -6.4878   -1.6445   -0.1608 C   0  0  0  0  0  0  0  0  0  0  0  0
   -6.8780   -2.8598   -0.9262 C   0  0  0  0  0  0  0  0  0  0  0  0
   -6.3997   -4.1221   -0.2043 C   0  0  0  0  0  0  0  0  0  0  0  0
   -7.0838   -1.1140    0.9440 C   0  0  0  0  0  0  0  0  0  0  0  0
   -6.3911   -0.0017    1.4935 C   0  0  0  0  0  0  0  0  0  0  0  0
   -6.9043    0.7644    2.9449 Cl  0  0  0  0  0  0  0  0  0  0  0  0
   -8.5418   -1.7175    1.6207 Cl  0  0  0  0  0  0  0  0  0  0  0  0
   -2.9304    1.1260    1.0812 C   0  0  0  0  0  0  0  0  0  0  0  0
   -2.2564   -0.4655    1.1018 S   0  0  0  0  0  0  0  0  0  0  0  0
   -5.9819    3.2402    1.1061 C   0  0  0  0  0  0  0  0  0  0  0  0
   -6.0512    4.5999    1.0785 C   0  0  0  0  0  0  0  0  0  0  0  0
   -4.4559    5.3264    1.0651 S   0  0  0  0  0  0  0  0  0  0  0  0
   -7.2875    5.3252    0.9913 C   0  0  0  0  0  0  0  0  0  0  0  0
   -7.4437    6.5005    0.3163 C   0  0  0  0  0  0  0  0  0  0  0  0
   -8.6885    7.0497   -0.0297 C   0  0  0  0  0  0  0  0  0  0  0  0
   -9.9280    6.5248    0.5650 C   0  0  0  0  0  0  0  0  0  0  0  0
   -9.9913    5.4220    1.3407 C   0  0  0  0  0  0  0  0  0  0  0  0
   -8.6346    4.4419    1.7009 S   0  0  0  0  0  0  0  0  0  0  0  0
  -10.9643    7.3765    0.0982 C   0  0  0  0  0  0  0  0  0  0  0  0
  -10.4275    8.3232   -0.7723 C   0  0  0  0  0  0  0  0  0  0  0  0
  -11.4176    9.1762   -1.3080 C   0  0  0  0  0  0  0  0  0  0  0  0
  -12.6528    8.8649   -0.8355 C   0  0  0  0  0  0  0  0  0  0  0  0
  -12.6698    7.5257    0.2632 S   0  0  0  0  0  0  0  0  0  0  0  0
   -9.0075    8.1056   -0.8870 C   0  0  0  0  0  0  0  0  0  0  0  0
   -8.1965    8.8926   -1.7619 C   0  0  0  0  0  0  0  0  0  0  0  0
   -7.0303    8.5962   -2.3695 C   0  0  0  0  0  0  0  0  0  0  0  0
   -6.2807    7.3691   -2.3812 C   0  0  0  0  0  0  0  0  0  0  0  0
   -4.9200    7.3147   -2.3399 C   0  0  0  0  0  0  0  0  0  0  0  0
   -4.3928    6.0032   -2.3258 C   0  0  0  0  0  0  0  0  0  0  0  0
   -3.0407    5.6329   -2.2666 C   0  0  0  0  0  0  0  0  0  0  0  0
   -2.0017    6.6333   -2.0831 C   0  0  0  0  0  0  0  0  0  0  0  0
   -2.0889    7.7386   -0.7396 S   0  0  0  0  0  0  0  0  0  0  0  0
   -0.6208    8.5332   -1.1975 C   0  0  0  0  0  0  0  0  0  0  0  0
   -0.1241    9.7208   -0.4497 C   0  0  0  0  0  0  0  0  0  0  0  0
   -0.9150   10.9745   -0.8305 C   0  0  0  0  0  0  0  0  0  0  0  0
   -0.1054    7.9617   -2.3218 C   0  0  0  0  0  0  0  0  0  0  0  0
    1.3312    8.4977   -3.0958 Cl  0  0  0  0  0  0  0  0  0  0  0  0
   -0.8769    6.8754   -2.8188 C   0  0  0  0  0  0  0  0  0  0  0  0
   -0.4583    6.0273   -4.2486 Cl  0  0  0  0  0  0  0  0  0  0  0  0
   -2.7647    4.2759   -2.3233 C   0  0  0  0  0  0  0  0  0  0  0  0
   -3.7708    3.2771   -2.3473 C   0  0  0  0  0  0  0  0  0  0  0  0
   -5.1288    3.6530   -2.4257 C   0  0  0  0  0  0  0  0  0  0  0  0
   -6.1726    2.6471   -2.4922 C   0  0  0  0  0  0  0  0  0  0  0  0
   -7.5914    2.7652   -1.4939 S   0  0  0  0  0  0  0  0  0  0  0  0
   -8.2085    1.2462   -2.0351 C   0  0  0  0  0  0  0  0  0  0  0  0
   -9.4778    0.6735   -1.5038 C   0  0  0  0  0  0  0  0  0  0  0  0
   -9.9215    1.3383   -0.2079 C   0  0  0  0  0  0  0  0  0  0  0  0
   -7.3760    0.7121   -2.9740 C   0  0  0  0  0  0  0  0  0  0  0  0
   -6.2286    1.5024   -3.2438 C   0  0  0  0  0  0  0  0  0  0  0  0
   -5.1081    1.0771   -4.4724 Cl  0  0  0  0  0  0  0  0  0  0  0  0
   -7.6754   -0.7831   -3.7576 Cl  0  0  0  0  0  0  0  0  0  0  0  0
   -5.4050    5.0172   -2.4135 C   0  0  0  0  0  0  0  0  0  0  0  0
   -6.9832    5.7606   -2.5049 S   0  0  0  0  0  0  0  0  0  0  0  0
   -3.2096    1.9788   -2.2340 C   0  0  0  0  0  0  0  0  0  0  0  0
   -1.8466    1.9761   -2.1960 C   0  0  0  0  0  0  0  0  0  0  0  0
   -1.1752    3.5874   -2.2876 S   0  0  0  0  0  0  0  0  0  0  0  0
   -0.9369    0.8863   -2.0798 C   0  0  0  0  0  0  0  0  0  0  0  0
    0.4091    0.9876   -1.8807 C   0  0  0  0  0  0  0  0  0  0  0  0
    1.0581   -0.2593   -1.7407 C   0  0  0  0  0  0  0  0  0  0  0  0
    2.4314   -0.4980   -1.5644 C   0  0  0  0  0  0  0  0  0  0  0  0
    3.4589    0.5338   -1.6062 C   0  0  0  0  0  0  0  0  0  0  0  0
    4.7952    0.2945   -2.7009 S   0  0  0  0  0  0  0  0  0  0  0  0
    5.5874    1.7439   -2.1949 C   0  0  0  0  0  0  0  0  0  0  0  0
    6.9146    2.1279   -2.7490 C   0  0  0  0  0  0  0  0  0  0  0  0
    8.0217    1.2332   -2.1878 C   0  0  0  0  0  0  0  0  0  0  0  0
    4.8484    2.3689   -1.2377 C   0  0  0  0  0  0  0  0  0  0  0  0
    5.3243    3.8282   -0.4737 Cl  0  0  0  0  0  0  0  0  0  0  0  0
    3.6378    1.6968   -0.9120 C   0  0  0  0  0  0  0  0  0  0  0  0
    2.5886    2.3064    0.2923 Cl  0  0  0  0  0  0  0  0  0  0  0  0
    2.8105   -1.8274   -1.4325 C   0  0  0  0  0  0  0  0  0  0  0  0
    1.9095   -2.9117   -1.5390 C   0  0  0  0  0  0  0  0  0  0  0  0
    0.5441   -2.6783   -1.8020 C   0  0  0  0  0  0  0  0  0  0  0  0
   -0.3351   -3.7973   -2.1002 C   0  0  0  0  0  0  0  0  0  0  0  0
    0.2251   -4.9981   -3.2375 S   0  0  0  0  0  0  0  0  0  0  0  0
   -1.2488   -5.8953   -3.1597 C   0  0  0  0  0  0  0  0  0  0  0  0
   -1.4708   -7.1006   -4.0051 C   0  0  0  0  0  0  0  0  0  0  0  0
   -2.0339   -6.7083   -5.3734 C   0  0  0  0  0  0  0  0  0  0  0  0
   -2.1175   -5.2882   -2.3046 C   0  0  0  0  0  0  0  0  0  0  0  0
   -1.6085   -4.1052   -1.7024 C   0  0  0  0  0  0  0  0  0  0  0  0
   -2.5401   -3.2515   -0.5470 Cl  0  0  0  0  0  0  0  0  0  0  0  0
   -3.6915   -5.8800   -1.9643 Cl  0  0  0  0  0  0  0  0  0  0  0  0
    0.1464   -1.3461   -1.8560 C   0  0  0  0  0  0  0  0  0  0  0  0
   -1.4710   -0.7748   -2.1575 S   0  0  0  0  0  0  0  0  0  0  0  0
    2.5588   -4.1496   -1.3169 C   0  0  0  0  0  0  0  0  0  0  0  0
    3.8875   -4.0258   -1.0428 C   0  0  0  0  0  0  0  0  0  0  0  0
    4.4269   -2.3662   -1.0809 S   0  0  0  0  0  0  0  0  0  0  0  0
    4.7892   -5.0552   -0.6544 C   0  0  0  0  0  0  0  0  0  0  0  0
    6.0518   -4.9036   -0.1650 C   0  0  0  0  0  0  0  0  0  0  0  0
    6.6161   -6.1111    0.3147 C   0  0  0  0  0  0  0  0  0  0  0  0
    7.8440   -6.3042    0.9699 C   0  0  0  0  0  0  0  0  0  0  0  0
    8.7781   -5.2060    1.1616 C   0  0  0  0  0  0  0  0  0  0  0  0
    8.2922   -3.7011    1.8931 S   0  0  0  0  0  0  0  0  0  0  0  0
    9.8727   -3.0174    1.7404 C   0  0  0  0  0  0  0  0  0  0  0  0
   10.1436   -1.6081    2.1332 C   0  0  0  0  0  0  0  0  0  0  0  0
    9.8026   -0.6605    0.9802 C   0  0  0  0  0  0  0  0  0  0  0  0
   10.7163   -3.9101    1.1513 C   0  0  0  0  0  0  0  0  0  0  0  0
   12.3682   -3.5872    0.8185 Cl  0  0  0  0  0  0  0  0  0  0  0  0
   10.1030   -5.1508    0.8276 C   0  0  0  0  0  0  0  0  0  0  0  0
   10.9447   -6.3965    0.0064 Cl  0  0  0  0  0  0  0  0  0  0  0  0
    8.1109   -7.5868    1.4392 C   0  0  0  0  0  0  0  0  0  0  0  0
    7.2111   -8.6703    1.2811 C   0  0  0  0  0  0  0  0  0  0  0  0
    5.9922   -8.4761    0.6176 C   0  0  0  0  0  0  0  0  0  0  0  0
    4.9803   -9.5167    0.5149 C   0  0  0  0  0  0  0  0  0  0  0  0
    4.3090   -9.9864   -1.0150 S   0  0  0  0  0  0  0  0  0  0  0  0
    3.1971  -11.0851   -0.2752 C   0  0  0  0  0  0  0  0  0  0  0  0
    2.2487  -11.9128   -1.0744 C   0  0  0  0  0  0  0  0  0  0  0  0
    2.1023  -11.4154   -2.5059 C   0  0  0  0  0  0  0  0  0  0  0  0
    3.3483  -11.0718    1.0805 C   0  0  0  0  0  0  0  0  0  0  0  0
    4.3592  -10.1838    1.5326 C   0  0  0  0  0  0  0  0  0  0  0  0
    4.7014   -9.9280    3.1939 Cl  0  0  0  0  0  0  0  0  0  0  0  0
    2.4013  -12.0249    2.1495 Cl  0  0  0  0  0  0  0  0  0  0  0  0
    5.7350   -7.2034    0.1310 C   0  0  0  0  0  0  0  0  0  0  0  0
    4.2560   -6.7196   -0.6460 S   0  0  0  0  0  0  0  0  0  0  0  0
    7.7110   -9.8638    1.8776 C   0  0  0  0  0  0  0  0  0  0  0  0
    8.9042   -9.6854    2.4799 C   0  0  0  0  0  0  0  0  0  0  0  0
    9.5100   -8.0709    2.3541 S   0  0  0  0  0  0  0  0  0  0  0  0
    5.4051   -6.8185    3.2083 H   0  0  0  0  0  0  0  0  0  0  0  0
    5.9592   -4.2860    3.0374 H   0  0  0  0  0  0  0  0  0  0  0  0
    8.1527    1.5381    2.6125 H   0  0  0  0  0  0  0  0  0  0  0  0
    7.2141    1.6539    1.1066 H   0  0  0  0  0  0  0  0  0  0  0  0
    6.8626    3.6735    2.4919 H   0  0  0  0  0  0  0  0  0  0  0  0
    5.3581    2.7561    2.3628 H   0  0  0  0  0  0  0  0  0  0  0  0
    6.3161    2.6753    3.8439 H   0  0  0  0  0  0  0  0  0  0  0  0
   -2.2728   -7.9668   -0.8585 H   0  0  0  0  0  0  0  0  0  0  0  0
   -1.9623   -8.9131    0.5896 H   0  0  0  0  0  0  0  0  0  0  0  0
   -0.7816   -9.8820   -1.3773 H   0  0  0  0  0  0  0  0  0  0  0  0
    0.3828   -9.3244   -0.1686 H   0  0  0  0  0  0  0  0  0  0  0  0
    0.0883   -8.3603   -1.6141 H   0  0  0  0  0  0  0  0  0  0  0  0
   -0.6987   -2.5670    1.0783 H   0  0  0  0  0  0  0  0  0  0  0  0
    0.2424    2.1209    1.5540 H   0  0  0  0  0  0  0  0  0  0  0  0
    2.6768    6.5472    1.4834 H   0  0  0  0  0  0  0  0  0  0  0  0
    1.7848    7.7406    0.5459 H   0  0  0  0  0  0  0  0  0  0  0  0
    3.4088    6.5479   -0.8991 H   0  0  0  0  0  0  0  0  0  0  0  0
    2.6981    4.9951   -0.4504 H   0  0  0  0  0  0  0  0  0  0  0  0
    1.7672    6.1413   -1.4085 H   0  0  0  0  0  0  0  0  0  0  0  0
   -7.9653   -2.8887   -1.0268 H   0  0  0  0  0  0  0  0  0  0  0  0
   -6.4356   -2.8163   -1.9221 H   0  0  0  0  0  0  0  0  0  0  0  0
   -6.6684   -5.0052   -0.7782 H   0  0  0  0  0  0  0  0  0  0  0  0
   -6.8573   -4.1936    0.7792 H   0  0  0  0  0  0  0  0  0  0  0  0
   -5.3201   -4.1015   -0.0810 H   0  0  0  0  0  0  0  0  0  0  0  0
   -6.8532    2.6164    1.1026 H   0  0  0  0  0  0  0  0  0  0  0  0
   -6.5426    7.0001   -0.0119 H   0  0  0  0  0  0  0  0  0  0  0  0
  -10.9173    5.0543    1.7540 H   0  0  0  0  0  0  0  0  0  0  0  0
  -11.2345    9.9770   -2.0015 H   0  0  0  0  0  0  0  0  0  0  0  0
  -13.5845    9.3445   -1.0644 H   0  0  0  0  0  0  0  0  0  0  0  0
   -8.6095    9.8736   -1.9683 H   0  0  0  0  0  0  0  0  0  0  0  0
   -6.5411    9.3941   -2.9168 H   0  0  0  0  0  0  0  0  0  0  0  0
   -4.3098    8.1978   -2.2864 H   0  0  0  0  0  0  0  0  0  0  0  0
    0.9308    9.8686   -0.6883 H   0  0  0  0  0  0  0  0  0  0  0  0
   -0.2239    9.5450    0.6228 H   0  0  0  0  0  0  0  0  0  0  0  0
   -0.5377   11.8337   -0.2828 H   0  0  0  0  0  0  0  0  0  0  0  0
   -1.9673   10.8423   -0.5907 H   0  0  0  0  0  0  0  0  0  0  0  0
   -0.8213   11.1716   -1.8957 H   0  0  0  0  0  0  0  0  0  0  0  0
  -10.2618    0.7843   -2.2600 H   0  0  0  0  0  0  0  0  0  0  0  0
   -9.3299   -0.3983   -1.3460 H   0  0  0  0  0  0  0  0  0  0  0  0
  -10.8470    0.8911    0.1442 H   0  0  0  0  0  0  0  0  0  0  0  0
  -10.0857    2.4025   -0.3635 H   0  0  0  0  0  0  0  0  0  0  0  0
   -9.1654    1.2153    0.5632 H   0  0  0  0  0  0  0  0  0  0  0  0
   -3.7847    1.0749   -2.1501 H   0  0  0  0  0  0  0  0  0  0  0  0
    0.9130    1.9347   -1.8212 H   0  0  0  0  0  0  0  0  0  0  0  0
    7.1139    3.1700   -2.4935 H   0  0  0  0  0  0  0  0  0  0  0  0
    6.8939    2.0342   -3.8365 H   0  0  0  0  0  0  0  0  0  0  0  0
    8.9804    1.5124   -2.6159 H   0  0  0  0  0  0  0  0  0  0  0  0
    8.0821    1.3349   -1.1069 H   0  0  0  0  0  0  0  0  0  0  0  0
    7.8202    0.1916   -2.4259 H   0  0  0  0  0  0  0  0  0  0  0  0
   -2.1758   -7.7630   -3.4996 H   0  0  0  0  0  0  0  0  0  0  0  0
   -0.5255   -7.6282   -4.1406 H   0  0  0  0  0  0  0  0  0  0  0  0
   -1.3400   -6.0514   -5.8922 H   0  0  0  0  0  0  0  0  0  0  0  0
   -2.1944   -7.5959   -5.9792 H   0  0  0  0  0  0  0  0  0  0  0  0
   -2.9818   -6.1897   -5.2563 H   0  0  0  0  0  0  0  0  0  0  0  0
    2.0651   -5.1034   -1.3179 H   0  0  0  0  0  0  0  0  0  0  0  0
    6.5366   -3.9459   -0.1123 H   0  0  0  0  0  0  0  0  0  0  0  0
   11.2003   -1.5110    2.3880 H   0  0  0  0  0  0  0  0  0  0  0  0
    9.5452   -1.3486    3.0075 H   0  0  0  0  0  0  0  0  0  0  0  0
    8.7462   -0.7354    0.7326 H   0  0  0  0  0  0  0  0  0  0  0  0
   10.3864   -0.9149    0.0991 H   0  0  0  0  0  0  0  0  0  0  0  0
   10.0271    0.3647    1.2606 H   0  0  0  0  0  0  0  0  0  0  0  0
    2.6017  -12.9493   -1.0798 H   0  0  0  0  0  0  0  0  0  0  0  0
    1.2787  -11.9078   -0.5697 H   0  0  0  0  0  0  0  0  0  0  0  0
    1.7675  -10.3816   -2.5154 H   0  0  0  0  0  0  0  0  0  0  0  0
    1.3789  -12.0236   -3.0421 H   0  0  0  0  0  0  0  0  0  0  0  0
    3.0557  -11.4720   -3.0257 H   0  0  0  0  0  0  0  0  0  0  0  0
    7.1896  -10.8026    1.8446 H   0  0  0  0  0  0  0  0  0  0  0  0
    9.4946  -10.4130    3.0016 H   0  0  0  0  0  0  0  0  0  0  0  0
  1  2  2  0  0  0  0
  2  3  1  0  0  0  0
  3  4  2  0  0  0  0
  4  5  1  0  0  0  0
  5  6  1  0  0  0  0
  6  7  1  0  0  0  0
  7  8  1  0  0  0  0
  8  9  1  0  0  0  0
  7 10  2  0  0  0  0
 10 11  1  0  0  0  0
 10 12  1  0  0  0  0
 12 13  1  0  0  0  0
  4 14  1  0  0  0  0
 14 15  2  0  0  0  0
 15 16  1  0  0  0  0
 16 17  1  0  0  0  0
 17 18  1  0  0  0  0
 18 19  1  0  0  0  0
 19 20  1  0  0  0  0
 20 21  1  0  0  0  0
 19 22  2  0  0  0  0
 22 23  1  0  0  0  0
 23 24  1  0  0  0  0
 22 25  1  0  0  0  0
 16 26  2  0  0  0  0
 26 27  1  0  0  0  0
 15 28  1  0  0  0  0
 28 29  2  0  0  0  0
 29 30  1  0  0  0  0
 29 31  1  0  0  0  0
 31 32  2  0  0  0  0
 32 33  1  0  0  0  0
 33 34  2  0  0  0  0
 34 35  1  0  0  0  0
 35 36  1  0  0  0  0
 36 37  1  0  0  0  0
 37 38  1  0  0  0  0
 38 39  1  0  0  0  0
 37 40  2  0  0  0  0
 40 41  1  0  0  0  0
 40 42  1  0  0  0  0
 42 43  1  0  0  0  0
 34 44  1  0  0  0  0
 44 45  2  0  0  0  0
 45 46  1  0  0  0  0
 46 47  1  0  0  0  0
 47 48  1  0  0  0  0
 48 49  1  0  0  0  0
 49 50  1  0  0  0  0
 50 51  1  0  0  0  0
 49 52  2  0  0  0  0
 52 53  1  0  0  0  0
 53 54  1  0  0  0  0
 52 55  1  0  0  0  0
 46 56  2  0  0  0  0
 56 57  1  0  0  0  0
 45 58  1  0  0  0  0
 58 59  2  0  0  0  0
 59 60  1  0  0  0  0
 59 61  1  0  0  0  0
 61 62  2  0  0  0  0
 62 63  1  0  0  0  0
 63 64  1  0  0  0  0
 64 65  2  0  0  0  0
 65 66  1  0  0  0  0
 64 67  1  0  0  0  0
 67 68  2  0  0  0  0
 68 69  1  0  0  0  0
 69 70  2  0  0  0  0
 70 71  1  0  0  0  0
 68 72  1  0  0  0  0
 72 73  1  0  0  0  0
 73 74  2  0  0  0  0
 74 75  1  0  0  0  0
 75 76  2  0  0  0  0
 76 77  1  0  0  0  0
 77 78  2  0  0  0  0
 78 79  1  0  0  0  0
 79 80  1  0  0  0  0
 80 81  1  0  0  0  0
 81 82  1  0  0  0  0
 82 83  1  0  0  0  0
 81 84  2  0  0  0  0
 84 85  1  0  0  0  0
 84 86  1  0  0  0  0
 86 87  1  0  0  0  0
 78 88  1  0  0  0  0
 88 89  2  0  0  0  0
 89 90  1  0  0  0  0
 90 91  1  0  0  0  0
 91 92  1  0  0  0  0
 92 93  1  0  0  0  0
 93 94  1  0  0  0  0
 94 95  1  0  0  0  0
 93 96  2  0  0  0  0
 96 97  1  0  0  0  0
 97 98  1  0  0  0  0
 96 99  1  0  0  0  0
 90100  2  0  0  0  0
100101  1  0  0  0  0
 89102  1  0  0  0  0
102103  2  0  0  0  0
103104  1  0  0  0  0
103105  1  0  0  0  0
105106  2  0  0  0  0
106107  1  0  0  0  0
107108  2  0  0  0  0
108109  1  0  0  0  0
109110  1  0  0  0  0
110111  1  0  0  0  0
111112  1  0  0  0  0
112113  1  0  0  0  0
111114  2  0  0  0  0
114115  1  0  0  0  0
114116  1  0  0  0  0
116117  1  0  0  0  0
108118  1  0  0  0  0
118119  2  0  0  0  0
119120  1  0  0  0  0
120121  1  0  0  0  0
121122  1  0  0  0  0
122123  1  0  0  0  0
123124  1  0  0  0  0
124125  1  0  0  0  0
123126  2  0  0  0  0
126127  1  0  0  0  0
127128  1  0  0  0  0
126129  1  0  0  0  0
120130  2  0  0  0  0
130131  1  0  0  0  0
119132  1  0  0  0  0
132133  2  0  0  0  0
133134  1  0  0  0  0
133135  1  0  0  0  0
135136  2  0  0  0  0
136137  1  0  0  0  0
137138  2  0  0  0  0
138139  1  0  0  0  0
139140  1  0  0  0  0
140141  1  0  0  0  0
141142  1  0  0  0  0
142143  1  0  0  0  0
141144  2  0  0  0  0
144145  1  0  0  0  0
144146  1  0  0  0  0
146147  1  0  0  0  0
138148  1  0  0  0  0
148149  2  0  0  0  0
149150  1  0  0  0  0
150151  1  0  0  0  0
151152  1  0  0  0  0
152153  1  0  0  0  0
153154  1  0  0  0  0
154155  1  0  0  0  0
153156  2  0  0  0  0
156157  1  0  0  0  0
157158  1  0  0  0  0
156159  1  0  0  0  0
150160  2  0  0  0  0
160161  1  0  0  0  0
149162  1  0  0  0  0
162163  2  0  0  0  0
163164  1  0  0  0  0
 27  1  1  0  0  0  0
 57 31  1  0  0  0  0
 66 61  1  0  0  0  0
 71 67  1  0  0  0  0
101 75  1  0  0  0  0
131105  1  0  0  0  0
161135  1  0  0  0  0
 26  3  1  0  0  0  0
 56 33  1  0  0  0  0
 72 63  2  0  0  0  0
100 77  1  0  0  0  0
130107  1  0  0  0  0
160137  1  0  0  0  0
 12  5  2  0  0  0  0
 30 14  1  0  0  0  0
 42 35  2  0  0  0  0
 60 44  1  0  0  0  0
 86 79  2  0  0  0  0
104 88  1  0  0  0  0
116109  2  0  0  0  0
134118  1  0  0  0  0
146139  2  0  0  0  0
164148  1  0  0  0  0
 23 17  2  0  0  0  0
 53 47  2  0  0  0  0
 97 91  2  0  0  0  0
127121  2  0  0  0  0
157151  2  0  0  0  0
  1165  1  0  0  0  0
  2166  1  0  0  0  0
  8167  1  0  0  0  0
  8168  1  0  0  0  0
  9169  1  0  0  0  0
  9170  1  0  0  0  0
  9171  1  0  0  0  0
 20172  1  0  0  0  0
 20173  1  0  0  0  0
 21174  1  0  0  0  0
 21175  1  0  0  0  0
 21176  1  0  0  0  0
 28177  1  0  0  0  0
 32178  1  0  0  0  0
 38179  1  0  0  0  0
 38180  1  0  0  0  0
 39181  1  0  0  0  0
 39182  1  0  0  0  0
 39183  1  0  0  0  0
 50184  1  0  0  0  0
 50185  1  0  0  0  0
 51186  1  0  0  0  0
 51187  1  0  0  0  0
 51188  1  0  0  0  0
 58189  1  0  0  0  0
 62190  1  0  0  0  0
 65191  1  0  0  0  0
 69192  1  0  0  0  0
 70193  1  0  0  0  0
 73194  1  0  0  0  0
 74195  1  0  0  0  0
 76196  1  0  0  0  0
 82197  1  0  0  0  0
 82198  1  0  0  0  0
 83199  1  0  0  0  0
 83200  1  0  0  0  0
 83201  1  0  0  0  0
 94202  1  0  0  0  0
 94203  1  0  0  0  0
 95204  1  0  0  0  0
 95205  1  0  0  0  0
 95206  1  0  0  0  0
102207  1  0  0  0  0
106208  1  0  0  0  0
112209  1  0  0  0  0
112210  1  0  0  0  0
113211  1  0  0  0  0
113212  1  0  0  0  0
113213  1  0  0  0  0
124214  1  0  0  0  0
124215  1  0  0  0  0
125216  1  0  0  0  0
125217  1  0  0  0  0
125218  1  0  0  0  0
132219  1  0  0  0  0
136220  1  0  0  0  0
142221  1  0  0  0  0
142222  1  0  0  0  0
143223  1  0  0  0  0
143224  1  0  0  0  0
143225  1  0  0  0  0
154226  1  0  0  0  0
154227  1  0  0  0  0
155228  1  0  0  0  0
155229  1  0  0  0  0
155230  1  0  0  0  0
162231  1  0  0  0  0
163232  1  0  0  0  0
M  END
