
  xtb     03032206443D
 energy: -310.879805516056 gnorm: 0.000177706278 xtb: 6.4.1 (unknown)
166187  0     0  0            999 V2000
    4.4429   -4.6569   -1.0006 C   0  0  0  0  0  0  0  0  0  0  0  0
    4.3811   -4.0897    0.2254 C   0  0  0  0  0  0  0  0  0  0  0  0
    3.8750   -2.7966    0.4670 C   0  0  0  0  0  0  0  0  0  0  0  0
    3.4147   -1.9814   -0.6714 C   0  0  0  0  0  0  0  0  0  0  0  0
    3.4173   -2.3689   -1.9657 C   0  0  0  0  0  0  0  0  0  0  0  0
    3.9305   -3.9212   -2.4831 S   0  0  0  0  0  0  0  0  0  0  0  0
    2.9973   -0.7434   -0.1137 C   0  0  0  0  0  0  0  0  0  0  0  0
    3.1775   -0.7748    1.2645 C   0  0  0  0  0  0  0  0  0  0  0  0
    2.7616    0.4235    1.8830 C   0  0  0  0  0  0  0  0  0  0  0  0
    2.2978    1.3179    0.9708 C   0  0  0  0  0  0  0  0  0  0  0  0
    2.3364    0.7470   -0.6633 S   0  0  0  0  0  0  0  0  0  0  0  0
    3.7429   -2.0511    1.6443 C   0  0  0  0  0  0  0  0  0  0  0  0
    4.0763   -2.3055    3.0000 C   0  0  0  0  0  0  0  0  0  0  0  0
    4.5005   -3.4433    3.6012 C   0  0  0  0  0  0  0  0  0  0  0  0
    4.7340   -3.5570    5.0051 C   0  0  0  0  0  0  0  0  0  0  0  0
    4.8876   -4.7803    5.6111 C   0  0  0  0  0  0  0  0  0  0  0  0
    4.8892   -4.9998    6.9940 C   0  0  0  0  0  0  0  0  0  0  0  0
    4.9897   -3.8740    7.9327 C   0  0  0  0  0  0  0  0  0  0  0  0
    4.9547   -2.5786    7.5563 C   0  0  0  0  0  0  0  0  0  0  0  0
    4.7382   -2.0628    5.9346 S   0  0  0  0  0  0  0  0  0  0  0  0
    5.0797   -4.4647    9.2223 C   0  0  0  0  0  0  0  0  0  0  0  0
    4.9899   -5.8515    9.1046 C   0  0  0  0  0  0  0  0  0  0  0  0
    5.0297   -6.4956   10.3609 C   0  0  0  0  0  0  0  0  0  0  0  0
    5.1531   -5.6018   11.3768 C   0  0  0  0  0  0  0  0  0  0  0  0
    5.2136   -3.9502   10.8583 S   0  0  0  0  0  0  0  0  0  0  0  0
    4.8279   -6.1977    7.7150 C   0  0  0  0  0  0  0  0  0  0  0  0
    4.6096   -7.5419    7.2785 C   0  0  0  0  0  0  0  0  0  0  0  0
    3.9107   -7.9978    6.2136 C   0  0  0  0  0  0  0  0  0  0  0  0
    3.1191   -7.2245    5.3056 C   0  0  0  0  0  0  0  0  0  0  0  0
    2.4591   -6.0472    5.5055 C   0  0  0  0  0  0  0  0  0  0  0  0
    1.8941   -5.4919    4.3328 C   0  0  0  0  0  0  0  0  0  0  0  0
    1.2464   -4.2511    4.1814 C   0  0  0  0  0  0  0  0  0  0  0  0
    1.0083   -3.3834    5.3188 C   0  0  0  0  0  0  0  0  0  0  0  0
    1.4604   -1.7048    5.2511 S   0  0  0  0  0  0  0  0  0  0  0  0
    1.0107   -1.4300    6.8983 C   0  0  0  0  0  0  0  0  0  0  0  0
    1.1436   -0.0803    7.5119 C   0  0  0  0  0  0  0  0  0  0  0  0
    0.0340    0.8544    7.0256 C   0  0  0  0  0  0  0  0  0  0  0  0
    0.5060   -2.5712    7.4453 C   0  0  0  0  0  0  0  0  0  0  0  0
   -0.0548   -2.6934    9.0628 Cl  0  0  0  0  0  0  0  0  0  0  0  0
    0.4994   -3.6784    6.5542 C   0  0  0  0  0  0  0  0  0  0  0  0
   -0.1873   -5.1907    6.9900 Cl  0  0  0  0  0  0  0  0  0  0  0  0
    0.9378   -3.8578    2.8851 C   0  0  0  0  0  0  0  0  0  0  0  0
    1.2170   -4.6541    1.7497 C   0  0  0  0  0  0  0  0  0  0  0  0
    1.7966   -5.9276    1.9055 C   0  0  0  0  0  0  0  0  0  0  0  0
    2.0360   -6.7890    0.7624 C   0  0  0  0  0  0  0  0  0  0  0  0
    3.5718   -7.5730    0.5274 S   0  0  0  0  0  0  0  0  0  0  0  0
    3.0628   -8.3114   -0.9523 C   0  0  0  0  0  0  0  0  0  0  0  0
    3.9582   -9.2285   -1.7095 C   0  0  0  0  0  0  0  0  0  0  0  0
    3.8020  -10.6684   -1.2142 C   0  0  0  0  0  0  0  0  0  0  0  0
    1.7678   -7.9844   -1.2204 C   0  0  0  0  0  0  0  0  0  0  0  0
    1.1827   -7.1222   -0.2545 C   0  0  0  0  0  0  0  0  0  0  0  0
   -0.4664   -6.6482   -0.3401 Cl  0  0  0  0  0  0  0  0  0  0  0  0
    0.9057   -8.5511   -2.5906 Cl  0  0  0  0  0  0  0  0  0  0  0  0
    2.1456   -6.3001    3.1956 C   0  0  0  0  0  0  0  0  0  0  0  0
    2.9898   -7.7577    3.6335 S   0  0  0  0  0  0  0  0  0  0  0  0
    0.8874   -3.9897    0.5468 C   0  0  0  0  0  0  0  0  0  0  0  0
    0.3160   -2.7649    0.7389 C   0  0  0  0  0  0  0  0  0  0  0  0
    0.1904   -2.3525    2.4319 S   0  0  0  0  0  0  0  0  0  0  0  0
   -0.1027   -1.8656   -0.2850 C   0  0  0  0  0  0  0  0  0  0  0  0
    0.2136   -1.9697   -1.6078 C   0  0  0  0  0  0  0  0  0  0  0  0
   -0.2767   -0.9055   -2.3937 C   0  0  0  0  0  0  0  0  0  0  0  0
   -0.0690   -0.6986   -3.7681 C   0  0  0  0  0  0  0  0  0  0  0  0
    0.7483   -1.6244   -4.5380 C   0  0  0  0  0  0  0  0  0  0  0  0
    0.3817   -3.3224   -4.6136 S   0  0  0  0  0  0  0  0  0  0  0  0
    1.7771   -3.6628   -5.5820 C   0  0  0  0  0  0  0  0  0  0  0  0
    2.0787   -5.0462   -6.0441 C   0  0  0  0  0  0  0  0  0  0  0  0
    1.9080   -6.0761   -4.9309 C   0  0  0  0  0  0  0  0  0  0  0  0
    2.4716   -2.5158   -5.8256 C   0  0  0  0  0  0  0  0  0  0  0  0
    3.9243   -2.4464   -6.7372 Cl  0  0  0  0  0  0  0  0  0  0  0  0
    1.8907   -1.3583   -5.2383 C   0  0  0  0  0  0  0  0  0  0  0  0
    2.6161    0.1947   -5.3331 Cl  0  0  0  0  0  0  0  0  0  0  0  0
   -0.6503    0.4275   -4.3262 C   0  0  0  0  0  0  0  0  0  0  0  0
   -1.4422    1.3289   -3.5719 C   0  0  0  0  0  0  0  0  0  0  0  0
   -1.6413    1.1289   -2.1928 C   0  0  0  0  0  0  0  0  0  0  0  0
   -2.5210    2.0030   -1.4320 C   0  0  0  0  0  0  0  0  0  0  0  0
   -4.1623    2.2607   -1.9583 S   0  0  0  0  0  0  0  0  0  0  0  0
   -4.5379    3.2453   -0.5856 C   0  0  0  0  0  0  0  0  0  0  0  0
   -5.9040    3.7986   -0.3656 C   0  0  0  0  0  0  0  0  0  0  0  0
   -6.6438    4.0682   -1.6701 C   0  0  0  0  0  0  0  0  0  0  0  0
   -3.4415    3.3702    0.2142 C   0  0  0  0  0  0  0  0  0  0  0  0
   -2.3013    2.6651   -0.2577 C   0  0  0  0  0  0  0  0  0  0  0  0
   -0.7962    2.7194    0.5496 Cl  0  0  0  0  0  0  0  0  0  0  0  0
   -3.4226    4.2846    1.6690 Cl  0  0  0  0  0  0  0  0  0  0  0  0
   -1.0219    0.0233   -1.6250 C   0  0  0  0  0  0  0  0  0  0  0  0
   -1.0700   -0.4494    0.0505 S   0  0  0  0  0  0  0  0  0  0  0  0
   -1.9299    2.3897   -4.3649 C   0  0  0  0  0  0  0  0  0  0  0  0
   -1.5680    2.3091   -5.6830 C   0  0  0  0  0  0  0  0  0  0  0  0
   -0.5735    0.9012   -5.9986 S   0  0  0  0  0  0  0  0  0  0  0  0
   -1.8976    3.2363   -6.7214 C   0  0  0  0  0  0  0  0  0  0  0  0
   -2.7740    4.2663   -6.5037 C   0  0  0  0  0  0  0  0  0  0  0  0
   -3.1100    5.2478   -7.4349 C   0  0  0  0  0  0  0  0  0  0  0  0
   -2.6748    5.1392   -8.8341 C   0  0  0  0  0  0  0  0  0  0  0  0
   -1.8135    4.1965   -9.2757 C   0  0  0  0  0  0  0  0  0  0  0  0
   -1.1007    2.9980   -8.2709 S   0  0  0  0  0  0  0  0  0  0  0  0
   -3.3472    6.1928   -9.5114 C   0  0  0  0  0  0  0  0  0  0  0  0
   -4.1257    6.9165   -8.6042 C   0  0  0  0  0  0  0  0  0  0  0  0
   -4.8041    7.9898   -9.2225 C   0  0  0  0  0  0  0  0  0  0  0  0
   -4.5344    8.0513  -10.5525 C   0  0  0  0  0  0  0  0  0  0  0  0
   -3.4477    6.8223  -11.1087 S   0  0  0  0  0  0  0  0  0  0  0  0
   -3.9612    6.3537   -7.2916 C   0  0  0  0  0  0  0  0  0  0  0  0
   -4.5423    6.8397   -6.0871 C   0  0  0  0  0  0  0  0  0  0  0  0
   -3.9859    6.6383   -4.8664 C   0  0  0  0  0  0  0  0  0  0  0  0
   -4.5362    6.9389   -3.5858 C   0  0  0  0  0  0  0  0  0  0  0  0
   -5.7804    7.4573   -3.3372 C   0  0  0  0  0  0  0  0  0  0  0  0
   -6.3235    7.6623   -2.0643 C   0  0  0  0  0  0  0  0  0  0  0  0
   -5.5542    7.3349   -0.8527 C   0  0  0  0  0  0  0  0  0  0  0  0
   -4.2975    6.8427   -0.8513 C   0  0  0  0  0  0  0  0  0  0  0  0
   -3.4280    6.4849   -2.2822 S   0  0  0  0  0  0  0  0  0  0  0  0
   -6.4206    7.6378    0.2282 C   0  0  0  0  0  0  0  0  0  0  0  0
   -7.6380    8.1247   -0.2570 C   0  0  0  0  0  0  0  0  0  0  0  0
   -8.5413    8.3945    0.7980 C   0  0  0  0  0  0  0  0  0  0  0  0
   -8.0009    8.1164    2.0124 C   0  0  0  0  0  0  0  0  0  0  0  0
   -6.3792    7.5142    1.9429 S   0  0  0  0  0  0  0  0  0  0  0  0
   -7.5806    8.1541   -1.6949 C   0  0  0  0  0  0  0  0  0  0  0  0
   -8.5941    8.5895   -2.6120 C   0  0  0  0  0  0  0  0  0  0  0  0
   -9.7207    9.2328   -2.3042 C   0  0  0  0  0  0  0  0  0  0  0  0
    4.8373   -5.6468   -1.1539 H   0  0  0  0  0  0  0  0  0  0  0  0
    4.7495   -4.6749    1.0540 H   0  0  0  0  0  0  0  0  0  0  0  0
    3.0894   -1.7210   -2.7630 H   0  0  0  0  0  0  0  0  0  0  0  0
    2.7935    0.6175    2.9397 H   0  0  0  0  0  0  0  0  0  0  0  0
    1.9272    2.3071    1.1534 H   0  0  0  0  0  0  0  0  0  0  0  0
    3.9397   -1.4410    3.6394 H   0  0  0  0  0  0  0  0  0  0  0  0
    4.6052   -4.3644    3.0472 H   0  0  0  0  0  0  0  0  0  0  0  0
    4.9851   -5.6369    4.9606 H   0  0  0  0  0  0  0  0  0  0  0  0
    5.0236   -1.7645    8.2603 H   0  0  0  0  0  0  0  0  0  0  0  0
    4.9727   -7.5587   10.5112 H   0  0  0  0  0  0  0  0  0  0  0  0
    5.2130   -5.8054   12.4283 H   0  0  0  0  0  0  0  0  0  0  0  0
    5.0512   -8.2924    7.9247 H   0  0  0  0  0  0  0  0  0  0  0  0
    3.9489   -9.0579    5.9971 H   0  0  0  0  0  0  0  0  0  0  0  0
    2.3955   -5.5881    6.4728 H   0  0  0  0  0  0  0  0  0  0  0  0
    1.0914   -0.1836    8.5970 H   0  0  0  0  0  0  0  0  0  0  0  0
    2.1148    0.3428    7.2466 H   0  0  0  0  0  0  0  0  0  0  0  0
   -0.9402    0.4581    7.3003 H   0  0  0  0  0  0  0  0  0  0  0  0
    0.1495    1.8373    7.4745 H   0  0  0  0  0  0  0  0  0  0  0  0
    0.0745    0.9556    5.9436 H   0  0  0  0  0  0  0  0  0  0  0  0
    4.9948   -8.9120   -1.5832 H   0  0  0  0  0  0  0  0  0  0  0  0
    3.7001   -9.1762   -2.7691 H   0  0  0  0  0  0  0  0  0  0  0  0
    4.4605  -11.3291   -1.7713 H   0  0  0  0  0  0  0  0  0  0  0  0
    2.7766  -11.0028   -1.3489 H   0  0  0  0  0  0  0  0  0  0  0  0
    4.0528  -10.7322   -0.1582 H   0  0  0  0  0  0  0  0  0  0  0  0
    1.0686   -4.4047   -0.4263 H   0  0  0  0  0  0  0  0  0  0  0  0
    0.7990   -2.7761   -2.0046 H   0  0  0  0  0  0  0  0  0  0  0  0
    3.1027   -5.0636   -6.4217 H   0  0  0  0  0  0  0  0  0  0  0  0
    1.4106   -5.3003   -6.8728 H   0  0  0  0  0  0  0  0  0  0  0  0
    2.1241   -7.0723   -5.3070 H   0  0  0  0  0  0  0  0  0  0  0  0
    0.8874   -6.0615   -4.5559 H   0  0  0  0  0  0  0  0  0  0  0  0
    2.5832   -5.8613   -4.1062 H   0  0  0  0  0  0  0  0  0  0  0  0
   -5.8149    4.7169    0.2189 H   0  0  0  0  0  0  0  0  0  0  0  0
   -6.4804    3.0862    0.2340 H   0  0  0  0  0  0  0  0  0  0  0  0
   -6.8037    3.1402   -2.2145 H   0  0  0  0  0  0  0  0  0  0  0  0
   -6.0732    4.7418   -2.3039 H   0  0  0  0  0  0  0  0  0  0  0  0
   -7.6085    4.5249   -1.4657 H   0  0  0  0  0  0  0  0  0  0  0  0
   -2.5087    3.1942   -3.9528 H   0  0  0  0  0  0  0  0  0  0  0  0
   -3.2673    4.2947   -5.5452 H   0  0  0  0  0  0  0  0  0  0  0  0
   -1.4892    4.1400  -10.3030 H   0  0  0  0  0  0  0  0  0  0  0  0
   -5.4559    8.6790   -8.7168 H   0  0  0  0  0  0  0  0  0  0  0  0
   -4.9097    8.7573  -11.2675 H   0  0  0  0  0  0  0  0  0  0  0  0
   -5.4565    7.4092   -6.1869 H   0  0  0  0  0  0  0  0  0  0  0  0
   -2.9959    6.2042   -4.8285 H   0  0  0  0  0  0  0  0  0  0  0  0
   -6.3853    7.7059   -4.1976 H   0  0  0  0  0  0  0  0  0  0  0  0
   -3.7566    6.6221    0.0552 H   0  0  0  0  0  0  0  0  0  0  0  0
   -9.5441    8.7627    0.6845 H   0  0  0  0  0  0  0  0  0  0  0  0
   -8.4607    8.2269    2.9753 H   0  0  0  0  0  0  0  0  0  0  0  0
   -8.3924    8.3720   -3.6538 H   0  0  0  0  0  0  0  0  0  0  0  0
   -9.9728    9.5054   -1.2959 H   0  0  0  0  0  0  0  0  0  0  0  0
  -10.4238    9.5227   -3.0660 H   0  0  0  0  0  0  0  0  0  0  0  0
  1  2  2  0  0  0  0
  2  3  1  0  0  0  0
  3  4  1  0  0  0  0
  4  5  2  0  0  0  0
  5  6  1  0  0  0  0
  4  7  1  0  0  0  0
  7  8  2  0  0  0  0
  8  9  1  0  0  0  0
  9 10  2  0  0  0  0
 10 11  1  0  0  0  0
  8 12  1  0  0  0  0
 12 13  1  0  0  0  0
 13 14  2  0  0  0  0
 14 15  1  0  0  0  0
 15 16  2  0  0  0  0
 16 17  1  0  0  0  0
 17 18  1  0  0  0  0
 18 19  2  0  0  0  0
 19 20  1  0  0  0  0
 18 21  1  0  0  0  0
 21 22  2  0  0  0  0
 22 23  1  0  0  0  0
 23 24  2  0  0  0  0
 24 25  1  0  0  0  0
 22 26  1  0  0  0  0
 26 27  1  0  0  0  0
 27 28  2  0  0  0  0
 28 29  1  0  0  0  0
 29 30  2  0  0  0  0
 30 31  1  0  0  0  0
 31 32  2  0  0  0  0
 32 33  1  0  0  0  0
 33 34  1  0  0  0  0
 34 35  1  0  0  0  0
 35 36  1  0  0  0  0
 36 37  1  0  0  0  0
 35 38  2  0  0  0  0
 38 39  1  0  0  0  0
 38 40  1  0  0  0  0
 40 41  1  0  0  0  0
 32 42  1  0  0  0  0
 42 43  2  0  0  0  0
 43 44  1  0  0  0  0
 44 45  1  0  0  0  0
 45 46  1  0  0  0  0
 46 47  1  0  0  0  0
 47 48  1  0  0  0  0
 48 49  1  0  0  0  0
 47 50  2  0  0  0  0
 50 51  1  0  0  0  0
 51 52  1  0  0  0  0
 50 53  1  0  0  0  0
 44 54  2  0  0  0  0
 54 55  1  0  0  0  0
 43 56  1  0  0  0  0
 56 57  2  0  0  0  0
 57 58  1  0  0  0  0
 57 59  1  0  0  0  0
 59 60  2  0  0  0  0
 60 61  1  0  0  0  0
 61 62  2  0  0  0  0
 62 63  1  0  0  0  0
 63 64  1  0  0  0  0
 64 65  1  0  0  0  0
 65 66  1  0  0  0  0
 66 67  1  0  0  0  0
 65 68  2  0  0  0  0
 68 69  1  0  0  0  0
 68 70  1  0  0  0  0
 70 71  1  0  0  0  0
 62 72  1  0  0  0  0
 72 73  2  0  0  0  0
 73 74  1  0  0  0  0
 74 75  1  0  0  0  0
 75 76  1  0  0  0  0
 76 77  1  0  0  0  0
 77 78  1  0  0  0  0
 78 79  1  0  0  0  0
 77 80  2  0  0  0  0
 80 81  1  0  0  0  0
 81 82  1  0  0  0  0
 80 83  1  0  0  0  0
 74 84  2  0  0  0  0
 84 85  1  0  0  0  0
 73 86  1  0  0  0  0
 86 87  2  0  0  0  0
 87 88  1  0  0  0  0
 87 89  1  0  0  0  0
 89 90  2  0  0  0  0
 90 91  1  0  0  0  0
 91 92  1  0  0  0  0
 92 93  2  0  0  0  0
 93 94  1  0  0  0  0
 92 95  1  0  0  0  0
 95 96  2  0  0  0  0
 96 97  1  0  0  0  0
 97 98  2  0  0  0  0
 98 99  1  0  0  0  0
 96100  1  0  0  0  0
100101  1  0  0  0  0
101102  2  0  0  0  0
102103  1  0  0  0  0
103104  2  0  0  0  0
104105  1  0  0  0  0
105106  1  0  0  0  0
106107  2  0  0  0  0
107108  1  0  0  0  0
106109  1  0  0  0  0
109110  2  0  0  0  0
110111  1  0  0  0  0
111112  2  0  0  0  0
112113  1  0  0  0  0
110114  1  0  0  0  0
114115  1  0  0  0  0
115116  2  0  0  0  0
  6  1  1  0  0  0  0
 11  7  1  0  0  0  0
 20 15  1  0  0  0  0
 25 21  1  0  0  0  0
 55 29  1  0  0  0  0
 85 59  1  0  0  0  0
 94 89  1  0  0  0  0
 99 95  1  0  0  0  0
108103  1  0  0  0  0
113109  1  0  0  0  0
 12  3  2  0  0  0  0
 26 17  2  0  0  0  0
 54 31  1  0  0  0  0
 84 61  1  0  0  0  0
100 91  2  0  0  0  0
114105  2  0  0  0  0
 40 33  2  0  0  0  0
 58 42  1  0  0  0  0
 70 63  2  0  0  0  0
 88 72  1  0  0  0  0
 51 45  2  0  0  0  0
 81 75  2  0  0  0  0
  1117  1  0  0  0  0
  2118  1  0  0  0  0
  5119  1  0  0  0  0
  9120  1  0  0  0  0
 10121  1  0  0  0  0
 13122  1  0  0  0  0
 14123  1  0  0  0  0
 16124  1  0  0  0  0
 19125  1  0  0  0  0
 23126  1  0  0  0  0
 24127  1  0  0  0  0
 27128  1  0  0  0  0
 28129  1  0  0  0  0
 30130  1  0  0  0  0
 36131  1  0  0  0  0
 36132  1  0  0  0  0
 37133  1  0  0  0  0
 37134  1  0  0  0  0
 37135  1  0  0  0  0
 48136  1  0  0  0  0
 48137  1  0  0  0  0
 49138  1  0  0  0  0
 49139  1  0  0  0  0
 49140  1  0  0  0  0
 56141  1  0  0  0  0
 60142  1  0  0  0  0
 66143  1  0  0  0  0
 66144  1  0  0  0  0
 67145  1  0  0  0  0
 67146  1  0  0  0  0
 67147  1  0  0  0  0
 78148  1  0  0  0  0
 78149  1  0  0  0  0
 79150  1  0  0  0  0
 79151  1  0  0  0  0
 79152  1  0  0  0  0
 86153  1  0  0  0  0
 90154  1  0  0  0  0
 93155  1  0  0  0  0
 97156  1  0  0  0  0
 98157  1  0  0  0  0
101158  1  0  0  0  0
102159  1  0  0  0  0
104160  1  0  0  0  0
107161  1  0  0  0  0
111162  1  0  0  0  0
112163  1  0  0  0  0
115164  1  0  0  0  0
116165  1  0  0  0  0
116166  1  0  0  0  0
M  END
