77

C          5.50720       -1.28970       12.03240
C          4.17630       -1.24880       11.82720
C          3.94650       -0.33340       10.71240
C          3.04800        0.24680        9.90110
C          3.86550        1.09340        8.97810
N          5.14880        1.01870        9.23480
C          5.26820        0.15260       10.29450
C          6.21080       -0.41770       11.08080
C          3.39200        1.89000        7.90400
C          2.06820        2.02520        7.54860
C          1.62410        2.77820        6.46730
C          2.56330        3.47950        5.58670
C          3.90440        3.48980        5.76920
S          4.70820        2.67420        7.04380
C          1.75710        4.07600        4.58020
C          0.41170        3.75950        4.79600
C         -0.43610        4.38690        3.85230
C          0.27040        5.12330        2.95850
S          1.98400        5.10080        3.22070
C          0.31190        2.94070        5.97260
C         -0.87960        2.46860        6.58890
C         -2.04780        2.15600        5.96850
C         -2.22370        1.89310        4.58050
C         -3.41810        1.85150        3.90490
C         -3.14380        1.44860        2.55070
C         -3.64630        1.10940        1.34650
C         -2.46170        0.69510        0.54070
N         -1.33770        0.78690        1.21270
C         -1.68820        1.23550        2.46080
C         -1.12920        1.48120        3.66390
C         -2.50270        0.18210       -0.78080
C         -3.59710       -0.01620       -1.58660
C         -3.12800       -0.63880       -2.79730
C         -3.45460       -1.18000       -3.98940
C         -2.16120       -1.65390       -4.55930
N         -1.14250       -1.40500       -3.77050
C         -1.66790       -0.78730       -2.66450
C         -1.28100       -0.29820       -1.46670
C         -2.00760       -2.33960       -5.79210
C         -2.97760       -2.68690       -6.70050
C         -2.32840       -3.41330       -7.76060
C         -2.47060       -4.08020       -8.92390
C         -1.09340       -4.53620       -9.27200
N         -0.20100       -4.16320       -8.38310
C         -0.89370       -3.47050       -7.42520
C         -0.68920       -2.83030       -6.25280
C         -0.75240       -5.30140      -10.41280
C         -1.57390       -5.76410      -11.40740
C         -0.75240       -6.50710      -12.32940
C         -0.70310       -7.24450      -13.46160
C          0.72040       -7.61350      -13.60080
N          1.47720       -7.16160      -12.66440
C          0.62520       -6.45250      -11.81650
C          0.64900       -5.74260      -10.67770
H          6.02040       -1.86970       12.77870
H          3.41200       -1.77860       12.36370
H          1.97930        0.15360        9.87230
H          7.27660       -0.28910       11.05040
H          1.33380        1.50140        8.14450
H          4.56630        4.01910        5.10180
H         -1.50750        4.30910        3.83860
H         -0.10920        5.69800        2.13650
H         -0.84970        2.39880        7.67050
H         -2.92890        2.01480        6.58310
H         -4.38570        2.09130        4.30580
H         -4.65970        1.09720        0.99460
H         -0.10850        1.34340        3.96290
H         -4.61930        0.22950       -1.36700
H         -4.40950       -1.28320       -4.46770
H         -0.30720       -0.24580       -1.02100
H         -4.02830       -2.47250       -6.64430
H         -3.34690       -4.27560       -9.51120
H          0.21440       -2.67320       -5.69730
H         -2.63290       -5.61330      -11.50050
H         -1.48100       -7.53170      -14.14340
H          1.12130       -8.20750      -14.40400
H          1.46360       -5.49610      -10.02480
