
  xtb     03032203103D
 energy: -184.573081179760 gnorm: 0.000604199373 xtb: 6.4.1 (unknown)
 97109  0     0  0            999 V2000
   -2.0602   -2.4874   -1.1641 C   0  0  0  0  0  0  0  0  0  0  0  0
   -2.4826   -4.1423   -1.4167 S   0  0  0  0  0  0  0  0  0  0  0  0
   -3.8828   -3.9910   -0.4153 C   0  0  0  0  0  0  0  0  0  0  0  0
   -3.9970   -2.7354    0.0578 C   0  0  0  0  0  0  0  0  0  0  0  0
   -2.9503   -1.8537   -0.3511 C   0  0  0  0  0  0  0  0  0  0  0  0
   -3.1640   -0.4949    0.1360 C   0  0  0  0  0  0  0  0  0  0  0  0
   -4.3438   -0.3921    0.7891 C   0  0  0  0  0  0  0  0  0  0  0  0
   -5.1930   -1.9563    1.1605 S   0  0  0  0  0  3  0  0  0  0  0  0
   -6.4968   -1.9317    0.5056 O   0  0  0  0  0  1  0  0  0  0  0  0
   -2.2762    0.6268   -0.0044 C   0  0  0  0  0  0  0  0  0  0  0  0
   -1.0107    0.5978   -0.4679 C   0  0  0  0  0  0  0  0  0  0  0  0
   -0.1109    1.7095   -0.4833 C   0  0  0  0  0  0  0  0  0  0  0  0
    1.1806    1.5769   -0.9327 C   0  0  0  0  0  0  0  0  0  0  0  0
    2.1492    2.5841   -0.9360 C   0  0  0  0  0  0  0  0  0  0  0  0
    1.8480    3.8863   -0.3161 C   0  0  0  0  0  0  0  0  0  0  0  0
    0.6355    4.2498    0.1529 C   0  0  0  0  0  0  0  0  0  0  0  0
   -0.7467    3.2358    0.1186 S   0  0  0  0  0  0  0  0  0  0  0  0
    3.0575    4.6288   -0.3763 C   0  0  0  0  0  0  0  0  0  0  0  0
    4.0339    3.8729   -1.0219 C   0  0  0  0  0  0  0  0  0  0  0  0
    5.2554    4.5715   -1.1387 C   0  0  0  0  0  0  0  0  0  0  0  0
    5.1746    5.8105   -0.5862 C   0  0  0  0  0  0  0  0  0  0  0  0
    3.6241    6.1829    0.0889 S   0  0  0  0  0  0  0  0  0  0  0  0
    3.4779    2.5963   -1.4003 C   0  0  0  0  0  0  0  0  0  0  0  0
    4.2230    1.6789   -2.1853 C   0  0  0  0  0  0  0  0  0  0  0  0
    3.7930    0.5489   -2.7985 C   0  0  0  0  0  0  0  0  0  0  0  0
    4.5725   -0.2171   -3.7026 C   0  0  0  0  0  0  0  0  0  0  0  0
    6.1945    0.2473   -4.1850 S   0  0  0  0  0  0  0  0  0  0  0  0
    6.2874   -1.0284   -5.3518 C   0  0  0  0  0  0  0  0  0  0  0  0
    5.1531   -1.7601   -5.3651 C   0  0  0  0  0  0  0  0  0  0  0  0
    4.1837   -1.3330   -4.4206 C   0  0  0  0  0  0  0  0  0  0  0  0
    2.9821   -2.1394   -4.4558 C   0  0  0  0  0  0  0  0  0  0  0  0
    3.0058   -3.0647   -5.4260 C   0  0  0  0  0  0  0  0  0  0  0  0
    4.5805   -3.1880   -6.3360 S   0  0  0  0  0  3  0  0  0  0  0  0
    4.3604   -2.7298   -7.7087 O   0  0  0  0  0  1  0  0  0  0  0  0
    1.9074   -1.9532   -3.4735 C   0  0  0  0  0  0  0  0  0  0  0  0
    1.9820   -2.4310   -2.2259 C   0  0  0  0  0  0  0  0  0  0  0  0
    3.0126   -3.2731   -1.6877 C   0  0  0  0  0  0  0  0  0  0  0  0
    4.1488   -4.1708   -2.6707 S   0  0  0  0  0  0  0  0  0  0  0  0
    4.7751   -5.0135   -1.2962 C   0  0  0  0  0  0  0  0  0  0  0  0
    4.1626   -4.6182   -0.1603 C   0  0  0  0  0  0  0  0  0  0  0  0
    3.1828   -3.6113   -0.3642 C   0  0  0  0  0  0  0  0  0  0  0  0
    2.5668   -3.1741    0.8726 C   0  0  0  0  0  0  0  0  0  0  0  0
    3.0053   -3.8645    1.9360 C   0  0  0  0  0  0  0  0  0  0  0  0
    4.2957   -5.1055    1.5887 S   0  0  0  0  0  3  0  0  0  0  0  0
    3.6848   -6.4294    1.7180 O   0  0  0  0  0  1  0  0  0  0  0  0
    1.6895   -2.0079    0.9360 C   0  0  0  0  0  0  0  0  0  0  0  0
    0.4450   -1.9627    1.4226 C   0  0  0  0  0  0  0  0  0  0  0  0
   -0.3776   -3.0699    1.8178 C   0  0  0  0  0  0  0  0  0  0  0  0
   -0.0908   -4.7128    1.2917 S   0  0  0  0  0  0  0  0  0  0  0  0
   -1.5899   -5.2536    1.9561 C   0  0  0  0  0  0  0  0  0  0  0  0
   -2.2549   -4.2411    2.5562 C   0  0  0  0  0  0  0  0  0  0  0  0
   -1.5668   -3.0010    2.5089 C   0  0  0  0  0  0  0  0  0  0  0  0
   -2.2890   -1.9271    3.1660 C   0  0  0  0  0  0  0  0  0  0  0  0
   -3.5102   -2.3196    3.5801 C   0  0  0  0  0  0  0  0  0  0  0  0
   -3.8561   -4.0969    3.4019 S   0  0  0  0  0  3  0  0  0  0  0  0
   -4.9043   -4.2656    2.3879 O   0  0  0  0  0  1  0  0  0  0  0  0
   -1.6857   -0.6256    3.3536 C   0  0  0  0  0  0  0  0  0  0  0  0
   -2.3440    0.5429    3.3103 C   0  0  0  0  0  0  0  0  0  0  0  0
   -1.7038    1.8149    3.4092 C   0  0  0  0  0  0  0  0  0  0  0  0
    0.0282    1.9201    3.6812 S   0  0  0  0  0  0  0  0  0  0  0  0
    0.0199    3.6339    3.4890 C   0  0  0  0  0  0  0  0  0  0  0  0
   -1.2274    4.0909    3.2474 C   0  0  0  0  0  0  0  0  0  0  0  0
   -2.2266    3.0762    3.2133 C   0  0  0  0  0  0  0  0  0  0  0  0
   -3.5432    3.6193    2.9237 C   0  0  0  0  0  0  0  0  0  0  0  0
   -3.5011    4.9364    2.6613 C   0  0  0  0  0  0  0  0  0  0  0  0
   -1.8618    5.7095    2.7218 S   0  0  0  0  0  3  0  0  0  0  0  0
   -1.8452    6.6354    3.8535 O   0  0  0  0  0  1  0  0  0  0  0  0
   -4.8017    2.8739    2.9703 C   0  0  0  0  0  0  0  0  0  0  0  0
   -5.1389    2.0419    3.9455 C   0  0  0  0  0  0  0  0  0  0  0  0
   -1.1903   -2.1173   -1.6664 H   0  0  0  0  0  0  0  0  0  0  0  0
   -4.5261   -4.8297   -0.2463 H   0  0  0  0  0  0  0  0  0  0  0  0
   -4.7434    0.5208    1.1940 H   0  0  0  0  0  0  0  0  0  0  0  0
   -2.6740    1.5630    0.3676 H   0  0  0  0  0  0  0  0  0  0  0  0
   -0.5954   -0.3269   -0.8374 H   0  0  0  0  0  0  0  0  0  0  0  0
    1.4579    0.5938   -1.2852 H   0  0  0  0  0  0  0  0  0  0  0  0
    0.4407    5.2269    0.5668 H   0  0  0  0  0  0  0  0  0  0  0  0
    6.1467    4.1883   -1.6015 H   0  0  0  0  0  0  0  0  0  0  0  0
    5.9448    6.5547   -0.5291 H   0  0  0  0  0  0  0  0  0  0  0  0
    5.2516    1.9711   -2.3632 H   0  0  0  0  0  0  0  0  0  0  0  0
    2.7769    0.2051   -2.6865 H   0  0  0  0  0  0  0  0  0  0  0  0
    7.1697   -1.1306   -5.9504 H   0  0  0  0  0  0  0  0  0  0  0  0
    2.2288   -3.7750   -5.6394 H   0  0  0  0  0  0  0  0  0  0  0  0
    1.0433   -1.3864   -3.7940 H   0  0  0  0  0  0  0  0  0  0  0  0
    1.1879   -2.2203   -1.5196 H   0  0  0  0  0  0  0  0  0  0  0  0
    5.5429   -5.7477   -1.4338 H   0  0  0  0  0  0  0  0  0  0  0  0
    2.7032   -3.7061    2.9549 H   0  0  0  0  0  0  0  0  0  0  0  0
    2.1478   -1.0926    0.5807 H   0  0  0  0  0  0  0  0  0  0  0  0
   -0.0540   -1.0035    1.4665 H   0  0  0  0  0  0  0  0  0  0  0  0
   -1.8742   -6.2807    1.8477 H   0  0  0  0  0  0  0  0  0  0  0  0
   -4.2100   -1.7170    4.1279 H   0  0  0  0  0  0  0  0  0  0  0  0
   -0.6160   -0.6264    3.5190 H   0  0  0  0  0  0  0  0  0  0  0  0
   -3.4068    0.5544    3.1248 H   0  0  0  0  0  0  0  0  0  0  0  0
    0.9371    4.1818    3.5706 H   0  0  0  0  0  0  0  0  0  0  0  0
   -4.3482    5.5567    2.4324 H   0  0  0  0  0  0  0  0  0  0  0  0
   -5.5035    3.1044    2.1790 H   0  0  0  0  0  0  0  0  0  0  0  0
   -6.0975    1.5520    3.9607 H   0  0  0  0  0  0  0  0  0  0  0  0
   -4.4824    1.8451    4.7774 H   0  0  0  0  0  0  0  0  0  0  0  0
  1  2  1  0  0  0  0
  2  3  1  0  0  0  0
  3  4  2  0  0  0  0
  4  5  1  0  0  0  0
  5  6  1  0  0  0  0
  6  7  2  0  0  0  0
  7  8  1  0  0  0  0
  8  9  1  0  0  0  0
  6 10  1  0  0  0  0
 10 11  2  0  0  0  0
 11 12  1  0  0  0  0
 12 13  2  0  0  0  0
 13 14  1  0  0  0  0
 14 15  1  0  0  0  0
 15 16  2  0  0  0  0
 16 17  1  0  0  0  0
 15 18  1  0  0  0  0
 18 19  2  0  0  0  0
 19 20  1  0  0  0  0
 20 21  2  0  0  0  0
 21 22  1  0  0  0  0
 19 23  1  0  0  0  0
 23 24  1  0  0  0  0
 24 25  2  0  0  0  0
 25 26  1  0  0  0  0
 26 27  1  0  0  0  0
 27 28  1  0  0  0  0
 28 29  2  0  0  0  0
 29 30  1  0  0  0  0
 30 31  1  0  0  0  0
 31 32  2  0  0  0  0
 32 33  1  0  0  0  0
 33 34  1  0  0  0  0
 31 35  1  0  0  0  0
 35 36  2  0  0  0  0
 36 37  1  0  0  0  0
 37 38  1  0  0  0  0
 38 39  1  0  0  0  0
 39 40  2  0  0  0  0
 40 41  1  0  0  0  0
 41 42  1  0  0  0  0
 42 43  2  0  0  0  0
 43 44  1  0  0  0  0
 44 45  1  0  0  0  0
 42 46  1  0  0  0  0
 46 47  2  0  0  0  0
 47 48  1  0  0  0  0
 48 49  1  0  0  0  0
 49 50  1  0  0  0  0
 50 51  2  0  0  0  0
 51 52  1  0  0  0  0
 52 53  1  0  0  0  0
 53 54  2  0  0  0  0
 54 55  1  0  0  0  0
 55 56  1  0  0  0  0
 53 57  1  0  0  0  0
 57 58  2  0  0  0  0
 58 59  1  0  0  0  0
 59 60  1  0  0  0  0
 60 61  1  0  0  0  0
 61 62  2  0  0  0  0
 62 63  1  0  0  0  0
 63 64  1  0  0  0  0
 64 65  2  0  0  0  0
 65 66  1  0  0  0  0
 66 67  1  0  0  0  0
 64 68  1  0  0  0  0
 68 69  2  0  0  0  0
  5  1  2  0  0  0  0
 17 12  1  0  0  0  0
 22 18  1  0  0  0  0
 30 26  2  0  0  0  0
 41 37  2  0  0  0  0
 52 48  2  0  0  0  0
 63 59  2  0  0  0  0
  8  4  1  0  0  0  0
 23 14  2  0  0  0  0
 33 29  1  0  0  0  0
 44 40  1  0  0  0  0
 55 51  1  0  0  0  0
 66 62  1  0  0  0  0
  1 70  1  0  0  0  0
  3 71  1  0  0  0  0
  7 72  1  0  0  0  0
 10 73  1  0  0  0  0
 11 74  1  0  0  0  0
 13 75  1  0  0  0  0
 16 76  1  0  0  0  0
 20 77  1  0  0  0  0
 21 78  1  0  0  0  0
 24 79  1  0  0  0  0
 25 80  1  0  0  0  0
 28 81  1  0  0  0  0
 32 82  1  0  0  0  0
 35 83  1  0  0  0  0
 36 84  1  0  0  0  0
 39 85  1  0  0  0  0
 43 86  1  0  0  0  0
 46 87  1  0  0  0  0
 47 88  1  0  0  0  0
 50 89  1  0  0  0  0
 54 90  1  0  0  0  0
 57 91  1  0  0  0  0
 58 92  1  0  0  0  0
 61 93  1  0  0  0  0
 65 94  1  0  0  0  0
 68 95  1  0  0  0  0
 69 96  1  0  0  0  0
 69 97  1  0  0  0  0
M  END
