187

C         13.93700        2.49230       -3.92250
C         12.90900        2.79270       -3.03770
C         12.23370        1.76010       -2.42120
C         11.09990        1.81460       -1.42190
C         11.58270        2.28980       -0.03120
C         12.15490        3.69980        0.02940
C          9.91570        2.65090       -1.92710
C          9.34380        2.11170       -3.23340
C         10.74860        0.34760       -1.28650
C         11.64020       -0.44640       -2.02120
C         12.56020        0.42870       -2.72600
C         13.58770        0.13250       -3.60580
C         14.28030        1.17770       -4.19460
C         11.52460       -1.82680       -2.00430
C         10.51720       -2.40270       -1.25180
C          9.62070       -1.62320       -0.52070
C          9.74760       -0.23120       -0.54200
C          8.55660       -2.24880        0.27520
C          7.27730       -1.68550        0.29520
C          6.29610       -2.24360        1.08270
C          4.85120       -1.81820        1.26360
C          4.70720       -0.43910        1.93910
C          5.18960        0.76380        1.13860
C          4.15640       -1.91940       -0.11040
C          2.65730       -1.64940       -0.11950
C          4.35320       -2.86960        2.23630
C          5.36550       -3.79510        2.53220
C          6.56700       -3.40710        1.82030
C          7.82610       -3.98460        1.79200
C          8.81450       -3.39480        1.02690
C          5.13170       -4.83950        3.41260
C          3.89570       -4.93420        4.02430
C          2.89590       -3.99430        3.77670
C          3.13430       -2.95850        2.86890
C          1.61730       -4.03650        4.49800
C          0.42300       -3.74590        3.83140
C         -0.76190       -3.69220        4.53140
C         -2.16220       -3.35700        4.05440
C         -2.79160       -4.45480        3.16190
C         -1.86430       -5.13830        2.16390
C         -2.26320       -1.94160        3.44390
C         -1.73600       -1.74730        2.02810
C         -2.92160       -3.34380        5.37070
C         -2.08860       -3.70950        6.43690
C         -0.75460       -3.92390        5.91850
C          0.41690       -4.25040        6.58210
C          1.59640       -4.30730        5.86550
C         -2.59180       -3.77710        7.72680
C         -3.91170       -3.43680        7.94670
C         -4.74680       -3.03730        6.89860
C         -4.24020       -3.02990        5.59060
C         -6.10530       -2.58470        7.16110
C         -6.74470       -1.68440        6.36180
C         -8.02650       -1.16140        6.58280
C         -8.79640       -1.53520        7.77380
C         -8.36780       -2.41830        8.70000
S         -6.85490       -3.22650        8.61960
C         -9.99610       -0.77960        7.68790
C         -9.98780        0.00230        6.53060
C        -11.17630        0.75830        6.40940
C        -12.02490        0.54030        7.44770
S        -11.43140       -0.58900        8.61620
C         -8.75080       -0.23460        5.82460
C         -8.31120        0.29090        4.57770
C         -8.91730        1.23600        3.82960
C         -8.48010        1.69950        2.53440
C         -7.37960        1.14630        1.85910
C         -7.06080        1.57220        0.59310
C         -5.93720        1.11520       -0.32080
C         -6.04390       -0.36530       -0.73640
C         -5.81830       -1.40020        0.35980
C         -4.60380        1.47310        0.37110
C         -3.34010        1.16330       -0.42090
C         -6.18060        1.98030       -1.54420
C         -7.24140        2.87190       -1.31750
C         -7.79220        2.61210       -0.00550
C         -8.86120        3.19450        0.65860
C         -9.20300        2.72510        1.90940
C         -7.62360        3.78190       -2.29060
C         -6.95930        3.77950       -3.50210
C         -5.94640        2.85830       -3.76420
C         -5.56000        1.95210       -2.77320
C         -5.31270        2.82330       -5.09000
C         -5.14520        1.60380       -5.74990
C         -4.59280        1.58690       -7.01040
C         -4.36870        0.39690       -7.92770
C         -5.74690       -0.25960       -8.18790
C         -5.94730       -0.94230       -9.53560
C         -3.37110       -0.54550       -7.21910
C         -3.05830       -1.86660       -7.90860
C         -3.75960        1.07140       -9.14140
C         -3.65740        2.45820       -8.93560
C         -4.18430        2.77800       -7.62210
C         -4.33240        3.99110       -6.96910
C         -4.90340        4.00350       -5.71000
C         -3.11870        3.29180       -9.90120
C         -2.67150        2.73550      -11.08730
C         -2.76280        1.36930      -11.29490
C         -3.30410        0.53160      -10.32780
H         14.47300        3.29530       -4.40750
H         12.64290        3.82350       -2.85680
H         10.73620        2.21850        0.65620
H         12.34630        1.58760        0.31420
H         12.42050        3.93660        1.05770
H         13.05260        3.77950       -0.57730
H         11.43160        4.43710       -0.30910
H         10.24290        3.68010       -2.08130
H          9.13550        2.65740       -1.16240
H          8.98220        1.09390       -3.10400
H         10.10620        2.10620       -4.00940
H          8.51570        2.73320       -3.56740
H         13.83940       -0.89240       -3.83500
H         15.08620        0.96760       -4.88290
H         12.20540       -2.44530       -2.57030
H         10.40450       -3.47720       -1.24560
H          9.07030        0.37610        0.04120
H          7.07360       -0.83120       -0.33210
H          3.65480       -0.29440        2.18980
H          5.26000       -0.47890        2.88190
H          6.26350        0.72380        0.98330
H          4.69440        0.82470        0.17300
H          4.96530        1.67510        1.69020
H          4.33290       -2.92910       -0.49190
H          4.65020       -1.22640       -0.79360
H          2.12640       -2.40350        0.45480
H          2.28950       -1.68630       -1.14320
H          2.42680       -0.66770        0.28620
H          8.03520       -4.87780        2.36210
H          9.80910       -3.81630        1.02050
H          5.90560       -5.56090        3.62920
H          3.69690       -5.74830        4.70630
H          2.36870       -2.21310        2.71440
H          0.45480       -3.57970        2.76650
H         -3.19070       -5.22880        3.82330
H         -3.63900       -4.01460        2.63140
H         -1.05780       -5.65350        2.67930
H         -2.43140       -5.87640        1.59920
H         -1.43190       -4.43480        1.45980
H         -3.31830       -1.65590        3.45150
H         -1.73760       -1.25710        4.11570
H         -2.27880       -2.36470        1.31740
H         -1.87000       -0.70620        1.73920
H         -0.67730       -1.97610        1.95980
H          0.41170       -4.43690        7.64570
H          2.52370       -4.52530        6.37460
H         -1.96090       -4.07140        8.55180
H         -4.30370       -3.45290        8.95310
H         -4.88960       -2.78930        4.76240
H         -6.19590       -1.31290        5.50830
H         -8.95110       -2.68510        9.56730
H        -11.41250        1.42960        5.60450
H        -12.98960        0.98030        7.61000
H         -7.38940       -0.14260        4.21440
H         -9.81910        1.69990        4.20100
H         -6.79160        0.38210        2.34030
H         -5.32110       -0.54040       -1.53570
H         -7.03980       -0.51540       -1.16230
H         -6.61360       -1.36680        1.09860
H         -5.81700       -2.39560       -0.08150
H         -4.86330       -1.25060        0.85700
H         -4.56520        0.95060        1.32900
H         -4.62750        2.54430        0.58990
H         -3.27050        0.10600       -0.66360
H         -2.46720        1.43290        0.17150
H         -3.30870        1.73920       -1.34140
H         -9.42180        3.99650        0.20120
H        -10.04580        3.15940        2.42900
H         -8.43390        4.47280       -2.11080
H         -7.25360        4.47130       -4.27810
H         -4.77150        1.24700       -2.99160
H         -5.48480        0.69320       -5.27700
H         -6.50550        0.52350       -8.10250
H         -5.93360       -0.97850       -7.38690
H         -5.84610       -0.22690      -10.34770
H         -5.24020       -1.75080       -9.69310
H         -6.95200       -1.35990       -9.57580
H         -3.77360       -0.76310       -6.22630
H         -2.43900        0.00940       -7.07880
H         -3.95330       -2.47170       -8.02410
H         -2.35050       -2.42790       -7.30100
H         -2.60690       -1.70620       -8.88280
H         -4.01500        4.91220       -7.43520
H         -5.02350        4.94020       -5.18470
H         -3.04760        4.35580       -9.73030
H         -2.24830        3.36790      -11.85410
H         -2.40890        0.94540      -12.22370
H         -3.36240       -0.52630      -10.52790
