
  xtb     03022204543D
 energy: -458.667961273977 gnorm: 0.000239111464 xtb: 6.4.1 (unknown)
232259  0     0  0            999 V2000
    5.2265   -5.3666    5.9290 C   0  0  0  0  0  0  0  0  0  0  0  0
    4.9021   -4.1395    5.4763 C   0  0  0  0  0  0  0  0  0  0  0  0
    3.5163   -3.8422    5.6328 C   0  0  0  0  0  0  0  0  0  0  0  0
    2.8425   -2.6489    5.3257 C   0  0  0  0  0  0  0  0  0  0  0  0
    3.5845   -1.5062    4.8067 C   0  0  0  0  0  0  0  0  0  0  0  0
    3.2783   -0.8302    3.2341 S   0  0  0  0  0  0  0  0  0  0  0  0
    4.5837    0.2991    3.3799 C   0  0  0  0  0  0  0  0  0  0  0  0
    4.9229    1.2374    2.2743 C   0  0  0  0  0  0  0  0  0  0  0  0
    4.5972    2.6880    2.6300 C   0  0  0  0  0  0  0  0  0  0  0  0
    5.1884    0.1695    4.5947 C   0  0  0  0  0  0  0  0  0  0  0  0
    6.5075    1.1341    5.1142 Cl  0  0  0  0  0  0  0  0  0  0  0  0
    4.6320   -0.8602    5.3999 C   0  0  0  0  0  0  0  0  0  0  0  0
    5.2026   -1.2237    6.9771 Cl  0  0  0  0  0  0  0  0  0  0  0  0
    1.4765   -2.6176    5.5650 C   0  0  0  0  0  0  0  0  0  0  0  0
    0.7653   -3.7211    6.0978 C   0  0  0  0  0  0  0  0  0  0  0  0
    1.4473   -4.8959    6.4507 C   0  0  0  0  0  0  0  0  0  0  0  0
    0.7639   -6.0028    7.1000 C   0  0  0  0  0  0  0  0  0  0  0  0
    0.8616   -7.6258    6.4856 S   0  0  0  0  0  0  0  0  0  0  0  0
   -0.1168   -8.2532    7.7671 C   0  0  0  0  0  0  0  0  0  0  0  0
   -0.4913   -9.6931    7.8224 C   0  0  0  0  0  0  0  0  0  0  0  0
   -1.7744   -9.9579    7.0310 C   0  0  0  0  0  0  0  0  0  0  0  0
   -0.4948   -7.2506    8.6096 C   0  0  0  0  0  0  0  0  0  0  0  0
    0.0060   -5.9745    8.2380 C   0  0  0  0  0  0  0  0  0  0  0  0
   -0.2583   -4.5668    9.1861 Cl  0  0  0  0  0  0  0  0  0  0  0  0
   -1.4699   -7.4881   10.0022 Cl  0  0  0  0  0  0  0  0  0  0  0  0
    2.8118   -4.9316    6.1945 C   0  0  0  0  0  0  0  0  0  0  0  0
    3.8806   -6.2573    6.5541 S   0  0  0  0  0  0  0  0  0  0  0  0
   -0.6170   -3.4428    6.2416 C   0  0  0  0  0  0  0  0  0  0  0  0
   -0.9542   -2.1672    5.9048 C   0  0  0  0  0  0  0  0  0  0  0  0
    0.4258   -1.2486    5.3289 S   0  0  0  0  0  0  0  0  0  0  0  0
   -2.2479   -1.5527    6.0507 C   0  0  0  0  0  0  0  0  0  0  0  0
   -3.4179   -2.2483    5.9589 C   0  0  0  0  0  0  0  0  0  0  0  0
   -4.6887   -1.6943    6.1842 C   0  0  0  0  0  0  0  0  0  0  0  0
   -4.8426   -0.2841    6.5876 C   0  0  0  0  0  0  0  0  0  0  0  0
   -3.8156    0.5812    6.7144 C   0  0  0  0  0  0  0  0  0  0  0  0
   -2.1766    0.1618    6.4373 S   0  0  0  0  0  0  0  0  0  0  0  0
   -6.2410   -0.0845    6.7234 C   0  0  0  0  0  0  0  0  0  0  0  0
   -6.9133   -1.2610    6.3874 C   0  0  0  0  0  0  0  0  0  0  0  0
   -8.3162   -1.1222    6.4806 C   0  0  0  0  0  0  0  0  0  0  0  0
   -8.6665    0.1315    6.8670 C   0  0  0  0  0  0  0  0  0  0  0  0
   -7.3203    1.1892    7.1348 S   0  0  0  0  0  0  0  0  0  0  0  0
   -5.9458   -2.2653    6.0351 C   0  0  0  0  0  0  0  0  0  0  0  0
   -6.2841   -3.6057    5.5930 C   0  0  0  0  0  0  0  0  0  0  0  0
   -7.0222   -3.8757    4.5027 C   0  0  0  0  0  0  0  0  0  0  0  0
   -7.3967   -2.9308    3.4909 C   0  0  0  0  0  0  0  0  0  0  0  0
   -8.1115   -3.1892    2.3534 C   0  0  0  0  0  0  0  0  0  0  0  0
   -8.1695   -2.1004    1.4461 C   0  0  0  0  0  0  0  0  0  0  0  0
   -8.7160   -2.0469    0.1471 C   0  0  0  0  0  0  0  0  0  0  0  0
   -9.2998   -3.2205   -0.4806 C   0  0  0  0  0  0  0  0  0  0  0  0
  -10.8866   -3.1655   -1.1877 S   0  0  0  0  0  0  0  0  0  0  0  0
  -10.8069   -4.8203   -1.6866 C   0  0  0  0  0  0  0  0  0  0  0  0
  -11.9143   -5.4482   -2.4585 C   0  0  0  0  0  0  0  0  0  0  0  0
  -11.7634   -5.1615   -3.9545 C   0  0  0  0  0  0  0  0  0  0  0  0
   -9.6089   -5.3648   -1.3316 C   0  0  0  0  0  0  0  0  0  0  0  0
   -9.1573   -6.9859   -1.6700 Cl  0  0  0  0  0  0  0  0  0  0  0  0
   -8.7534   -4.4632   -0.6439 C   0  0  0  0  0  0  0  0  0  0  0  0
   -7.1626   -4.8887   -0.1572 Cl  0  0  0  0  0  0  0  0  0  0  0  0
   -8.6031   -0.8430   -0.5393 C   0  0  0  0  0  0  0  0  0  0  0  0
   -8.0105    0.3028    0.0386 C   0  0  0  0  0  0  0  0  0  0  0  0
   -7.4303    0.2478    1.3153 C   0  0  0  0  0  0  0  0  0  0  0  0
   -6.6590    1.3747    1.8127 C   0  0  0  0  0  0  0  0  0  0  0  0
   -4.9775    1.1785    2.2125 S   0  0  0  0  0  0  0  0  0  0  0  0
   -4.7571    2.8792    2.4556 C   0  0  0  0  0  0  0  0  0  0  0  0
   -3.4272    3.4295    2.8343 C   0  0  0  0  0  0  0  0  0  0  0  0
   -2.9553    2.8552    4.1675 C   0  0  0  0  0  0  0  0  0  0  0  0
   -5.9331    3.5394    2.2638 C   0  0  0  0  0  0  0  0  0  0  0  0
   -7.0121    2.6923    1.8941 C   0  0  0  0  0  0  0  0  0  0  0  0
   -8.6056    3.2800    1.6371 Cl  0  0  0  0  0  0  0  0  0  0  0  0
   -6.1183    5.2362    2.4202 Cl  0  0  0  0  0  0  0  0  0  0  0  0
   -7.4997   -0.9675    1.9715 C   0  0  0  0  0  0  0  0  0  0  0  0
   -6.7861   -1.2890    3.5147 S   0  0  0  0  0  0  0  0  0  0  0  0
   -7.8668    1.3544   -0.8868 C   0  0  0  0  0  0  0  0  0  0  0  0
   -8.2501    1.0374   -2.1571 C   0  0  0  0  0  0  0  0  0  0  0  0
   -8.9456   -0.5706   -2.2383 S   0  0  0  0  0  0  0  0  0  0  0  0
   -7.7701    1.8121   -3.2617 C   0  0  0  0  0  0  0  0  0  0  0  0
   -7.2221    1.3828   -4.4353 C   0  0  0  0  0  0  0  0  0  0  0  0
   -6.2146    2.2561   -4.9353 C   0  0  0  0  0  0  0  0  0  0  0  0
   -5.2254    1.9592   -5.8986 C   0  0  0  0  0  0  0  0  0  0  0  0
   -5.4511    0.9144   -6.8718 C   0  0  0  0  0  0  0  0  0  0  0  0
   -4.2145   -0.2073   -7.3611 S   0  0  0  0  0  0  0  0  0  0  0  0
   -5.2717   -1.0154   -8.4663 C   0  0  0  0  0  0  0  0  0  0  0  0
   -4.7845   -2.1357   -9.3164 C   0  0  0  0  0  0  0  0  0  0  0  0
   -4.0577   -1.6029  -10.5536 C   0  0  0  0  0  0  0  0  0  0  0  0
   -6.5038   -0.4311   -8.4591 C   0  0  0  0  0  0  0  0  0  0  0  0
   -7.8134   -0.9465   -9.4416 Cl  0  0  0  0  0  0  0  0  0  0  0  0
   -6.6137    0.6562   -7.5545 C   0  0  0  0  0  0  0  0  0  0  0  0
   -8.0468    1.5901   -7.4252 Cl  0  0  0  0  0  0  0  0  0  0  0  0
   -4.0201    2.6508   -5.7793 C   0  0  0  0  0  0  0  0  0  0  0  0
   -3.8291    3.7003   -4.8480 C   0  0  0  0  0  0  0  0  0  0  0  0
   -4.8894    4.1314   -4.0417 C   0  0  0  0  0  0  0  0  0  0  0  0
   -4.6978    5.1178   -2.9815 C   0  0  0  0  0  0  0  0  0  0  0  0
   -5.4968    6.6557   -2.9703 S   0  0  0  0  0  0  0  0  0  0  0  0
   -4.8104    7.0843   -1.4386 C   0  0  0  0  0  0  0  0  0  0  0  0
   -5.1518    8.3737   -0.7775 C   0  0  0  0  0  0  0  0  0  0  0  0
   -6.4969    8.2759   -0.0537 C   0  0  0  0  0  0  0  0  0  0  0  0
   -4.0222    6.0753   -0.9729 C   0  0  0  0  0  0  0  0  0  0  0  0
   -3.9578    4.9563   -1.8454 C   0  0  0  0  0  0  0  0  0  0  0  0
   -3.0790    3.5274   -1.4706 Cl  0  0  0  0  0  0  0  0  0  0  0  0
   -3.1648    6.1327    0.5087 Cl  0  0  0  0  0  0  0  0  0  0  0  0
   -6.0508    3.3843   -4.0979 C   0  0  0  0  0  0  0  0  0  0  0  0
   -7.2780    3.4583   -2.8699 S   0  0  0  0  0  0  0  0  0  0  0  0
   -2.4653    4.0494   -4.6952 C   0  0  0  0  0  0  0  0  0  0  0  0
   -1.6283    3.2848   -5.4449 C   0  0  0  0  0  0  0  0  0  0  0  0
   -2.5044    2.2108   -6.5260 S   0  0  0  0  0  0  0  0  0  0  0  0
   -0.2452    3.0528   -5.1293 C   0  0  0  0  0  0  0  0  0  0  0  0
    0.1530    2.8543   -3.8411 C   0  0  0  0  0  0  0  0  0  0  0  0
    1.4801    2.3799   -3.7239 C   0  0  0  0  0  0  0  0  0  0  0  0
    2.1210    1.9009   -2.5673 C   0  0  0  0  0  0  0  0  0  0  0  0
    1.4013    1.7686   -1.3113 C   0  0  0  0  0  0  0  0  0  0  0  0
    2.0649    2.3530    0.1858 S   0  0  0  0  0  0  0  0  0  0  0  0
    0.6904    1.8299    1.0992 C   0  0  0  0  0  0  0  0  0  0  0  0
    0.6042    2.0543    2.5681 C   0  0  0  0  0  0  0  0  0  0  0  0
    0.6053    3.5447    2.9096 C   0  0  0  0  0  0  0  0  0  0  0  0
   -0.2220    1.2393    0.2774 C   0  0  0  0  0  0  0  0  0  0  0  0
   -1.7252    0.5971    0.8125 Cl  0  0  0  0  0  0  0  0  0  0  0  0
    0.1794    1.1930   -1.0853 C   0  0  0  0  0  0  0  0  0  0  0  0
   -0.7624    0.3924   -2.2790 Cl  0  0  0  0  0  0  0  0  0  0  0  0
    3.4455    1.5106   -2.7121 C   0  0  0  0  0  0  0  0  0  0  0  0
    4.1328    1.5721   -3.9498 C   0  0  0  0  0  0  0  0  0  0  0  0
    3.4564    1.9567   -5.1225 C   0  0  0  0  0  0  0  0  0  0  0  0
    4.1213    1.9384   -6.4137 C   0  0  0  0  0  0  0  0  0  0  0  0
    4.0861    3.3325   -7.4535 S   0  0  0  0  0  0  0  0  0  0  0  0
    5.0628    2.5608   -8.6543 C   0  0  0  0  0  0  0  0  0  0  0  0
    5.4855    3.2817   -9.8862 C   0  0  0  0  0  0  0  0  0  0  0  0
    6.7392    4.1200   -9.6262 C   0  0  0  0  0  0  0  0  0  0  0  0
    5.3919    1.2989   -8.2574 C   0  0  0  0  0  0  0  0  0  0  0  0
    4.8529    0.9379   -6.9936 C   0  0  0  0  0  0  0  0  0  0  0  0
    5.0429   -0.6373   -6.3335 Cl  0  0  0  0  0  0  0  0  0  0  0  0
    6.3636    0.2282   -9.1816 Cl  0  0  0  0  0  0  0  0  0  0  0  0
    2.1307    2.3423   -4.9807 C   0  0  0  0  0  0  0  0  0  0  0  0
    1.0377    2.7596   -6.2756 S   0  0  0  0  0  0  0  0  0  0  0  0
    5.4802    1.1598   -3.8238 C   0  0  0  0  0  0  0  0  0  0  0  0
    5.8031    0.7195   -2.5731 C   0  0  0  0  0  0  0  0  0  0  0  0
    4.4601    0.8541   -1.4599 S   0  0  0  0  0  0  0  0  0  0  0  0
    7.0537    0.1592   -2.1716 C   0  0  0  0  0  0  0  0  0  0  0  0
    8.1748    0.0550   -2.9418 C   0  0  0  0  0  0  0  0  0  0  0  0
    9.2515   -0.5942   -2.2926 C   0  0  0  0  0  0  0  0  0  0  0  0
   10.5103   -0.9126   -2.8288 C   0  0  0  0  0  0  0  0  0  0  0  0
   10.8522   -0.5727   -4.2002 C   0  0  0  0  0  0  0  0  0  0  0  0
   10.7001    1.0503   -4.8073 S   0  0  0  0  0  0  0  0  0  0  0  0
   11.2317    0.5956   -6.3909 C   0  0  0  0  0  0  0  0  0  0  0  0
   11.2765    1.5862   -7.5009 C   0  0  0  0  0  0  0  0  0  0  0  0
    9.8731    1.8638   -8.0456 C   0  0  0  0  0  0  0  0  0  0  0  0
   11.5049   -0.7386   -6.4310 C   0  0  0  0  0  0  0  0  0  0  0  0
   12.0490   -1.5643   -7.8331 Cl  0  0  0  0  0  0  0  0  0  0  0  0
   11.2967   -1.4030   -5.1918 C   0  0  0  0  0  0  0  0  0  0  0  0
   11.4982   -3.0953   -5.0170 Cl  0  0  0  0  0  0  0  0  0  0  0  0
   11.3926   -1.5936   -1.9986 C   0  0  0  0  0  0  0  0  0  0  0  0
   11.0456   -2.0159   -0.6934 C   0  0  0  0  0  0  0  0  0  0  0  0
    9.7697   -1.7388   -0.1756 C   0  0  0  0  0  0  0  0  0  0  0  0
    9.3552   -2.2675    1.1136 C   0  0  0  0  0  0  0  0  0  0  0  0
    9.4855   -3.9742    1.4274 S   0  0  0  0  0  0  0  0  0  0  0  0
    8.7846   -3.8198    3.0028 C   0  0  0  0  0  0  0  0  0  0  0  0
    8.5747   -5.0171    3.8625 C   0  0  0  0  0  0  0  0  0  0  0  0
    7.5555   -5.9734    3.2412 C   0  0  0  0  0  0  0  0  0  0  0  0
    8.4724   -2.5178    3.2534 C   0  0  0  0  0  0  0  0  0  0  0  0
    8.7912   -1.6351    2.1848 C   0  0  0  0  0  0  0  0  0  0  0  0
    8.5643    0.0583    2.2970 Cl  0  0  0  0  0  0  0  0  0  0  0  0
    7.7847   -1.9591    4.7228 Cl  0  0  0  0  0  0  0  0  0  0  0  0
    8.9076   -1.0030   -0.9799 C   0  0  0  0  0  0  0  0  0  0  0  0
    7.2739   -0.5478   -0.5866 S   0  0  0  0  0  0  0  0  0  0  0  0
   12.1366   -2.6675   -0.0478 C   0  0  0  0  0  0  0  0  0  0  0  0
   13.2426   -2.7236   -0.8178 C   0  0  0  0  0  0  0  0  0  0  0  0
   13.0397   -2.0068   -2.3768 S   0  0  0  0  0  0  0  0  0  0  0  0
    6.1918   -5.8324    5.9429 H   0  0  0  0  0  0  0  0  0  0  0  0
    5.6074   -3.4550    5.0436 H   0  0  0  0  0  0  0  0  0  0  0  0
    5.9905    1.1532    2.0590 H   0  0  0  0  0  0  0  0  0  0  0  0
    4.3717    0.9463    1.3801 H   0  0  0  0  0  0  0  0  0  0  0  0
    5.1841    3.0133    3.4841 H   0  0  0  0  0  0  0  0  0  0  0  0
    4.8222    3.3306    1.7836 H   0  0  0  0  0  0  0  0  0  0  0  0
    3.5439    2.7913    2.8722 H   0  0  0  0  0  0  0  0  0  0  0  0
   -0.6426   -9.9758    8.8660 H   0  0  0  0  0  0  0  0  0  0  0  0
    0.3212  -10.2935    7.4103 H   0  0  0  0  0  0  0  0  0  0  0  0
   -1.6378   -9.6832    5.9878 H   0  0  0  0  0  0  0  0  0  0  0  0
   -2.0343  -11.0116    7.0839 H   0  0  0  0  0  0  0  0  0  0  0  0
   -2.5960   -9.3755    7.4401 H   0  0  0  0  0  0  0  0  0  0  0  0
   -1.3253   -4.1573    6.6173 H   0  0  0  0  0  0  0  0  0  0  0  0
   -3.3624   -3.2918    5.6801 H   0  0  0  0  0  0  0  0  0  0  0  0
   -3.9566    1.6134    6.9925 H   0  0  0  0  0  0  0  0  0  0  0  0
   -9.0241   -1.9028    6.2673 H   0  0  0  0  0  0  0  0  0  0  0  0
   -9.6543    0.5214    7.0172 H   0  0  0  0  0  0  0  0  0  0  0  0
   -5.9203   -4.4272    6.1985 H   0  0  0  0  0  0  0  0  0  0  0  0
   -7.2958   -4.9003    4.2859 H   0  0  0  0  0  0  0  0  0  0  0  0
   -8.5793   -4.1391    2.1670 H   0  0  0  0  0  0  0  0  0  0  0  0
  -12.8697   -5.0546   -2.1078 H   0  0  0  0  0  0  0  0  0  0  0  0
  -11.8945   -6.5262   -2.2882 H   0  0  0  0  0  0  0  0  0  0  0  0
  -10.8207   -5.5600   -4.3209 H   0  0  0  0  0  0  0  0  0  0  0  0
  -12.5762   -5.6246   -4.5074 H   0  0  0  0  0  0  0  0  0  0  0  0
  -11.7815   -4.0896   -4.1364 H   0  0  0  0  0  0  0  0  0  0  0  0
   -3.5059    4.5157    2.8987 H   0  0  0  0  0  0  0  0  0  0  0  0
   -2.7021    3.1801    2.0552 H   0  0  0  0  0  0  0  0  0  0  0  0
   -1.9933    3.2761    4.4445 H   0  0  0  0  0  0  0  0  0  0  0  0
   -3.6764    3.0865    4.9477 H   0  0  0  0  0  0  0  0  0  0  0  0
   -2.8579    1.7749    4.0913 H   0  0  0  0  0  0  0  0  0  0  0  0
   -7.3832    2.2812   -0.6434 H   0  0  0  0  0  0  0  0  0  0  0  0
   -7.4051    0.4009   -4.8342 H   0  0  0  0  0  0  0  0  0  0  0  0
   -5.6394   -2.7402   -9.6244 H   0  0  0  0  0  0  0  0  0  0  0  0
   -4.1026   -2.7607   -8.7371 H   0  0  0  0  0  0  0  0  0  0  0  0
   -4.7280   -0.9880  -11.1489 H   0  0  0  0  0  0  0  0  0  0  0  0
   -3.7076   -2.4297  -11.1656 H   0  0  0  0  0  0  0  0  0  0  0  0
   -3.2029   -0.9997  -10.2571 H   0  0  0  0  0  0  0  0  0  0  0  0
   -4.3661    8.6192   -0.0604 H   0  0  0  0  0  0  0  0  0  0  0  0
   -5.2005    9.1647   -1.5282 H   0  0  0  0  0  0  0  0  0  0  0  0
   -7.2881    8.0328   -0.7589 H   0  0  0  0  0  0  0  0  0  0  0  0
   -6.7327    9.2225    0.4249 H   0  0  0  0  0  0  0  0  0  0  0  0
   -6.4605    7.5006    0.7070 H   0  0  0  0  0  0  0  0  0  0  0  0
   -2.1197    4.7903   -3.9981 H   0  0  0  0  0  0  0  0  0  0  0  0
   -0.5034    3.0033   -3.0048 H   0  0  0  0  0  0  0  0  0  0  0  0
   -0.3103    1.5861    2.9343 H   0  0  0  0  0  0  0  0  0  0  0  0
    1.4505    1.5653    3.0572 H   0  0  0  0  0  0  0  0  0  0  0  0
    0.5737    3.6805    3.9875 H   0  0  0  0  0  0  0  0  0  0  0  0
    1.5037    4.0225    2.5252 H   0  0  0  0  0  0  0  0  0  0  0  0
   -0.2578    4.0370    2.4684 H   0  0  0  0  0  0  0  0  0  0  0  0
    4.6757    3.9323  -10.2202 H   0  0  0  0  0  0  0  0  0  0  0  0
    5.6920    2.5486  -10.6679 H   0  0  0  0  0  0  0  0  0  0  0  0
    6.5448    4.8589   -8.8527 H   0  0  0  0  0  0  0  0  0  0  0  0
    7.0386    4.6353  -10.5348 H   0  0  0  0  0  0  0  0  0  0  0  0
    7.5556    3.4808   -9.3006 H   0  0  0  0  0  0  0  0  0  0  0  0
    6.1811    1.1851   -4.6357 H   0  0  0  0  0  0  0  0  0  0  0  0
    8.2310    0.4228   -3.9483 H   0  0  0  0  0  0  0  0  0  0  0  0
   11.7146    2.5191   -7.1407 H   0  0  0  0  0  0  0  0  0  0  0  0
   11.9076    1.1876   -8.2969 H   0  0  0  0  0  0  0  0  0  0  0  0
    9.9294    2.5761   -8.8648 H   0  0  0  0  0  0  0  0  0  0  0  0
    9.4197    0.9462   -8.4121 H   0  0  0  0  0  0  0  0  0  0  0  0
    9.2395    2.2769   -7.2636 H   0  0  0  0  0  0  0  0  0  0  0  0
    8.2298   -4.6819    4.8420 H   0  0  0  0  0  0  0  0  0  0  0  0
    9.5253   -5.5409    3.9908 H   0  0  0  0  0  0  0  0  0  0  0  0
    7.8924   -6.2917    2.2575 H   0  0  0  0  0  0  0  0  0  0  0  0
    6.5898   -5.4849    3.1376 H   0  0  0  0  0  0  0  0  0  0  0  0
    7.4352   -6.8541    3.8663 H   0  0  0  0  0  0  0  0  0  0  0  0
   12.0882   -3.0566    0.9524 H   0  0  0  0  0  0  0  0  0  0  0  0
   14.1950   -3.1502   -0.5707 H   0  0  0  0  0  0  0  0  0  0  0  0
  1  2  2  0  0  0  0
  2  3  1  0  0  0  0
  3  4  2  0  0  0  0
  4  5  1  0  0  0  0
  5  6  1  0  0  0  0
  6  7  1  0  0  0  0
  7  8  1  0  0  0  0
  8  9  1  0  0  0  0
  7 10  2  0  0  0  0
 10 11  1  0  0  0  0
 10 12  1  0  0  0  0
 12 13  1  0  0  0  0
  4 14  1  0  0  0  0
 14 15  2  0  0  0  0
 15 16  1  0  0  0  0
 16 17  1  0  0  0  0
 17 18  1  0  0  0  0
 18 19  1  0  0  0  0
 19 20  1  0  0  0  0
 20 21  1  0  0  0  0
 19 22  2  0  0  0  0
 22 23  1  0  0  0  0
 23 24  1  0  0  0  0
 22 25  1  0  0  0  0
 16 26  2  0  0  0  0
 26 27  1  0  0  0  0
 15 28  1  0  0  0  0
 28 29  2  0  0  0  0
 29 30  1  0  0  0  0
 29 31  1  0  0  0  0
 31 32  2  0  0  0  0
 32 33  1  0  0  0  0
 33 34  1  0  0  0  0
 34 35  2  0  0  0  0
 35 36  1  0  0  0  0
 34 37  1  0  0  0  0
 37 38  2  0  0  0  0
 38 39  1  0  0  0  0
 39 40  2  0  0  0  0
 40 41  1  0  0  0  0
 38 42  1  0  0  0  0
 42 43  1  0  0  0  0
 43 44  2  0  0  0  0
 44 45  1  0  0  0  0
 45 46  2  0  0  0  0
 46 47  1  0  0  0  0
 47 48  2  0  0  0  0
 48 49  1  0  0  0  0
 49 50  1  0  0  0  0
 50 51  1  0  0  0  0
 51 52  1  0  0  0  0
 52 53  1  0  0  0  0
 51 54  2  0  0  0  0
 54 55  1  0  0  0  0
 54 56  1  0  0  0  0
 56 57  1  0  0  0  0
 48 58  1  0  0  0  0
 58 59  2  0  0  0  0
 59 60  1  0  0  0  0
 60 61  1  0  0  0  0
 61 62  1  0  0  0  0
 62 63  1  0  0  0  0
 63 64  1  0  0  0  0
 64 65  1  0  0  0  0
 63 66  2  0  0  0  0
 66 67  1  0  0  0  0
 67 68  1  0  0  0  0
 66 69  1  0  0  0  0
 60 70  2  0  0  0  0
 70 71  1  0  0  0  0
 59 72  1  0  0  0  0
 72 73  2  0  0  0  0
 73 74  1  0  0  0  0
 73 75  1  0  0  0  0
 75 76  2  0  0  0  0
 76 77  1  0  0  0  0
 77 78  2  0  0  0  0
 78 79  1  0  0  0  0
 79 80  1  0  0  0  0
 80 81  1  0  0  0  0
 81 82  1  0  0  0  0
 82 83  1  0  0  0  0
 81 84  2  0  0  0  0
 84 85  1  0  0  0  0
 84 86  1  0  0  0  0
 86 87  1  0  0  0  0
 78 88  1  0  0  0  0
 88 89  2  0  0  0  0
 89 90  1  0  0  0  0
 90 91  1  0  0  0  0
 91 92  1  0  0  0  0
 92 93  1  0  0  0  0
 93 94  1  0  0  0  0
 94 95  1  0  0  0  0
 93 96  2  0  0  0  0
 96 97  1  0  0  0  0
 97 98  1  0  0  0  0
 96 99  1  0  0  0  0
 90100  2  0  0  0  0
100101  1  0  0  0  0
 89102  1  0  0  0  0
102103  2  0  0  0  0
103104  1  0  0  0  0
103105  1  0  0  0  0
105106  2  0  0  0  0
106107  1  0  0  0  0
107108  2  0  0  0  0
108109  1  0  0  0  0
109110  1  0  0  0  0
110111  1  0  0  0  0
111112  1  0  0  0  0
112113  1  0  0  0  0
111114  2  0  0  0  0
114115  1  0  0  0  0
114116  1  0  0  0  0
116117  1  0  0  0  0
108118  1  0  0  0  0
118119  2  0  0  0  0
119120  1  0  0  0  0
120121  1  0  0  0  0
121122  1  0  0  0  0
122123  1  0  0  0  0
123124  1  0  0  0  0
124125  1  0  0  0  0
123126  2  0  0  0  0
126127  1  0  0  0  0
127128  1  0  0  0  0
126129  1  0  0  0  0
120130  2  0  0  0  0
130131  1  0  0  0  0
119132  1  0  0  0  0
132133  2  0  0  0  0
133134  1  0  0  0  0
133135  1  0  0  0  0
135136  2  0  0  0  0
136137  1  0  0  0  0
137138  2  0  0  0  0
138139  1  0  0  0  0
139140  1  0  0  0  0
140141  1  0  0  0  0
141142  1  0  0  0  0
142143  1  0  0  0  0
141144  2  0  0  0  0
144145  1  0  0  0  0
144146  1  0  0  0  0
146147  1  0  0  0  0
138148  1  0  0  0  0
148149  2  0  0  0  0
149150  1  0  0  0  0
150151  1  0  0  0  0
151152  1  0  0  0  0
152153  1  0  0  0  0
153154  1  0  0  0  0
154155  1  0  0  0  0
153156  2  0  0  0  0
156157  1  0  0  0  0
157158  1  0  0  0  0
156159  1  0  0  0  0
150160  2  0  0  0  0
160161  1  0  0  0  0
149162  1  0  0  0  0
162163  2  0  0  0  0
163164  1  0  0  0  0
 27  1  1  0  0  0  0
 36 31  1  0  0  0  0
 41 37  1  0  0  0  0
 71 45  1  0  0  0  0
101 75  1  0  0  0  0
131105  1  0  0  0  0
161135  1  0  0  0  0
 26  3  1  0  0  0  0
 42 33  2  0  0  0  0
 70 47  1  0  0  0  0
100 77  1  0  0  0  0
130107  1  0  0  0  0
160137  1  0  0  0  0
 12  5  2  0  0  0  0
 30 14  1  0  0  0  0
 56 49  2  0  0  0  0
 74 58  1  0  0  0  0
 86 79  2  0  0  0  0
104 88  1  0  0  0  0
116109  2  0  0  0  0
134118  1  0  0  0  0
146139  2  0  0  0  0
164148  1  0  0  0  0
 23 17  2  0  0  0  0
 67 61  2  0  0  0  0
 97 91  2  0  0  0  0
127121  2  0  0  0  0
157151  2  0  0  0  0
  1165  1  0  0  0  0
  2166  1  0  0  0  0
  8167  1  0  0  0  0
  8168  1  0  0  0  0
  9169  1  0  0  0  0
  9170  1  0  0  0  0
  9171  1  0  0  0  0
 20172  1  0  0  0  0
 20173  1  0  0  0  0
 21174  1  0  0  0  0
 21175  1  0  0  0  0
 21176  1  0  0  0  0
 28177  1  0  0  0  0
 32178  1  0  0  0  0
 35179  1  0  0  0  0
 39180  1  0  0  0  0
 40181  1  0  0  0  0
 43182  1  0  0  0  0
 44183  1  0  0  0  0
 46184  1  0  0  0  0
 52185  1  0  0  0  0
 52186  1  0  0  0  0
 53187  1  0  0  0  0
 53188  1  0  0  0  0
 53189  1  0  0  0  0
 64190  1  0  0  0  0
 64191  1  0  0  0  0
 65192  1  0  0  0  0
 65193  1  0  0  0  0
 65194  1  0  0  0  0
 72195  1  0  0  0  0
 76196  1  0  0  0  0
 82197  1  0  0  0  0
 82198  1  0  0  0  0
 83199  1  0  0  0  0
 83200  1  0  0  0  0
 83201  1  0  0  0  0
 94202  1  0  0  0  0
 94203  1  0  0  0  0
 95204  1  0  0  0  0
 95205  1  0  0  0  0
 95206  1  0  0  0  0
102207  1  0  0  0  0
106208  1  0  0  0  0
112209  1  0  0  0  0
112210  1  0  0  0  0
113211  1  0  0  0  0
113212  1  0  0  0  0
113213  1  0  0  0  0
124214  1  0  0  0  0
124215  1  0  0  0  0
125216  1  0  0  0  0
125217  1  0  0  0  0
125218  1  0  0  0  0
132219  1  0  0  0  0
136220  1  0  0  0  0
142221  1  0  0  0  0
142222  1  0  0  0  0
143223  1  0  0  0  0
143224  1  0  0  0  0
143225  1  0  0  0  0
154226  1  0  0  0  0
154227  1  0  0  0  0
155228  1  0  0  0  0
155229  1  0  0  0  0
155230  1  0  0  0  0
162231  1  0  0  0  0
163232  1  0  0  0  0
M  END
