152

C          2.95310       -0.71950        2.44810
C          1.95270       -1.47710        2.95250
C          0.64500       -0.99770        3.16900
C          0.34720        0.42790        2.94640
C          1.20560        1.32610        2.41570
S          2.80970        0.93630        1.94790
C         -0.98570        0.60990        3.40390
C         -1.49140       -0.60430        3.86000
C         -2.82010       -0.48660        4.32470
C         -3.27010        0.79190        4.22550
S         -2.11170        1.90090        3.56830
C         -0.48180       -1.62630        3.70150
C         -0.71820       -2.98030        4.07280
C         -0.08060       -4.09240        3.63780
C         -0.45010       -5.42560        3.99760
C          0.14880       -6.52050        3.42750
C         -0.24410       -7.85300        3.61370
C         -1.24450       -8.19660        4.63460
C         -1.94460       -7.28410        5.34070
S         -1.77440       -5.59090        5.14740
C         -1.31240       -9.61560        4.63570
C         -0.45610      -10.12070        3.65810
C         -0.50600      -11.53050        3.58350
C         -1.37400      -12.04780        4.49150
S         -2.17210      -10.85490        5.46210
C          0.18820       -9.02460        2.98200
C          1.07350       -9.23290        1.87310
C          1.29290       -8.45060        0.79540
C          0.61250       -7.22870        0.46690
C          1.16380       -6.11770       -0.09900
C          0.29500       -4.99550       -0.12120
C          0.61880       -3.66810       -0.44110
C          1.89590       -3.30450       -1.06690
C          2.66230       -2.25480       -0.56730
C          3.83000       -1.86980       -1.19100
C          4.27190       -2.51540       -2.33900
S          5.78570       -1.97730       -3.09820
C          5.18970       -1.54470       -4.77410
C          4.23810       -0.36470       -4.73760
C          3.51580       -3.58180       -2.81480
F          3.91330       -4.25910       -3.91270
C          2.34360       -3.97650       -2.20140
C         -0.33550       -2.70930       -0.13560
C         -1.60350       -3.00920        0.41950
C         -1.93680       -4.34420        0.71550
C         -3.15870       -4.70310        1.43840
C         -3.90010       -5.83980        1.11910
C         -4.99100       -6.20490        1.87910
C         -5.38310       -5.46520        2.99270
S         -6.74970       -6.06950        3.94000
C         -7.70000       -4.55560        4.34140
C         -8.11900       -3.80210        3.09510
C         -4.62870       -4.33940        3.30600
C         -3.55040       -3.94930        2.54180
F         -4.91720       -3.58630        4.39360
C         -0.97960       -5.30330        0.41600
S         -1.09180       -6.99550        0.81950
C         -2.39190       -1.84390        0.59180
C         -1.75590       -0.69140        0.23350
S         -0.14010       -0.99730       -0.37840
C         -2.20820        0.65920        0.32030
C         -1.35420        1.70560        0.10700
C         -1.69860        3.05180        0.18370
C         -3.07120        3.47000        0.48040
C         -4.08030        2.60760        0.72580
S         -3.90360        0.89580        0.72130
C         -3.04020        4.88970        0.40930
C         -1.75340        5.32900        0.08590
C         -1.68490        6.73750        0.01420
C         -2.88860        7.31530        0.26500
S         -4.15280        6.18470        0.60170
C         -0.89890        4.17780       -0.05730
C          0.46490        4.10050       -0.42490
C          1.22650        5.08830       -0.94990
C          2.54830        4.88900       -1.44550
C          3.11550        5.77180       -2.32510
C          4.29580        5.54180       -3.03970
C          5.20440        4.44600       -2.67510
C          4.88340        3.48520       -1.78340
S          3.36570        3.39550       -0.98200
C          6.33900        4.61480       -3.51490
C          6.12050        5.68420       -4.38820
C          7.19130        5.86030       -5.29230
C          8.17510        4.94670       -5.08550
S          7.84290        3.83090       -3.80240
C          4.82360        6.24190       -4.12540
C          4.16640        7.24910       -4.91370
C          2.85490        7.27400       -5.22110
C          1.88300        6.23460       -4.92370
C          0.62930        6.51450       -4.47020
C         -0.31400        5.55790       -4.04940
C          0.01830        4.12730       -4.07590
C          1.16600        3.62200       -4.57540
S          2.42770        4.58510       -5.22080
C         -1.11920        3.47300       -3.53520
C         -2.10590        4.41030       -3.22520
C         -3.27240        3.78360       -2.72800
C         -3.14110        2.43280       -2.67650
S         -1.60240        1.85400       -3.21530
C         -1.60160        5.72570       -3.53890
C         -2.26610        6.98780       -3.38480
C         -3.51710        7.18810       -2.97070
H          3.94940       -1.10350        2.30620
H          2.18360       -2.49550        3.22930
H          0.93560        2.35760        2.25190
H         -3.41580       -1.29020        4.71910
H         -4.23320        1.17220        4.50500
H         -1.55280       -3.11490        4.75170
H          0.71580       -4.01790        2.91030
H          0.97800       -6.32730        2.75940
H         -2.69590       -7.56010        6.06380
H          0.06580      -12.13310        2.90080
H         -1.60890      -13.08030        4.66270
H          1.61460      -10.17170        1.91390
H          2.07340       -8.73790        0.10140
H          2.19770       -6.06440       -0.39230
H          2.34200       -1.74360        0.32530
H          4.41500       -1.05170       -0.80060
H          6.09800       -1.30340       -5.32500
H          4.73000       -2.42710       -5.21470
H          4.72080        0.49950       -4.28520
H          3.34650       -0.60530       -4.15970
H          3.93580       -0.10400       -5.75010
H          1.77980       -4.79480       -2.62230
H         -3.63580       -6.42850        0.25470
H         -5.56220       -7.08370        1.62410
H         -8.56680       -4.94010        4.87870
H         -7.11210       -3.93600        5.01470
H         -8.74320       -2.95470        3.37140
H         -7.24980       -3.42760        2.55710
H         -8.68400       -4.45050        2.42870
H         -2.98410       -3.08480        2.84650
H         -3.40320       -1.85320        0.95650
H         -0.33460        1.44750       -0.14530
H         -5.08730        2.92990        0.93790
H         -0.80090        7.30780       -0.20380
H         -3.12590        8.36100        0.27390
H          0.91550        3.11880       -0.33970
H          0.80240        6.06510       -1.12830
H          2.56950        6.68200       -2.52940
H          5.54060        2.66370       -1.54470
H          7.23600        6.62010       -6.05160
H          9.10220        4.84720       -5.61560
H          4.79910        8.03940       -5.29910
H          2.45750        8.13830       -5.73900
H          0.37580        7.56240       -4.36630
H          1.36480        2.56240       -4.61700
H         -4.17320        4.28350       -2.42300
H         -3.86820        1.71480       -2.34920
H         -1.66760        7.85240       -3.64550
H         -3.92600        8.18060       -2.89070
H         -4.17550        6.38190       -2.70580
