
  xtb     03032209363D
 energy: -409.376619971932 gnorm: 0.000391967405 xtb: 6.4.1 (unknown)
210235  0     0  0            999 V2000
    5.0527   -3.2439   12.2302 C   0  0  0  0  0  0  0  0  0  0  0  0
    4.0600   -3.0933   11.3258 C   0  0  0  0  0  0  0  0  0  0  0  0
    2.8833   -2.3528   11.5660 C   0  0  0  0  0  0  0  0  0  0  0  0
    2.6608   -1.7588   12.8967 C   0  0  0  0  0  0  0  0  0  0  0  0
    3.5443   -1.7920   13.9184 C   0  0  0  0  0  0  0  0  0  0  0  0
    5.0746   -2.5628   13.8240 S   0  0  0  0  0  0  0  0  0  0  0  0
    1.3652   -1.1762   12.8397 C   0  0  0  0  0  0  0  0  0  0  0  0
    0.8162   -1.3883   11.5788 C   0  0  0  0  0  0  0  0  0  0  0  0
   -0.4762   -0.8326   11.4592 C   0  0  0  0  0  0  0  0  0  0  0  0
   -0.8649   -0.2242   12.6103 C   0  0  0  0  0  0  0  0  0  0  0  0
    0.3112   -0.2975   13.8789 S   0  0  0  0  0  0  0  0  0  0  0  0
    1.7692   -2.1040   10.7613 C   0  0  0  0  0  0  0  0  0  0  0  0
    1.5052   -2.3846    9.3918 C   0  0  0  0  0  0  0  0  0  0  0  0
    2.3758   -2.7498    8.4245 C   0  0  0  0  0  0  0  0  0  0  0  0
    2.0043   -2.9413    7.0643 C   0  0  0  0  0  0  0  0  0  0  0  0
    2.7890   -3.4494    6.0662 C   0  0  0  0  0  0  0  0  0  0  0  0
    2.1437   -3.5315    4.8104 C   0  0  0  0  0  0  0  0  0  0  0  0
    2.6576   -4.0145    3.5938 C   0  0  0  0  0  0  0  0  0  0  0  0
    4.0233   -4.5019    3.4854 C   0  0  0  0  0  0  0  0  0  0  0  0
    5.3783   -3.5166    3.9544 S   0  0  0  0  0  0  0  0  0  0  0  0
    6.5231   -4.7331    3.4995 C   0  0  0  0  0  0  0  0  0  0  0  0
    7.9848   -4.5337    3.7014 C   0  0  0  0  0  0  0  0  0  0  0  0
    8.3929   -4.8864    5.1337 C   0  0  0  0  0  0  0  0  0  0  0  0
    5.8770   -5.8354    3.0270 C   0  0  0  0  0  0  0  0  0  0  0  0
    6.6764   -7.2560    2.4916 Cl  0  0  0  0  0  0  0  0  0  0  0  0
    4.4617   -5.7066    3.0113 C   0  0  0  0  0  0  0  0  0  0  0  0
    3.4299   -6.9846    2.5215 Cl  0  0  0  0  0  0  0  0  0  0  0  0
    1.8076   -3.9990    2.4953 C   0  0  0  0  0  0  0  0  0  0  0  0
    0.4719   -3.5315    2.5619 C   0  0  0  0  0  0  0  0  0  0  0  0
   -0.0335   -3.0281    3.7747 C   0  0  0  0  0  0  0  0  0  0  0  0
   -1.3682   -2.4539    3.8400 C   0  0  0  0  0  0  0  0  0  0  0  0
   -2.5724   -3.0136    4.9592 S   0  0  0  0  0  0  0  0  0  0  0  0
   -3.7437   -1.8796    4.3805 C   0  0  0  0  0  0  0  0  0  0  0  0
   -5.1411   -1.8604    4.8948 C   0  0  0  0  0  0  0  0  0  0  0  0
   -6.0571   -2.7006    4.0006 C   0  0  0  0  0  0  0  0  0  0  0  0
   -3.2136   -1.1174    3.3828 C   0  0  0  0  0  0  0  0  0  0  0  0
   -1.8661   -1.4372    3.0734 C   0  0  0  0  0  0  0  0  0  0  0  0
   -0.9389   -0.5867    1.9039 Cl  0  0  0  0  0  0  0  0  0  0  0  0
   -4.0841    0.1227    2.5858 Cl  0  0  0  0  0  0  0  0  0  0  0  0
    0.8086   -3.0600    4.8743 C   0  0  0  0  0  0  0  0  0  0  0  0
    0.4054   -2.5112    6.4759 S   0  0  0  0  0  0  0  0  0  0  0  0
   -0.1888   -3.6349    1.3141 C   0  0  0  0  0  0  0  0  0  0  0  0
    0.6116   -4.1037    0.3120 C   0  0  0  0  0  0  0  0  0  0  0  0
    2.2256   -4.4771    0.8760 S   0  0  0  0  0  0  0  0  0  0  0  0
    0.2741   -4.2471   -1.0686 C   0  0  0  0  0  0  0  0  0  0  0  0
   -0.9674   -4.1794   -1.6311 C   0  0  0  0  0  0  0  0  0  0  0  0
   -0.9518   -4.2333   -3.0457 C   0  0  0  0  0  0  0  0  0  0  0  0
   -2.0350   -4.0683   -3.9295 C   0  0  0  0  0  0  0  0  0  0  0  0
   -3.4032   -4.0085   -3.4481 C   0  0  0  0  0  0  0  0  0  0  0  0
   -4.4848   -2.7390   -3.9400 S   0  0  0  0  0  0  0  0  0  0  0  0
   -5.7847   -3.3707   -2.9943 C   0  0  0  0  0  0  0  0  0  0  0  0
   -7.1275   -2.7306   -3.0177 C   0  0  0  0  0  0  0  0  0  0  0  0
   -7.9282   -3.2025   -4.2334 C   0  0  0  0  0  0  0  0  0  0  0  0
   -5.3930   -4.5032   -2.3446 C   0  0  0  0  0  0  0  0  0  0  0  0
   -6.4162   -5.4143   -1.3110 Cl  0  0  0  0  0  0  0  0  0  0  0  0
   -4.0426   -4.8640   -2.5921 C   0  0  0  0  0  0  0  0  0  0  0  0
   -3.3361   -6.2880   -1.9424 Cl  0  0  0  0  0  0  0  0  0  0  0  0
   -1.7216   -3.8695   -5.2667 C   0  0  0  0  0  0  0  0  0  0  0  0
   -0.3978   -3.8932   -5.7738 C   0  0  0  0  0  0  0  0  0  0  0  0
    0.6721   -4.1573   -4.9017 C   0  0  0  0  0  0  0  0  0  0  0  0
    2.0541   -4.1393   -5.3619 C   0  0  0  0  0  0  0  0  0  0  0  0
    3.0856   -5.5208   -5.1522 S   0  0  0  0  0  0  0  0  0  0  0  0
    4.4333   -4.7236   -5.8880 C   0  0  0  0  0  0  0  0  0  0  0  0
    5.7619   -5.3873   -5.9893 C   0  0  0  0  0  0  0  0  0  0  0  0
    6.5579   -5.2074   -4.6943 C   0  0  0  0  0  0  0  0  0  0  0  0
    4.0910   -3.4568   -6.2556 C   0  0  0  0  0  0  0  0  0  0  0  0
    2.7423   -3.1218   -5.9609 C   0  0  0  0  0  0  0  0  0  0  0  0
    2.0954   -1.5567   -6.2649 Cl  0  0  0  0  0  0  0  0  0  0  0  0
    5.1681   -2.3580   -7.0131 Cl  0  0  0  0  0  0  0  0  0  0  0  0
    0.3667   -4.3190   -3.5569 C   0  0  0  0  0  0  0  0  0  0  0  0
    1.5356   -4.4316   -2.2717 S   0  0  0  0  0  0  0  0  0  0  0  0
   -0.3319   -3.4462   -7.1180 C   0  0  0  0  0  0  0  0  0  0  0  0
   -1.5344   -3.0092   -7.5998 C   0  0  0  0  0  0  0  0  0  0  0  0
   -2.8525   -3.3813   -6.4928 S   0  0  0  0  0  0  0  0  0  0  0  0
   -1.7677   -1.9169   -8.4964 C   0  0  0  0  0  0  0  0  0  0  0  0
   -0.8494   -0.9279   -8.7330 C   0  0  0  0  0  0  0  0  0  0  0  0
   -1.4228    0.3678   -8.7807 C   0  0  0  0  0  0  0  0  0  0  0  0
   -0.7260    1.5681   -8.5052 C   0  0  0  0  0  0  0  0  0  0  0  0
    0.6940    1.6413   -8.7559 C   0  0  0  0  0  0  0  0  0  0  0  0
    1.8146    2.4134   -7.6714 S   0  0  0  0  0  0  0  0  0  0  0  0
    3.1724    2.0253   -8.6682 C   0  0  0  0  0  0  0  0  0  0  0  0
    4.5590    2.3804   -8.2600 C   0  0  0  0  0  0  0  0  0  0  0  0
    5.2258    1.2122   -7.5301 C   0  0  0  0  0  0  0  0  0  0  0  0
    2.7701    1.3362   -9.7747 C   0  0  0  0  0  0  0  0  0  0  0  0
    3.8411    0.7904  -10.9990 Cl  0  0  0  0  0  0  0  0  0  0  0  0
    1.3708    1.1182   -9.8312 C   0  0  0  0  0  0  0  0  0  0  0  0
    0.6221    0.3509  -11.1699 Cl  0  0  0  0  0  0  0  0  0  0  0  0
   -1.4504    2.5401   -7.8197 C   0  0  0  0  0  0  0  0  0  0  0  0
   -2.8481    2.4408   -7.6063 C   0  0  0  0  0  0  0  0  0  0  0  0
   -3.5742    1.3547   -8.1213 C   0  0  0  0  0  0  0  0  0  0  0  0
   -4.9849    1.1651   -7.7843 C   0  0  0  0  0  0  0  0  0  0  0  0
   -6.2679    1.3510   -8.9326 S   0  0  0  0  0  0  0  0  0  0  0  0
   -7.4737    0.9329   -7.7616 C   0  0  0  0  0  0  0  0  0  0  0  0
   -8.9232    0.9513   -8.1019 C   0  0  0  0  0  0  0  0  0  0  0  0
   -9.5153    2.3485   -7.9018 C   0  0  0  0  0  0  0  0  0  0  0  0
   -6.8929    0.6725   -6.5571 C   0  0  0  0  0  0  0  0  0  0  0  0
   -5.4775    0.7914   -6.5670 C   0  0  0  0  0  0  0  0  0  0  0  0
   -4.4957    0.4688   -5.1927 Cl  0  0  0  0  0  0  0  0  0  0  0  0
   -7.7654    0.2458   -5.1480 Cl  0  0  0  0  0  0  0  0  0  0  0  0
   -2.8305    0.3134   -8.6422 C   0  0  0  0  0  0  0  0  0  0  0  0
   -3.4156   -1.3325   -8.6996 S   0  0  0  0  0  0  0  0  0  0  0  0
   -3.2953    3.2931   -6.5688 C   0  0  0  0  0  0  0  0  0  0  0  0
   -2.2821    3.9537   -5.9383 C   0  0  0  0  0  0  0  0  0  0  0  0
   -0.7594    3.7913   -6.8119 S   0  0  0  0  0  0  0  0  0  0  0  0
   -2.2729    4.2898   -4.5480 C   0  0  0  0  0  0  0  0  0  0  0  0
   -1.3043    4.8730   -3.7867 C   0  0  0  0  0  0  0  0  0  0  0  0
   -1.4185    4.5836   -2.4002 C   0  0  0  0  0  0  0  0  0  0  0  0
   -0.5167    4.8955   -1.3635 C   0  0  0  0  0  0  0  0  0  0  0  0
    0.5626    5.8409   -1.5776 C   0  0  0  0  0  0  0  0  0  0  0  0
    2.1949    5.5011   -1.0854 S   0  0  0  0  0  0  0  0  0  0  0  0
    2.7705    7.0269   -1.6621 C   0  0  0  0  0  0  0  0  0  0  0  0
    4.1933    7.4292   -1.4891 C   0  0  0  0  0  0  0  0  0  0  0  0
    4.4145    8.0643   -0.1140 C   0  0  0  0  0  0  0  0  0  0  0  0
    1.7443    7.7524   -2.1902 C   0  0  0  0  0  0  0  0  0  0  0  0
    1.9260    9.3269   -2.8482 Cl  0  0  0  0  0  0  0  0  0  0  0  0
    0.4932    7.0820   -2.1514 C   0  0  0  0  0  0  0  0  0  0  0  0
   -0.9593    7.8152   -2.6970 Cl  0  0  0  0  0  0  0  0  0  0  0  0
   -0.6980    4.2411   -0.1497 C   0  0  0  0  0  0  0  0  0  0  0  0
   -1.7483    3.3196    0.0761 C   0  0  0  0  0  0  0  0  0  0  0  0
   -2.6698    3.0397   -0.9431 C   0  0  0  0  0  0  0  0  0  0  0  0
   -3.6131    1.9317   -0.7961 C   0  0  0  0  0  0  0  0  0  0  0  0
   -5.3151    2.1078   -0.5258 S   0  0  0  0  0  0  0  0  0  0  0  0
   -5.5545    0.3919   -0.4322 C   0  0  0  0  0  0  0  0  0  0  0  0
   -6.9028   -0.1876   -0.1771 C   0  0  0  0  0  0  0  0  0  0  0  0
   -7.5182    0.3435    1.1167 C   0  0  0  0  0  0  0  0  0  0  0  0
   -4.3713   -0.2592   -0.6073 C   0  0  0  0  0  0  0  0  0  0  0  0
   -3.2718    0.6108   -0.8332 C   0  0  0  0  0  0  0  0  0  0  0  0
   -1.6875    0.0473   -1.1818 Cl  0  0  0  0  0  0  0  0  0  0  0  0
   -4.1750   -1.9609   -0.5089 Cl  0  0  0  0  0  0  0  0  0  0  0  0
   -2.5019    3.7067   -2.1419 C   0  0  0  0  0  0  0  0  0  0  0  0
   -3.4446    3.4113   -3.5672 S   0  0  0  0  0  0  0  0  0  0  0  0
   -1.6988    2.7468    1.3672 C   0  0  0  0  0  0  0  0  0  0  0  0
   -0.6452    3.1771    2.1186 C   0  0  0  0  0  0  0  0  0  0  0  0
    0.3261    4.3633    1.2557 S   0  0  0  0  0  0  0  0  0  0  0  0
   -0.2859    2.7468    3.4362 C   0  0  0  0  0  0  0  0  0  0  0  0
    0.9258    3.0149    4.0094 C   0  0  0  0  0  0  0  0  0  0  0  0
    1.3320    2.5637    5.2717 C   0  0  0  0  0  0  0  0  0  0  0  0
    0.4298    1.7491    6.1001 C   0  0  0  0  0  0  0  0  0  0  0  0
   -0.8119    1.3691    5.7336 C   0  0  0  0  0  0  0  0  0  0  0  0
   -1.5344    1.8002    4.2427 S   0  0  0  0  0  0  0  0  0  0  0  0
    1.1559    1.4879    7.2889 C   0  0  0  0  0  0  0  0  0  0  0  0
    2.4225    2.0754    7.2164 C   0  0  0  0  0  0  0  0  0  0  0  0
    3.1719    1.8198    8.3893 C   0  0  0  0  0  0  0  0  0  0  0  0
    2.4704    1.0862    9.2921 C   0  0  0  0  0  0  0  0  0  0  0  0
    0.8762    0.6701    8.7709 S   0  0  0  0  0  0  0  0  0  0  0  0
    2.5385    2.7570    5.9520 C   0  0  0  0  0  0  0  0  0  0  0  0
    3.6473    3.5150    5.4473 C   0  0  0  0  0  0  0  0  0  0  0  0
    4.7804    3.7938    6.0921 C   0  0  0  0  0  0  0  0  0  0  0  0
    5.9371   -3.8224   12.0232 H   0  0  0  0  0  0  0  0  0  0  0  0
    4.1727   -3.5971   10.3778 H   0  0  0  0  0  0  0  0  0  0  0  0
    3.3420   -1.3290   14.8713 H   0  0  0  0  0  0  0  0  0  0  0  0
   -1.0873   -0.8754   10.5763 H   0  0  0  0  0  0  0  0  0  0  0  0
   -1.7912    0.2793   12.8074 H   0  0  0  0  0  0  0  0  0  0  0  0
    0.4744   -2.2320    9.0931 H   0  0  0  0  0  0  0  0  0  0  0  0
    3.4254   -2.8942    8.6325 H   0  0  0  0  0  0  0  0  0  0  0  0
    3.8003   -3.7730    6.2334 H   0  0  0  0  0  0  0  0  0  0  0  0
    8.2409   -3.4927    3.4968 H   0  0  0  0  0  0  0  0  0  0  0  0
    8.5241   -5.1725    2.9998 H   0  0  0  0  0  0  0  0  0  0  0  0
    9.4620   -4.7420    5.2639 H   0  0  0  0  0  0  0  0  0  0  0  0
    7.8657   -4.2520    5.8425 H   0  0  0  0  0  0  0  0  0  0  0  0
    8.1525   -5.9245    5.3487 H   0  0  0  0  0  0  0  0  0  0  0  0
   -5.4972   -0.8277    4.9119 H   0  0  0  0  0  0  0  0  0  0  0  0
   -5.1591   -2.2543    5.9117 H   0  0  0  0  0  0  0  0  0  0  0  0
   -5.7295   -3.7373    3.9934 H   0  0  0  0  0  0  0  0  0  0  0  0
   -7.0790   -2.6596    4.3678 H   0  0  0  0  0  0  0  0  0  0  0  0
   -6.0371   -2.3250    2.9806 H   0  0  0  0  0  0  0  0  0  0  0  0
   -1.2159   -3.3588    1.1632 H   0  0  0  0  0  0  0  0  0  0  0  0
   -1.8650   -4.0535   -1.0553 H   0  0  0  0  0  0  0  0  0  0  0  0
   -7.6612   -2.9911   -2.1019 H   0  0  0  0  0  0  0  0  0  0  0  0
   -7.0088   -1.6469   -3.0623 H   0  0  0  0  0  0  0  0  0  0  0  0
   -8.0695   -4.2799   -4.1981 H   0  0  0  0  0  0  0  0  0  0  0  0
   -7.4011   -2.9496   -5.1504 H   0  0  0  0  0  0  0  0  0  0  0  0
   -8.9026   -2.7216   -4.2469 H   0  0  0  0  0  0  0  0  0  0  0  0
    5.6218   -6.4517   -6.1848 H   0  0  0  0  0  0  0  0  0  0  0  0
    6.3128   -4.9470   -6.8227 H   0  0  0  0  0  0  0  0  0  0  0  0
    6.7207   -4.1511   -4.4957 H   0  0  0  0  0  0  0  0  0  0  0  0
    7.5230   -5.6996   -4.7780 H   0  0  0  0  0  0  0  0  0  0  0  0
    6.0160   -5.6385   -3.8559 H   0  0  0  0  0  0  0  0  0  0  0  0
    0.5858   -3.3629   -7.6690 H   0  0  0  0  0  0  0  0  0  0  0  0
    0.2096   -1.0897   -8.6451 H   0  0  0  0  0  0  0  0  0  0  0  0
    5.1380    2.6284   -9.1522 H   0  0  0  0  0  0  0  0  0  0  0  0
    4.5287    3.2530   -7.6059 H   0  0  0  0  0  0  0  0  0  0  0  0
    4.6515    0.9400   -6.6479 H   0  0  0  0  0  0  0  0  0  0  0  0
    5.2869    0.3471   -8.1849 H   0  0  0  0  0  0  0  0  0  0  0  0
    6.2310    1.4871   -7.2218 H   0  0  0  0  0  0  0  0  0  0  0  0
   -9.4437    0.2388   -7.4588 H   0  0  0  0  0  0  0  0  0  0  0  0
   -9.0545    0.6460   -9.1411 H   0  0  0  0  0  0  0  0  0  0  0  0
   -9.0069    3.0683   -8.5387 H   0  0  0  0  0  0  0  0  0  0  0  0
   -9.4040    2.6603   -6.8663 H   0  0  0  0  0  0  0  0  0  0  0  0
  -10.5724    2.3455   -8.1530 H   0  0  0  0  0  0  0  0  0  0  0  0
   -4.3068    3.2937   -6.2038 H   0  0  0  0  0  0  0  0  0  0  0  0
   -0.4850    5.4217   -4.2155 H   0  0  0  0  0  0  0  0  0  0  0  0
    4.8328    6.5509   -1.5907 H   0  0  0  0  0  0  0  0  0  0  0  0
    4.4538    8.1463   -2.2696 H   0  0  0  0  0  0  0  0  0  0  0  0
    4.1547    7.3596    0.6723 H   0  0  0  0  0  0  0  0  0  0  0  0
    5.4563    8.3506    0.0020 H   0  0  0  0  0  0  0  0  0  0  0  0
    3.7949    8.9507   -0.0048 H   0  0  0  0  0  0  0  0  0  0  0  0
   -6.8028   -1.2736   -0.1267 H   0  0  0  0  0  0  0  0  0  0  0  0
   -7.5639    0.0566   -1.0135 H   0  0  0  0  0  0  0  0  0  0  0  0
   -7.6403    1.4225    1.0602 H   0  0  0  0  0  0  0  0  0  0  0  0
   -8.4917   -0.1111    1.2808 H   0  0  0  0  0  0  0  0  0  0  0  0
   -6.8780    0.1130    1.9640 H   0  0  0  0  0  0  0  0  0  0  0  0
   -2.4174    2.0267    1.7120 H   0  0  0  0  0  0  0  0  0  0  0  0
    1.6142    3.6077    3.4205 H   0  0  0  0  0  0  0  0  0  0  0  0
   -1.4442    0.7623    6.3627 H   0  0  0  0  0  0  0  0  0  0  0  0
    4.1779    2.1479    8.5746 H   0  0  0  0  0  0  0  0  0  0  0  0
    2.7911    0.7510   10.2595 H   0  0  0  0  0  0  0  0  0  0  0  0
    3.5201    3.8932    4.4406 H   0  0  0  0  0  0  0  0  0  0  0  0
    4.9716    3.4621    7.0959 H   0  0  0  0  0  0  0  0  0  0  0  0
    5.5567    4.3769    5.6274 H   0  0  0  0  0  0  0  0  0  0  0  0
  1  2  2  0  0  0  0
  2  3  1  0  0  0  0
  3  4  1  0  0  0  0
  4  5  2  0  0  0  0
  5  6  1  0  0  0  0
  4  7  1  0  0  0  0
  7  8  2  0  0  0  0
  8  9  1  0  0  0  0
  9 10  2  0  0  0  0
 10 11  1  0  0  0  0
  8 12  1  0  0  0  0
 12 13  1  0  0  0  0
 13 14  2  0  0  0  0
 14 15  1  0  0  0  0
 15 16  2  0  0  0  0
 16 17  1  0  0  0  0
 17 18  2  0  0  0  0
 18 19  1  0  0  0  0
 19 20  1  0  0  0  0
 20 21  1  0  0  0  0
 21 22  1  0  0  0  0
 22 23  1  0  0  0  0
 21 24  2  0  0  0  0
 24 25  1  0  0  0  0
 24 26  1  0  0  0  0
 26 27  1  0  0  0  0
 18 28  1  0  0  0  0
 28 29  2  0  0  0  0
 29 30  1  0  0  0  0
 30 31  1  0  0  0  0
 31 32  1  0  0  0  0
 32 33  1  0  0  0  0
 33 34  1  0  0  0  0
 34 35  1  0  0  0  0
 33 36  2  0  0  0  0
 36 37  1  0  0  0  0
 37 38  1  0  0  0  0
 36 39  1  0  0  0  0
 30 40  2  0  0  0  0
 40 41  1  0  0  0  0
 29 42  1  0  0  0  0
 42 43  2  0  0  0  0
 43 44  1  0  0  0  0
 43 45  1  0  0  0  0
 45 46  2  0  0  0  0
 46 47  1  0  0  0  0
 47 48  2  0  0  0  0
 48 49  1  0  0  0  0
 49 50  1  0  0  0  0
 50 51  1  0  0  0  0
 51 52  1  0  0  0  0
 52 53  1  0  0  0  0
 51 54  2  0  0  0  0
 54 55  1  0  0  0  0
 54 56  1  0  0  0  0
 56 57  1  0  0  0  0
 48 58  1  0  0  0  0
 58 59  2  0  0  0  0
 59 60  1  0  0  0  0
 60 61  1  0  0  0  0
 61 62  1  0  0  0  0
 62 63  1  0  0  0  0
 63 64  1  0  0  0  0
 64 65  1  0  0  0  0
 63 66  2  0  0  0  0
 66 67  1  0  0  0  0
 67 68  1  0  0  0  0
 66 69  1  0  0  0  0
 60 70  2  0  0  0  0
 70 71  1  0  0  0  0
 59 72  1  0  0  0  0
 72 73  2  0  0  0  0
 73 74  1  0  0  0  0
 73 75  1  0  0  0  0
 75 76  2  0  0  0  0
 76 77  1  0  0  0  0
 77 78  2  0  0  0  0
 78 79  1  0  0  0  0
 79 80  1  0  0  0  0
 80 81  1  0  0  0  0
 81 82  1  0  0  0  0
 82 83  1  0  0  0  0
 81 84  2  0  0  0  0
 84 85  1  0  0  0  0
 84 86  1  0  0  0  0
 86 87  1  0  0  0  0
 78 88  1  0  0  0  0
 88 89  2  0  0  0  0
 89 90  1  0  0  0  0
 90 91  1  0  0  0  0
 91 92  1  0  0  0  0
 92 93  1  0  0  0  0
 93 94  1  0  0  0  0
 94 95  1  0  0  0  0
 93 96  2  0  0  0  0
 96 97  1  0  0  0  0
 97 98  1  0  0  0  0
 96 99  1  0  0  0  0
 90100  2  0  0  0  0
100101  1  0  0  0  0
 89102  1  0  0  0  0
102103  2  0  0  0  0
103104  1  0  0  0  0
103105  1  0  0  0  0
105106  2  0  0  0  0
106107  1  0  0  0  0
107108  2  0  0  0  0
108109  1  0  0  0  0
109110  1  0  0  0  0
110111  1  0  0  0  0
111112  1  0  0  0  0
112113  1  0  0  0  0
111114  2  0  0  0  0
114115  1  0  0  0  0
114116  1  0  0  0  0
116117  1  0  0  0  0
108118  1  0  0  0  0
118119  2  0  0  0  0
119120  1  0  0  0  0
120121  1  0  0  0  0
121122  1  0  0  0  0
122123  1  0  0  0  0
123124  1  0  0  0  0
124125  1  0  0  0  0
123126  2  0  0  0  0
126127  1  0  0  0  0
127128  1  0  0  0  0
126129  1  0  0  0  0
120130  2  0  0  0  0
130131  1  0  0  0  0
119132  1  0  0  0  0
132133  2  0  0  0  0
133134  1  0  0  0  0
133135  1  0  0  0  0
135136  2  0  0  0  0
136137  1  0  0  0  0
137138  1  0  0  0  0
138139  2  0  0  0  0
139140  1  0  0  0  0
138141  1  0  0  0  0
141142  2  0  0  0  0
142143  1  0  0  0  0
143144  2  0  0  0  0
144145  1  0  0  0  0
142146  1  0  0  0  0
146147  1  0  0  0  0
147148  2  0  0  0  0
  6  1  1  0  0  0  0
 11  7  1  0  0  0  0
 41 15  1  0  0  0  0
 71 45  1  0  0  0  0
101 75  1  0  0  0  0
131105  1  0  0  0  0
140135  1  0  0  0  0
145141  1  0  0  0  0
 12  3  2  0  0  0  0
 40 17  1  0  0  0  0
 70 47  1  0  0  0  0
100 77  1  0  0  0  0
130107  1  0  0  0  0
146137  2  0  0  0  0
 26 19  2  0  0  0  0
 44 28  1  0  0  0  0
 56 49  2  0  0  0  0
 74 58  1  0  0  0  0
 86 79  2  0  0  0  0
104 88  1  0  0  0  0
116109  2  0  0  0  0
134118  1  0  0  0  0
 37 31  2  0  0  0  0
 67 61  2  0  0  0  0
 97 91  2  0  0  0  0
127121  2  0  0  0  0
  1149  1  0  0  0  0
  2150  1  0  0  0  0
  5151  1  0  0  0  0
  9152  1  0  0  0  0
 10153  1  0  0  0  0
 13154  1  0  0  0  0
 14155  1  0  0  0  0
 16156  1  0  0  0  0
 22157  1  0  0  0  0
 22158  1  0  0  0  0
 23159  1  0  0  0  0
 23160  1  0  0  0  0
 23161  1  0  0  0  0
 34162  1  0  0  0  0
 34163  1  0  0  0  0
 35164  1  0  0  0  0
 35165  1  0  0  0  0
 35166  1  0  0  0  0
 42167  1  0  0  0  0
 46168  1  0  0  0  0
 52169  1  0  0  0  0
 52170  1  0  0  0  0
 53171  1  0  0  0  0
 53172  1  0  0  0  0
 53173  1  0  0  0  0
 64174  1  0  0  0  0
 64175  1  0  0  0  0
 65176  1  0  0  0  0
 65177  1  0  0  0  0
 65178  1  0  0  0  0
 72179  1  0  0  0  0
 76180  1  0  0  0  0
 82181  1  0  0  0  0
 82182  1  0  0  0  0
 83183  1  0  0  0  0
 83184  1  0  0  0  0
 83185  1  0  0  0  0
 94186  1  0  0  0  0
 94187  1  0  0  0  0
 95188  1  0  0  0  0
 95189  1  0  0  0  0
 95190  1  0  0  0  0
102191  1  0  0  0  0
106192  1  0  0  0  0
112193  1  0  0  0  0
112194  1  0  0  0  0
113195  1  0  0  0  0
113196  1  0  0  0  0
113197  1  0  0  0  0
124198  1  0  0  0  0
124199  1  0  0  0  0
125200  1  0  0  0  0
125201  1  0  0  0  0
125202  1  0  0  0  0
132203  1  0  0  0  0
136204  1  0  0  0  0
139205  1  0  0  0  0
143206  1  0  0  0  0
144207  1  0  0  0  0
147208  1  0  0  0  0
148209  1  0  0  0  0
148210  1  0  0  0  0
M  END
