
  xtb     03022213343D
 energy: -133.090046379079 gnorm: 0.000349567381 xtb: 6.4.1 (unknown)
 77 89  0     0  0            999 V2000
    5.5072   -1.2897   12.0324 C   0  0  0  0  0  0  0  0  0  0  0  0
    4.1763   -1.2488   11.8272 C   0  0  0  0  0  0  0  0  0  0  0  0
    3.9465   -0.3334   10.7124 C   0  0  0  0  0  0  0  0  0  0  0  0
    3.0480    0.2468    9.9011 C   0  0  0  0  0  0  0  0  0  0  0  0
    3.8655    1.0934    8.9781 C   0  0  0  0  0  0  0  0  0  0  0  0
    5.1488    1.0187    9.2348 N   0  0  0  0  0  0  0  0  0  0  0  0
    5.2682    0.1526   10.2945 C   0  0  0  0  0  0  0  0  0  0  0  0
    6.2108   -0.4177   11.0808 C   0  0  0  0  0  0  0  0  0  0  0  0
    3.3920    1.8900    7.9040 C   0  0  0  0  0  0  0  0  0  0  0  0
    2.0682    2.0252    7.5486 C   0  0  0  0  0  0  0  0  0  0  0  0
    1.6241    2.7782    6.4673 C   0  0  0  0  0  0  0  0  0  0  0  0
    2.5633    3.4795    5.5867 C   0  0  0  0  0  0  0  0  0  0  0  0
    3.9044    3.4898    5.7692 C   0  0  0  0  0  0  0  0  0  0  0  0
    4.7082    2.6742    7.0438 S   0  0  0  0  0  0  0  0  0  0  0  0
    1.7571    4.0760    4.5802 C   0  0  0  0  0  0  0  0  0  0  0  0
    0.4117    3.7595    4.7960 C   0  0  0  0  0  0  0  0  0  0  0  0
   -0.4361    4.3869    3.8523 C   0  0  0  0  0  0  0  0  0  0  0  0
    0.2704    5.1233    2.9585 C   0  0  0  0  0  0  0  0  0  0  0  0
    1.9840    5.1008    3.2207 S   0  0  0  0  0  0  0  0  0  0  0  0
    0.3119    2.9407    5.9726 C   0  0  0  0  0  0  0  0  0  0  0  0
   -0.8796    2.4686    6.5889 C   0  0  0  0  0  0  0  0  0  0  0  0
   -2.0478    2.1560    5.9685 C   0  0  0  0  0  0  0  0  0  0  0  0
   -2.2237    1.8931    4.5805 C   0  0  0  0  0  0  0  0  0  0  0  0
   -3.4181    1.8515    3.9049 C   0  0  0  0  0  0  0  0  0  0  0  0
   -3.1438    1.4486    2.5507 C   0  0  0  0  0  0  0  0  0  0  0  0
   -3.6463    1.1094    1.3465 C   0  0  0  0  0  0  0  0  0  0  0  0
   -2.4617    0.6951    0.5407 C   0  0  0  0  0  0  0  0  0  0  0  0
   -1.3377    0.7869    1.2127 N   0  0  0  0  0  0  0  0  0  0  0  0
   -1.6882    1.2355    2.4608 C   0  0  0  0  0  0  0  0  0  0  0  0
   -1.1292    1.4812    3.6639 C   0  0  0  0  0  0  0  0  0  0  0  0
   -2.5027    0.1821   -0.7808 C   0  0  0  0  0  0  0  0  0  0  0  0
   -3.5971   -0.0162   -1.5866 C   0  0  0  0  0  0  0  0  0  0  0  0
   -3.1280   -0.6388   -2.7973 C   0  0  0  0  0  0  0  0  0  0  0  0
   -3.4546   -1.1800   -3.9894 C   0  0  0  0  0  0  0  0  0  0  0  0
   -2.1612   -1.6539   -4.5593 C   0  0  0  0  0  0  0  0  0  0  0  0
   -1.1425   -1.4050   -3.7705 N   0  0  0  0  0  0  0  0  0  0  0  0
   -1.6679   -0.7873   -2.6645 C   0  0  0  0  0  0  0  0  0  0  0  0
   -1.2810   -0.2982   -1.4667 C   0  0  0  0  0  0  0  0  0  0  0  0
   -2.0076   -2.3396   -5.7921 C   0  0  0  0  0  0  0  0  0  0  0  0
   -2.9776   -2.6869   -6.7005 C   0  0  0  0  0  0  0  0  0  0  0  0
   -2.3284   -3.4133   -7.7606 C   0  0  0  0  0  0  0  0  0  0  0  0
   -2.4706   -4.0802   -8.9239 C   0  0  0  0  0  0  0  0  0  0  0  0
   -1.0934   -4.5362   -9.2720 C   0  0  0  0  0  0  0  0  0  0  0  0
   -0.2010   -4.1632   -8.3831 N   0  0  0  0  0  0  0  0  0  0  0  0
   -0.8937   -3.4705   -7.4252 C   0  0  0  0  0  0  0  0  0  0  0  0
   -0.6892   -2.8303   -6.2528 C   0  0  0  0  0  0  0  0  0  0  0  0
   -0.7524   -5.3014  -10.4128 C   0  0  0  0  0  0  0  0  0  0  0  0
   -1.5739   -5.7641  -11.4074 C   0  0  0  0  0  0  0  0  0  0  0  0
   -0.7524   -6.5071  -12.3294 C   0  0  0  0  0  0  0  0  0  0  0  0
   -0.7031   -7.2445  -13.4616 C   0  0  0  0  0  0  0  0  0  0  0  0
    0.7204   -7.6135  -13.6008 C   0  0  0  0  0  0  0  0  0  0  0  0
    1.4772   -7.1616  -12.6644 N   0  0  0  0  0  0  0  0  0  0  0  0
    0.6252   -6.4525  -11.8165 C   0  0  0  0  0  0  0  0  0  0  0  0
    0.6490   -5.7426  -10.6777 C   0  0  0  0  0  0  0  0  0  0  0  0
    6.0204   -1.8697   12.7787 H   0  0  0  0  0  0  0  0  0  0  0  0
    3.4120   -1.7786   12.3637 H   0  0  0  0  0  0  0  0  0  0  0  0
    1.9793    0.1536    9.8723 H   0  0  0  0  0  0  0  0  0  0  0  0
    7.2766   -0.2891   11.0504 H   0  0  0  0  0  0  0  0  0  0  0  0
    1.3338    1.5014    8.1445 H   0  0  0  0  0  0  0  0  0  0  0  0
    4.5663    4.0191    5.1018 H   0  0  0  0  0  0  0  0  0  0  0  0
   -1.5075    4.3091    3.8386 H   0  0  0  0  0  0  0  0  0  0  0  0
   -0.1092    5.6980    2.1365 H   0  0  0  0  0  0  0  0  0  0  0  0
   -0.8497    2.3988    7.6705 H   0  0  0  0  0  0  0  0  0  0  0  0
   -2.9289    2.0148    6.5831 H   0  0  0  0  0  0  0  0  0  0  0  0
   -4.3857    2.0913    4.3058 H   0  0  0  0  0  0  0  0  0  0  0  0
   -4.6597    1.0972    0.9946 H   0  0  0  0  0  0  0  0  0  0  0  0
   -0.1085    1.3434    3.9629 H   0  0  0  0  0  0  0  0  0  0  0  0
   -4.6193    0.2295   -1.3670 H   0  0  0  0  0  0  0  0  0  0  0  0
   -4.4095   -1.2832   -4.4677 H   0  0  0  0  0  0  0  0  0  0  0  0
   -0.3072   -0.2458   -1.0210 H   0  0  0  0  0  0  0  0  0  0  0  0
   -4.0283   -2.4725   -6.6443 H   0  0  0  0  0  0  0  0  0  0  0  0
   -3.3469   -4.2756   -9.5112 H   0  0  0  0  0  0  0  0  0  0  0  0
    0.2144   -2.6732   -5.6973 H   0  0  0  0  0  0  0  0  0  0  0  0
   -2.6329   -5.6133  -11.5005 H   0  0  0  0  0  0  0  0  0  0  0  0
   -1.4810   -7.5317  -14.1434 H   0  0  0  0  0  0  0  0  0  0  0  0
    1.1213   -8.2075  -14.4040 H   0  0  0  0  0  0  0  0  0  0  0  0
    1.4636   -5.4961  -10.0248 H   0  0  0  0  0  0  0  0  0  0  0  0
  1  2  2  0  0  0  0
  2  3  1  0  0  0  0
  3  4  2  0  0  0  0
  4  5  1  0  0  0  0
  5  6  2  0  0  0  0
  6  7  1  0  0  0  0
  7  8  2  0  0  0  0
  5  9  1  0  0  0  0
  9 10  2  0  0  0  0
 10 11  1  0  0  0  0
 11 12  1  0  0  0  0
 12 13  2  0  0  0  0
 13 14  1  0  0  0  0
 12 15  1  0  0  0  0
 15 16  2  0  0  0  0
 16 17  1  0  0  0  0
 17 18  2  0  0  0  0
 18 19  1  0  0  0  0
 16 20  1  0  0  0  0
 20 21  1  0  0  0  0
 21 22  2  0  0  0  0
 22 23  1  0  0  0  0
 23 24  2  0  0  0  0
 24 25  1  0  0  0  0
 25 26  2  0  0  0  0
 26 27  1  0  0  0  0
 27 28  2  0  0  0  0
 28 29  1  0  0  0  0
 29 30  2  0  0  0  0
 27 31  1  0  0  0  0
 31 32  2  0  0  0  0
 32 33  1  0  0  0  0
 33 34  2  0  0  0  0
 34 35  1  0  0  0  0
 35 36  2  0  0  0  0
 36 37  1  0  0  0  0
 37 38  2  0  0  0  0
 35 39  1  0  0  0  0
 39 40  2  0  0  0  0
 40 41  1  0  0  0  0
 41 42  2  0  0  0  0
 42 43  1  0  0  0  0
 43 44  2  0  0  0  0
 44 45  1  0  0  0  0
 45 46  2  0  0  0  0
 43 47  1  0  0  0  0
 47 48  2  0  0  0  0
 48 49  1  0  0  0  0
 49 50  2  0  0  0  0
 50 51  1  0  0  0  0
 51 52  2  0  0  0  0
 52 53  1  0  0  0  0
 53 54  2  0  0  0  0
  8  1  1  0  0  0  0
 14  9  1  0  0  0  0
 19 15  1  0  0  0  0
 30 23  1  0  0  0  0
 38 31  1  0  0  0  0
 46 39  1  0  0  0  0
 54 47  1  0  0  0  0
  7  3  1  0  0  0  0
 20 11  2  0  0  0  0
 29 25  1  0  0  0  0
 37 33  1  0  0  0  0
 45 41  1  0  0  0  0
 53 49  1  0  0  0  0
  1 55  1  0  0  0  0
  2 56  1  0  0  0  0
  4 57  1  0  0  0  0
  8 58  1  0  0  0  0
 10 59  1  0  0  0  0
 13 60  1  0  0  0  0
 17 61  1  0  0  0  0
 18 62  1  0  0  0  0
 21 63  1  0  0  0  0
 22 64  1  0  0  0  0
 24 65  1  0  0  0  0
 26 66  1  0  0  0  0
 30 67  1  0  0  0  0
 32 68  1  0  0  0  0
 34 69  1  0  0  0  0
 38 70  1  0  0  0  0
 40 71  1  0  0  0  0
 42 72  1  0  0  0  0
 46 73  1  0  0  0  0
 48 74  1  0  0  0  0
 50 75  1  0  0  0  0
 51 76  1  0  0  0  0
 54 77  1  0  0  0  0
M  END
