112

C          3.67260        1.15310        1.47300
C          2.74830        2.13250        1.71120
C          3.44050        3.43020        1.71660
C          4.80000        3.13980        1.47880
C          5.80950        4.09040        1.37080
C          7.10630        3.58320        1.11680
C          7.29900        2.22990        0.97560
C          6.25340        1.29010        1.06810
C          4.98260        1.74550        1.32520
C          5.40190        5.43730        1.51160
C          4.07620        5.73500        1.71270
C          3.07240        4.74880        1.80700
C          1.33520        1.94480        1.89410
C          0.54650        1.02570        1.22530
C         -0.81210        1.09480        1.76840
C         -0.77980        2.08540        2.77350
C         -1.86500        2.44730        3.56690
C         -1.60730        3.42640        4.55460
C         -0.34040        3.93620        4.70190
C          0.74370        3.54360        3.89210
C          0.51870        2.62620        2.89460
C         -3.07650        1.77010        3.29790
C         -3.12480        0.81570        2.31140
C         -2.00750        0.45990        1.53180
C          0.95970        0.20020        0.12310
C          0.63280       -1.12630       -0.10050
C          1.22210       -1.54830       -1.37540
C          1.91100       -0.42110       -1.87300
C          2.63340       -0.39140       -3.06290
C          3.24550        0.84090       -3.38320
C          3.08840        1.92330       -2.55160
C          2.34740        1.86850       -1.35770
C          1.77250        0.67420       -0.99580
C          2.66500       -1.59850       -3.79710
C          2.01370       -2.70620       -3.31580
C          1.29450       -2.71040       -2.10480
C         -0.04130       -2.01890        0.80440
C         -0.79690       -3.06870        0.37170
C         -1.40940       -4.01960        1.19940
C         -1.23160       -3.98940        2.65840
C         -0.55000       -3.02040        3.30640
S          0.23870       -1.71570        2.52190
C         -1.87700       -5.16210        3.13450
C         -2.38530       -5.88710        2.05360
C         -3.03310       -7.07420        2.46420
C         -2.99800       -7.22140        3.81390
S         -2.18670       -5.93200        4.64230
C         -2.12490       -5.16110        0.84460
C         -2.49050       -5.55840       -0.49050
C         -2.95020       -4.70840       -1.42430
C         -3.44850       -3.37960       -1.13470
C         -3.23550       -2.18720       -1.80070
C         -4.09510       -1.16080       -1.19890
C         -4.76500       -1.78490       -0.12530
C         -5.73250       -1.17820        0.67190
C         -6.31220       -1.99610        1.66860
C         -5.95360       -3.31920        1.76270
C         -5.01940       -3.92290        0.90010
C         -4.39560       -3.14320       -0.04310
C         -6.03420        0.16810        0.35690
C         -5.41560        0.77520       -0.70770
C         -4.45770        0.12620       -1.51300
C         -2.29270       -1.91630       -2.85290
C         -1.91120       -2.74170       -3.87650
C         -0.99560       -2.04920       -4.75240
C         -0.81980       -0.76230       -4.19490
C         -0.00530        0.22800       -4.73310
C          0.05550        1.43680       -4.00380
C         -0.62370        1.55030       -2.81660
C         -1.43080        0.52190       -2.28960
C         -1.57220       -0.63810       -3.00920
C          0.65900       -0.10740       -5.93570
C          0.49240       -1.35370       -6.49010
C         -0.32450       -2.34550       -5.91500
H          3.46600        0.09950        1.42400
H          7.94050        4.26450        1.02900
H          8.29640        1.86220        0.77740
H          6.46490        0.23960        0.93020
H          6.13410        6.22960        1.44710
H          3.77840        6.77080        1.79980
H          2.04360        5.05190        1.93890
H         -2.40740        3.75890        5.20040
H         -0.15640        4.66930        5.47490
H          1.72230        3.96170        4.07660
H         -3.95920        1.99940        3.87760
H         -4.05400        0.29890        2.12280
H         -2.11450       -0.31730        0.78870
H          3.83230        0.92680       -4.28670
H          3.55520        2.86230       -2.81540
H          2.25400        2.75780       -0.75320
H          3.20460       -1.64480       -4.73170
H          2.04990       -3.62470       -3.88430
H          0.82780       -3.62990       -1.78520
H         -0.93790       -3.16630       -0.69360
H         -0.43970       -3.00390        4.37960
H         -3.49770       -7.78240        1.80110
H         -3.40580       -8.02210        4.39970
H         -2.33940       -6.60250       -0.74020
H         -3.06530       -5.05740       -2.44240
H         -7.04970       -1.58120        2.34110
H         -6.41910       -3.93650        2.51850
H         -4.82120       -4.98000        0.99180
H         -6.76860        0.70440        0.94120
H         -5.67820        1.79410       -0.95610
H         -4.05030        0.64590       -2.36760
H         -2.26920       -3.73880       -4.05310
H          0.65090        2.25920       -4.37290
H         -0.54550        2.46840       -2.25130
H         -1.91200        0.67890       -1.33620
H          1.29960        0.62070       -6.41260
H          1.01130       -1.59230       -7.40850
H         -0.40840       -3.31130       -6.39290
