188

C          8.32870       -3.13140       13.84120
C          7.13180       -3.56750       13.38910
C          6.78510       -3.63220       12.02370
C          7.73050       -3.13370       11.01070
C          8.97380       -2.67220       11.27100
S          9.64050       -2.58360       12.84950
C          7.05270       -3.25230        9.76610
C          5.78640       -3.78800        9.97740
C          5.06110       -3.93470        8.77470
C          5.78350       -3.51140        7.70300
S          7.36220       -2.92450        8.10480
C          5.61030       -4.04630       11.38910
C          4.40600       -4.61040       11.88530
C          4.16400       -5.16360       13.09990
C          2.90300       -5.69330       13.51010
C          1.72610       -5.54400       12.81920
C          0.49590       -6.07940       13.19330
C          0.34730       -6.88440       14.40960
C          1.36040       -7.14340       15.26510
S          2.96520       -6.58080       15.03180
C         -1.01970       -7.27320       14.42990
C         -1.68190       -6.76050       13.31100
C         -3.04920       -7.11650       13.30450
C         -3.37830       -7.87370       14.38340
S         -2.05570       -8.18590       15.45490
C         -0.74100       -6.00320       12.52600
C         -0.92900       -5.30280       11.31310
C         -2.00480       -5.32050       10.48800
C         -2.02760       -4.58590        9.26940
C         -1.17420       -3.60090        8.84590
C         -1.43580       -3.13250        7.54150
C         -0.77060       -2.10980        6.83980
C          0.33250       -1.36890        7.42990
S          1.73610       -2.16240        8.09050
C          2.49710       -0.66080        8.50230
C          3.81910       -0.61990        9.18500
C          3.69450       -0.99190       10.66340
C          1.69330        0.38100        8.15250
Cl         2.09530        2.02930        8.41030
C          0.47160       -0.01370        7.54180
Cl        -0.72770        1.12190        7.08420
C         -1.21970       -1.83340        5.55440
C         -2.30470       -2.51960        4.95660
C         -3.00020       -3.50950        5.67570
C         -4.15090       -4.17950        5.09100
S         -5.49800       -3.25780        4.48810
C         -6.36430       -4.68070        4.01910
C         -7.68520       -4.58550        3.33820
C         -7.51100       -4.34580        1.83660
C         -5.63510       -5.79430        4.30950
C         -4.38370       -5.51550        4.92430
Cl        -3.26280       -6.74740        5.32760
Cl        -6.15810       -7.39400        3.97340
C         -2.54410       -3.79670        6.95230
S         -3.23950       -4.94940        8.05350
C         -2.51140       -2.11830        3.61650
C         -1.63710       -1.15910        3.19430
S         -0.51120       -0.69220        4.44800
C         -1.58210       -0.57190        1.89360
C         -2.12890       -1.08000        0.75090
C         -1.91490       -0.26900       -0.38800
C         -2.27660       -0.53720       -1.72110
C         -3.00740       -1.74370       -2.07180
S         -4.47640       -2.18020       -1.24510
C         -4.68790       -3.60800       -2.19740
C         -5.80650       -4.55750       -1.94230
C         -5.32750       -5.74240       -1.09960
C         -3.67010       -3.72960       -3.09550
Cl        -3.53590       -5.02400       -4.21310
C         -2.71780       -2.67750       -3.02890
Cl        -1.30270       -2.67250       -3.99480
C         -1.89490        0.39740       -2.67540
C         -1.17980        1.57860       -2.35300
C         -0.81880        1.84560       -1.02110
C         -0.08920        3.05040       -0.66200
S          1.40380        3.47560       -1.44710
C          1.58870        4.90920       -0.49700
C          2.78030        5.78970       -0.64420
C          3.89830        5.36010        0.30880
C          0.55150        5.03300        0.37840
C         -0.40270        3.98430        0.28690
Cl        -1.83840        3.96730        1.22180
Cl         0.38690        6.33410        1.48410
C         -1.18560        0.90370       -0.06890
S         -0.76900        0.95010        1.61920
C         -0.93780        2.37740       -3.49580
C         -1.42700        1.83990       -4.64950
S         -2.25120        0.32070       -4.37690
C         -1.27960        2.35160       -5.97070
C         -1.62910        1.75120       -7.14340
C         -1.27620        2.50360       -8.28980
C         -1.47780        2.17270       -9.64240
C         -2.22780        0.98610      -10.01510
S         -1.59320       -0.18600      -11.13110
C         -3.00110       -1.18350      -11.00510
C         -3.09380       -2.48540      -11.72120
C         -2.49530       -3.61510      -10.87930
C         -3.90060       -0.62820      -10.14450
Cl        -5.42120       -1.32830       -9.76790
C         -3.46830        0.60290       -9.58370
Cl        -4.45760        1.53730       -8.53700
C         -0.92750        3.02760      -10.58590
C         -0.24590        4.22140      -10.24480
C         -0.11670        4.59320       -8.89480
C          0.50180        5.84990       -8.51130
S          1.76380        5.91290       -7.31750
C          1.88920        7.63670       -7.42680
C          2.84320        8.38720       -6.56470
C          2.46300        8.26840       -5.08770
C          0.99680        8.11900       -8.33660
C          0.21180        7.10970       -8.95710
Cl        -1.03090        7.47290      -10.08440
Cl         0.81370        9.78280       -8.71800
C         -0.60880        3.70450       -7.94830
S         -0.49760        3.89980       -6.22250
C          0.25920        4.88710      -11.38670
C         -0.03960        4.26420      -12.56440
S         -0.97690        2.80000      -12.30990
C          0.32930        4.66090      -13.88790
C          0.04500        3.90760      -14.99320
C          0.40070        4.23860      -16.30520
C          1.13130        5.48320      -16.59080
C          1.50480        6.37880      -15.65330
S          1.18780        6.19840      -13.97670
C          1.32130        5.48330      -17.99690
C          0.75720        4.33200      -18.55570
C          0.94100        4.29780      -19.95810
C          1.61420        5.38760      -20.40870
S          2.05950        6.50530      -19.16450
C          0.17510        3.54570      -17.49840
C         -0.50820        2.28770      -17.59340
C         -0.78540        1.61260      -18.70910
H          8.56640       -3.08880       14.89050
H          6.39970       -3.85880       14.12690
H          9.63630       -2.32900       10.49230
H          4.06040       -4.31920        8.69140
H          5.48370       -3.50230        6.67330
H          3.60880       -4.62180       11.15320
H          4.96480       -5.27370       13.81580
H          1.76470       -4.96280       11.90990
H          1.23400       -7.73080       16.16080
H         -3.76350       -6.83030       12.55470
H         -4.33910       -8.28130       14.63080
H         -0.08300       -4.70670       10.99930
H         -2.85870       -5.94480       10.69940
H         -0.38630       -3.20280        9.45710
H          4.22390        0.38920        9.09200
H          4.50170       -1.31680        8.69580
H          3.04210       -0.29000       11.17700
H          4.67230       -0.97300       11.13770
H          3.28140       -1.99190       10.76760
H         -8.25770       -3.76440        3.77290
H         -8.23040       -5.51720        3.49930
H         -6.95700       -3.42610        1.66150
H         -6.96780       -5.17270        1.38720
H         -8.48280       -4.26490        1.35700
H         -3.28350       -2.52150        2.98840
H         -2.64310       -2.02180        0.72180
H         -6.18540       -4.92470       -2.89830
H         -6.61150       -4.03670       -1.42200
H         -6.15160       -6.42610       -0.91400
H         -4.93550       -5.39600       -0.14620
H         -4.54090       -6.28100       -1.62120
H          3.13930        5.74310       -1.67360
H          2.48640        6.81720       -0.42050
H          3.55510        5.41220        1.33880
H          4.75840        6.01440        0.19420
H          4.20470        4.33880        0.09590
H         -0.41080        3.31390       -3.47530
H         -2.09580        0.78360       -7.18000
H         -4.14480       -2.69990      -11.92450
H         -2.55930       -2.41550      -12.66980
H         -2.57290       -4.55900      -11.41210
H         -1.44680       -3.41580      -10.67120
H         -3.02650       -3.70320       -9.93510
H          2.83520        9.43490       -6.86960
H          3.85190        7.99220       -6.70900
H          2.46890        7.22520       -4.78090
H          3.17070        8.81940       -4.47420
H          1.46800        8.67270       -4.92030
H          0.84680        5.78540      -11.33510
H         -0.49030        2.98320      -14.81820
H          2.03800        7.28500      -15.89440
H          0.60430        3.51830      -20.61590
H          1.88850        5.61670      -21.42010
H         -0.82140        1.86770      -16.64570
H         -0.51460        1.96950      -19.68540
H         -1.30590        0.67120      -18.67440
