
  xtb     03032202523D
 energy: -507.961637222052 gnorm: 0.000579015032 xtb: 6.4.1 (unknown)
254283  0     0  0            999 V2000
    2.2745  -13.5248    2.7462 C   0  0  0  0  0  0  0  0  0  0  0  0
    3.0612  -13.1265    1.7255 C   0  0  0  0  0  0  0  0  0  0  0  0
    2.6582  -11.8767    1.1713 C   0  0  0  0  0  0  0  0  0  0  0  0
    3.2546  -11.1491    0.1286 C   0  0  0  0  0  0  0  0  0  0  0  0
    4.5036  -11.5713   -0.4838 C   0  0  0  0  0  0  0  0  0  0  0  0
    4.6654  -11.7073   -2.2087 S   0  0  0  0  0  0  0  0  0  0  0  0
    6.3309  -12.1645   -2.0950 C   0  0  0  0  0  0  0  0  0  0  0  0
    7.1457  -12.3938   -3.3196 C   0  0  0  0  0  0  0  0  0  0  0  0
    7.4765  -11.0681   -4.0094 C   0  0  0  0  0  0  0  0  0  0  0  0
    6.7246  -12.1997   -0.7907 C   0  0  0  0  0  0  0  0  0  0  0  0
    8.3121  -12.6019   -0.2761 Cl  0  0  0  0  0  0  0  0  0  0  0  0
    5.6904  -11.8687    0.1263 C   0  0  0  0  0  0  0  0  0  0  0  0
    5.9550  -11.7714    1.8197 Cl  0  0  0  0  0  0  0  0  0  0  0  0
    2.6058   -9.9915   -0.2817 C   0  0  0  0  0  0  0  0  0  0  0  0
    1.4280   -9.5151    0.3398 C   0  0  0  0  0  0  0  0  0  0  0  0
    0.8813  -10.1929    1.4380 C   0  0  0  0  0  0  0  0  0  0  0  0
   -0.2525   -9.6375    2.1692 C   0  0  0  0  0  0  0  0  0  0  0  0
   -0.0790   -8.1537    3.0590 S   0  0  0  0  0  0  0  0  0  0  0  0
   -1.7175   -8.2036    3.6109 C   0  0  0  0  0  0  0  0  0  0  0  0
   -2.2537   -7.1701    4.5392 C   0  0  0  0  0  0  0  0  0  0  0  0
   -1.9539   -7.5295    5.9959 C   0  0  0  0  0  0  0  0  0  0  0  0
   -2.3457   -9.3125    3.1285 C   0  0  0  0  0  0  0  0  0  0  0  0
   -1.5166  -10.1296    2.3120 C   0  0  0  0  0  0  0  0  0  0  0  0
   -2.0739  -11.5593    1.5496 Cl  0  0  0  0  0  0  0  0  0  0  0  0
   -3.9856   -9.6939    3.4528 Cl  0  0  0  0  0  0  0  0  0  0  0  0
    1.4992  -11.3762    1.8145 C   0  0  0  0  0  0  0  0  0  0  0  0
    0.9893  -12.4244    3.1059 S   0  0  0  0  0  0  0  0  0  0  0  0
    0.9330   -8.3448   -0.2837 C   0  0  0  0  0  0  0  0  0  0  0  0
    1.7110   -7.9061   -1.3102 C   0  0  0  0  0  0  0  0  0  0  0  0
    3.1158   -8.9243   -1.5632 S   0  0  0  0  0  0  0  0  0  0  0  0
    1.4945   -6.7360   -2.0984 C   0  0  0  0  0  0  0  0  0  0  0  0
    2.4046   -6.0182   -2.8121 C   0  0  0  0  0  0  0  0  0  0  0  0
    1.8744   -4.8180   -3.3489 C   0  0  0  0  0  0  0  0  0  0  0  0
    2.5642   -3.8062   -4.0376 C   0  0  0  0  0  0  0  0  0  0  0  0
    3.9747   -3.9642   -4.3571 C   0  0  0  0  0  0  0  0  0  0  0  0
    4.5216   -5.3227   -5.2948 S   0  0  0  0  0  0  0  0  0  0  0  0
    6.1763   -4.8205   -5.2026 C   0  0  0  0  0  0  0  0  0  0  0  0
    7.2578   -5.6443   -5.8093 C   0  0  0  0  0  0  0  0  0  0  0  0
    7.5031   -6.9148   -4.9920 C   0  0  0  0  0  0  0  0  0  0  0  0
    6.2808   -3.6701   -4.4802 C   0  0  0  0  0  0  0  0  0  0  0  0
    7.7638   -2.8676   -4.1601 Cl  0  0  0  0  0  0  0  0  0  0  0  0
    5.0347   -3.1793   -4.0018 C   0  0  0  0  0  0  0  0  0  0  0  0
    4.9138   -1.7905   -3.0057 Cl  0  0  0  0  0  0  0  0  0  0  0  0
    1.8471   -2.6628   -4.3577 C   0  0  0  0  0  0  0  0  0  0  0  0
    0.4677   -2.5088   -4.0614 C   0  0  0  0  0  0  0  0  0  0  0  0
   -0.2402   -3.5498   -3.4321 C   0  0  0  0  0  0  0  0  0  0  0  0
   -1.6674   -3.4688   -3.1859 C   0  0  0  0  0  0  0  0  0  0  0  0
   -2.3442   -3.9685   -1.6649 S   0  0  0  0  0  0  0  0  0  0  0  0
   -3.9562   -3.5920   -2.1551 C   0  0  0  0  0  0  0  0  0  0  0  0
   -5.0872   -3.7422   -1.1985 C   0  0  0  0  0  0  0  0  0  0  0  0
   -5.0249   -2.6710   -0.1080 C   0  0  0  0  0  0  0  0  0  0  0  0
   -3.9602   -3.1222   -3.4350 C   0  0  0  0  0  0  0  0  0  0  0  0
   -2.6697   -3.0608   -4.0270 C   0  0  0  0  0  0  0  0  0  0  0  0
   -2.4468   -2.6208   -5.6711 Cl  0  0  0  0  0  0  0  0  0  0  0  0
   -5.3781   -2.6530   -4.2797 Cl  0  0  0  0  0  0  0  0  0  0  0  0
    0.5030   -4.6588   -3.0423 C   0  0  0  0  0  0  0  0  0  0  0  0
   -0.0962   -6.0043   -2.1190 S   0  0  0  0  0  0  0  0  0  0  0  0
    0.0030   -1.2162   -4.4028 C   0  0  0  0  0  0  0  0  0  0  0  0
    0.9578   -0.4213   -4.9659 C   0  0  0  0  0  0  0  0  0  0  0  0
    2.4946   -1.2434   -5.1283 S   0  0  0  0  0  0  0  0  0  0  0  0
    0.8417    0.9662   -5.2749 C   0  0  0  0  0  0  0  0  0  0  0  0
    1.8512    1.8637   -5.4679 C   0  0  0  0  0  0  0  0  0  0  0  0
    1.4120    3.2101   -5.4990 C   0  0  0  0  0  0  0  0  0  0  0  0
    2.2083    4.3730   -5.4996 C   0  0  0  0  0  0  0  0  0  0  0  0
    3.6382    4.2886   -5.7286 C   0  0  0  0  0  0  0  0  0  0  0  0
    4.7910    5.0677   -4.6861 S   0  0  0  0  0  0  0  0  0  0  0  0
    6.1341    4.4923   -5.6133 C   0  0  0  0  0  0  0  0  0  0  0  0
    7.5290    4.8712   -5.2578 C   0  0  0  0  0  0  0  0  0  0  0  0
    7.8597    6.2736   -5.7741 C   0  0  0  0  0  0  0  0  0  0  0  0
    5.6993    3.7537   -6.6734 C   0  0  0  0  0  0  0  0  0  0  0  0
    6.7404    3.0308   -7.8302 Cl  0  0  0  0  0  0  0  0  0  0  0  0
    4.2862    3.6283   -6.7380 C   0  0  0  0  0  0  0  0  0  0  0  0
    3.4933    2.7968   -8.0127 Cl  0  0  0  0  0  0  0  0  0  0  0  0
    1.5685    5.5667   -5.1904 C   0  0  0  0  0  0  0  0  0  0  0  0
    0.1640    5.6575   -5.0389 C   0  0  0  0  0  0  0  0  0  0  0  0
   -0.6452    4.5133   -5.1435 C   0  0  0  0  0  0  0  0  0  0  0  0
   -2.0791    4.6093   -4.9048 C   0  0  0  0  0  0  0  0  0  0  0  0
   -3.0975    5.5884   -5.9170 S   0  0  0  0  0  0  0  0  0  0  0  0
   -4.5090    5.2281   -4.9801 C   0  0  0  0  0  0  0  0  0  0  0  0
   -5.8466    5.7473   -5.3759 C   0  0  0  0  0  0  0  0  0  0  0  0
   -6.4228    4.9443   -6.5438 C   0  0  0  0  0  0  0  0  0  0  0  0
   -4.1908    4.3989   -3.9474 C   0  0  0  0  0  0  0  0  0  0  0  0
   -2.8128    4.0523   -3.8962 C   0  0  0  0  0  0  0  0  0  0  0  0
   -2.1495    3.1003   -2.6339 Cl  0  0  0  0  0  0  0  0  0  0  0  0
   -5.3220    3.8256   -2.7932 Cl  0  0  0  0  0  0  0  0  0  0  0  0
    0.0071    3.3048   -5.3278 C   0  0  0  0  0  0  0  0  0  0  0  0
   -0.7318    1.7332   -5.2319 S   0  0  0  0  0  0  0  0  0  0  0  0
   -0.2379    6.9054   -4.5132 C   0  0  0  0  0  0  0  0  0  0  0  0
    0.8091    7.7229   -4.1873 C   0  0  0  0  0  0  0  0  0  0  0  0
    2.3398    7.0676   -4.7417 S   0  0  0  0  0  0  0  0  0  0  0  0
    0.7405    8.6800   -3.1248 C   0  0  0  0  0  0  0  0  0  0  0  0
   -0.4093    9.0635   -2.4924 C   0  0  0  0  0  0  0  0  0  0  0  0
   -0.2294    9.2998   -1.1083 C   0  0  0  0  0  0  0  0  0  0  0  0
   -1.2422    9.2902   -0.1348 C   0  0  0  0  0  0  0  0  0  0  0  0
   -2.6514    9.2438   -0.5143 C   0  0  0  0  0  0  0  0  0  0  0  0
   -3.7618   10.5103   -0.1008 S   0  0  0  0  0  0  0  0  0  0  0  0
   -5.0892    9.6971   -0.8586 C   0  0  0  0  0  0  0  0  0  0  0  0
   -6.4645   10.2662   -0.8254 C   0  0  0  0  0  0  0  0  0  0  0  0
   -7.1972    9.8435    0.4502 C   0  0  0  0  0  0  0  0  0  0  0  0
   -4.6798    8.5074   -1.3819 C   0  0  0  0  0  0  0  0  0  0  0  0
   -5.7090    7.4124   -2.2079 Cl  0  0  0  0  0  0  0  0  0  0  0  0
   -3.2969    8.2469   -1.1890 C   0  0  0  0  0  0  0  0  0  0  0  0
   -2.5468    6.7863   -1.7053 Cl  0  0  0  0  0  0  0  0  0  0  0  0
   -0.8458    9.0591    1.1723 C   0  0  0  0  0  0  0  0  0  0  0  0
    0.5128    8.9543    1.5545 C   0  0  0  0  0  0  0  0  0  0  0  0
    1.5366    9.1523    0.6038 C   0  0  0  0  0  0  0  0  0  0  0  0
    2.9243    9.1007    1.0149 C   0  0  0  0  0  0  0  0  0  0  0  0
    4.1236    8.1656    0.1708 S   0  0  0  0  0  0  0  0  0  0  0  0
    5.3693    8.6127    1.2867 C   0  0  0  0  0  0  0  0  0  0  0  0
    6.7675    8.1380    1.1004 C   0  0  0  0  0  0  0  0  0  0  0  0
    7.4574    8.8988   -0.0339 C   0  0  0  0  0  0  0  0  0  0  0  0
    4.8754    9.4513    2.2416 C   0  0  0  0  0  0  0  0  0  0  0  0
    3.4891    9.7217    2.0984 C   0  0  0  0  0  0  0  0  0  0  0  0
    2.6442   10.7828    3.1486 Cl  0  0  0  0  0  0  0  0  0  0  0  0
    5.8158   10.1237    3.5102 Cl  0  0  0  0  0  0  0  0  0  0  0  0
    1.1332    9.2226   -0.7237 C   0  0  0  0  0  0  0  0  0  0  0  0
    2.1542    8.9247   -2.1060 S   0  0  0  0  0  0  0  0  0  0  0  0
    0.6551    8.2917    2.7991 C   0  0  0  0  0  0  0  0  0  0  0  0
   -0.5288    7.8568    3.3227 C   0  0  0  0  0  0  0  0  0  0  0  0
   -1.9093    8.4727    2.4253 S   0  0  0  0  0  0  0  0  0  0  0  0
   -0.6961    6.6956    4.1450 C   0  0  0  0  0  0  0  0  0  0  0  0
    0.2030    5.6661    4.1498 C   0  0  0  0  0  0  0  0  0  0  0  0
   -0.3429    4.4381    4.5865 C   0  0  0  0  0  0  0  0  0  0  0  0
    0.2304    3.1632    4.4247 C   0  0  0  0  0  0  0  0  0  0  0  0
    1.6107    3.0087    4.0075 C   0  0  0  0  0  0  0  0  0  0  0  0
    2.0429    1.9474    2.6973 S   0  0  0  0  0  0  0  0  0  0  0  0
    3.7200    2.3553    2.8117 C   0  0  0  0  0  0  0  0  0  0  0  0
    4.7272    1.7557    1.8915 C   0  0  0  0  0  0  0  0  0  0  0  0
    4.4030    0.3055    1.5457 C   0  0  0  0  0  0  0  0  0  0  0  0
    3.9176    3.2630    3.8101 C   0  0  0  0  0  0  0  0  0  0  0  0
    5.4526    3.9118    4.2247 Cl  0  0  0  0  0  0  0  0  0  0  0  0
    2.7275    3.6370    4.4891 C   0  0  0  0  0  0  0  0  0  0  0  0
    2.7325    4.7069    5.8318 Cl  0  0  0  0  0  0  0  0  0  0  0  0
   -0.6305    2.0816    4.5508 C   0  0  0  0  0  0  0  0  0  0  0  0
   -1.9892    2.2011    4.9359 C   0  0  0  0  0  0  0  0  0  0  0  0
   -2.5258    3.4743    5.2119 C   0  0  0  0  0  0  0  0  0  0  0  0
   -3.9041    3.6679    5.6241 C   0  0  0  0  0  0  0  0  0  0  0  0
   -5.2387    2.9327    4.7853 S   0  0  0  0  0  0  0  0  0  0  0  0
   -6.4079    3.6888    5.8121 C   0  0  0  0  0  0  0  0  0  0  0  0
   -7.8622    3.4153    5.6507 C   0  0  0  0  0  0  0  0  0  0  0  0
   -8.2411    2.0767    6.2888 C   0  0  0  0  0  0  0  0  0  0  0  0
   -5.7859    4.4550    6.7519 C   0  0  0  0  0  0  0  0  0  0  0  0
   -4.3696    4.4556    6.6423 C   0  0  0  0  0  0  0  0  0  0  0  0
   -3.3651    5.3001    7.7436 Cl  0  0  0  0  0  0  0  0  0  0  0  0
   -6.6136    5.3497    7.9592 Cl  0  0  0  0  0  0  0  0  0  0  0  0
   -1.6981    4.5678    4.9747 C   0  0  0  0  0  0  0  0  0  0  0  0
   -2.2313    6.2247    4.8379 S   0  0  0  0  0  0  0  0  0  0  0  0
   -2.6622    0.9528    4.8746 C   0  0  0  0  0  0  0  0  0  0  0  0
   -1.8781   -0.0623    4.4128 C   0  0  0  0  0  0  0  0  0  0  0  0
   -0.2210    0.4421    4.1512 S   0  0  0  0  0  0  0  0  0  0  0  0
   -2.2523   -1.3657    3.9694 C   0  0  0  0  0  0  0  0  0  0  0  0
   -1.4919   -2.1678    3.1713 C   0  0  0  0  0  0  0  0  0  0  0  0
   -2.1685   -3.3242    2.7179 C   0  0  0  0  0  0  0  0  0  0  0  0
   -1.7047   -4.2858    1.8055 C   0  0  0  0  0  0  0  0  0  0  0  0
   -0.4151   -4.1014    1.1548 C   0  0  0  0  0  0  0  0  0  0  0  0
    0.8500   -5.2883    1.2406 S   0  0  0  0  0  0  0  0  0  0  0  0
    1.9355   -4.3178    0.3083 C   0  0  0  0  0  0  0  0  0  0  0  0
    3.3465   -4.7279    0.0702 C   0  0  0  0  0  0  0  0  0  0  0  0
    4.2642   -4.1459    1.1485 C   0  0  0  0  0  0  0  0  0  0  0  0
    1.3359   -3.1464   -0.0472 C   0  0  0  0  0  0  0  0  0  0  0  0
    2.0891   -1.9395   -1.0061 Cl  0  0  0  0  0  0  0  0  0  0  0  0
    0.0102   -3.0131    0.4409 C   0  0  0  0  0  0  0  0  0  0  0  0
   -0.9388   -1.6213    0.1154 Cl  0  0  0  0  0  0  0  0  0  0  0  0
   -2.5540   -5.3520    1.5376 C   0  0  0  0  0  0  0  0  0  0  0  0
   -3.8484   -5.4606    2.1005 C   0  0  0  0  0  0  0  0  0  0  0  0
   -4.3229   -4.4766    2.9806 C   0  0  0  0  0  0  0  0  0  0  0  0
   -5.6531   -4.5541    3.5649 C   0  0  0  0  0  0  0  0  0  0  0  0
   -7.0839   -4.6201    2.5807 S   0  0  0  0  0  0  0  0  0  0  0  0
   -8.1274   -4.6462    3.9612 C   0  0  0  0  0  0  0  0  0  0  0  0
   -9.6045   -4.7525    3.8099 C   0  0  0  0  0  0  0  0  0  0  0  0
  -10.0352   -6.2129    3.6537 C   0  0  0  0  0  0  0  0  0  0  0  0
   -7.3937   -4.6198    5.1094 C   0  0  0  0  0  0  0  0  0  0  0  0
   -5.9911   -4.5611    4.8882 C   0  0  0  0  0  0  0  0  0  0  0  0
   -4.8492   -4.5724    6.1652 Cl  0  0  0  0  0  0  0  0  0  0  0  0
   -8.0772   -4.6448    6.6835 Cl  0  0  0  0  0  0  0  0  0  0  0  0
   -3.4692   -3.4211    3.2699 C   0  0  0  0  0  0  0  0  0  0  0  0
   -3.8429   -2.0364    4.2605 S   0  0  0  0  0  0  0  0  0  0  0  0
   -4.5181   -6.6404    1.6617 C   0  0  0  0  0  0  0  0  0  0  0  0
   -3.7769   -7.3758    0.8095 C   0  0  0  0  0  0  0  0  0  0  0  0
   -2.2257   -6.6902    0.4769 S   0  0  0  0  0  0  0  0  0  0  0  0
    2.3588  -14.4207    3.3296 H   0  0  0  0  0  0  0  0  0  0  0  0
    3.8938  -13.6967    1.3572 H   0  0  0  0  0  0  0  0  0  0  0  0
    8.0672  -12.9041   -3.0354 H   0  0  0  0  0  0  0  0  0  0  0  0
    6.5923  -13.0316   -4.0118 H   0  0  0  0  0  0  0  0  0  0  0  0
    8.0417  -10.4244   -3.3401 H   0  0  0  0  0  0  0  0  0  0  0  0
    6.5612  -10.5547   -4.2938 H   0  0  0  0  0  0  0  0  0  0  0  0
    8.0690  -11.2496   -4.9019 H   0  0  0  0  0  0  0  0  0  0  0  0
   -3.3339   -7.0972    4.3991 H   0  0  0  0  0  0  0  0  0  0  0  0
   -1.8064   -6.2026    4.3038 H   0  0  0  0  0  0  0  0  0  0  0  0
   -0.8805   -7.5943    6.1567 H   0  0  0  0  0  0  0  0  0  0  0  0
   -2.4029   -8.4866    6.2486 H   0  0  0  0  0  0  0  0  0  0  0  0
   -2.3620   -6.7683    6.6552 H   0  0  0  0  0  0  0  0  0  0  0  0
    0.0307   -7.8495    0.0196 H   0  0  0  0  0  0  0  0  0  0  0  0
    3.4320   -6.3187   -2.9116 H   0  0  0  0  0  0  0  0  0  0  0  0
    8.1699   -5.0471   -5.8496 H   0  0  0  0  0  0  0  0  0  0  0  0
    6.9767   -5.9205   -6.8278 H   0  0  0  0  0  0  0  0  0  0  0  0
    6.5968   -7.5141   -4.9459 H   0  0  0  0  0  0  0  0  0  0  0  0
    8.2904   -7.5075   -5.4495 H   0  0  0  0  0  0  0  0  0  0  0  0
    7.8030   -6.6599   -3.9786 H   0  0  0  0  0  0  0  0  0  0  0  0
   -5.0422   -4.7293   -0.7328 H   0  0  0  0  0  0  0  0  0  0  0  0
   -6.0260   -3.6594   -1.7477 H   0  0  0  0  0  0  0  0  0  0  0  0
   -5.8337   -2.8161    0.6033 H   0  0  0  0  0  0  0  0  0  0  0  0
   -4.0772   -2.7306    0.4227 H   0  0  0  0  0  0  0  0  0  0  0  0
   -5.1148   -1.6799   -0.5452 H   0  0  0  0  0  0  0  0  0  0  0  0
   -0.9866   -0.8581   -4.1851 H   0  0  0  0  0  0  0  0  0  0  0  0
    2.8848    1.5695   -5.5026 H   0  0  0  0  0  0  0  0  0  0  0  0
    8.2133    4.1451   -5.6999 H   0  0  0  0  0  0  0  0  0  0  0  0
    7.6454    4.8483   -4.1728 H   0  0  0  0  0  0  0  0  0  0  0  0
    7.7631    6.3089   -6.8562 H   0  0  0  0  0  0  0  0  0  0  0  0
    8.8787    6.5396   -5.5065 H   0  0  0  0  0  0  0  0  0  0  0  0
    7.1806    7.0037   -5.3401 H   0  0  0  0  0  0  0  0  0  0  0  0
   -5.7588    6.7966   -5.6648 H   0  0  0  0  0  0  0  0  0  0  0  0
   -6.5154    5.6773   -4.5164 H   0  0  0  0  0  0  0  0  0  0  0  0
   -7.4005    5.3320   -6.8169 H   0  0  0  0  0  0  0  0  0  0  0  0
   -5.7657    5.0111   -7.4078 H   0  0  0  0  0  0  0  0  0  0  0  0
   -6.5273    3.8983   -6.2665 H   0  0  0  0  0  0  0  0  0  0  0  0
   -1.2562    7.1210   -4.2499 H   0  0  0  0  0  0  0  0  0  0  0  0
   -1.3742    9.0501   -2.9627 H   0  0  0  0  0  0  0  0  0  0  0  0
   -6.4076   11.3550   -0.8688 H   0  0  0  0  0  0  0  0  0  0  0  0
   -7.0139    9.9081   -1.6984 H   0  0  0  0  0  0  0  0  0  0  0  0
   -6.6590   10.1929    1.3281 H   0  0  0  0  0  0  0  0  0  0  0  0
   -8.1984   10.2653    0.4626 H   0  0  0  0  0  0  0  0  0  0  0  0
   -7.2739    8.7603    0.4992 H   0  0  0  0  0  0  0  0  0  0  0  0
    7.3140    8.2878    2.0329 H   0  0  0  0  0  0  0  0  0  0  0  0
    6.7598    7.0714    0.8673 H   0  0  0  0  0  0  0  0  0  0  0  0
    6.9179    8.7527   -0.9667 H   0  0  0  0  0  0  0  0  0  0  0  0
    8.4760    8.5413   -0.1577 H   0  0  0  0  0  0  0  0  0  0  0  0
    7.4865    9.9625    0.1886 H   0  0  0  0  0  0  0  0  0  0  0  0
    1.6090    8.0349    3.2217 H   0  0  0  0  0  0  0  0  0  0  0  0
    1.1847    5.7512    3.7232 H   0  0  0  0  0  0  0  0  0  0  0  0
    4.7644    2.3453    0.9698 H   0  0  0  0  0  0  0  0  0  0  0  0
    5.7083    1.8227    2.3666 H   0  0  0  0  0  0  0  0  0  0  0  0
    4.3624   -0.3003    2.4479 H   0  0  0  0  0  0  0  0  0  0  0  0
    3.4402    0.2412    1.0435 H   0  0  0  0  0  0  0  0  0  0  0  0
    5.1651   -0.1010    0.8858 H   0  0  0  0  0  0  0  0  0  0  0  0
   -8.1119    3.3932    4.5882 H   0  0  0  0  0  0  0  0  0  0  0  0
   -8.4234    4.2215    6.1260 H   0  0  0  0  0  0  0  0  0  0  0  0
   -9.3048    1.8925    6.1657 H   0  0  0  0  0  0  0  0  0  0  0  0
   -7.6891    1.2655    5.8197 H   0  0  0  0  0  0  0  0  0  0  0  0
   -8.0098    2.0867    7.3509 H   0  0  0  0  0  0  0  0  0  0  0  0
   -3.7041    0.8184    5.1013 H   0  0  0  0  0  0  0  0  0  0  0  0
   -0.4815   -1.9226    2.9003 H   0  0  0  0  0  0  0  0  0  0  0  0
    3.4167   -5.8163    0.0762 H   0  0  0  0  0  0  0  0  0  0  0  0
    3.6610   -4.3590   -0.9083 H   0  0  0  0  0  0  0  0  0  0  0  0
    5.2919   -4.4456    0.9629 H   0  0  0  0  0  0  0  0  0  0  0  0
    4.2101   -3.0602    1.1408 H   0  0  0  0  0  0  0  0  0  0  0  0
    3.9670   -4.5041    2.1311 H   0  0  0  0  0  0  0  0  0  0  0  0
  -10.0778   -4.3245    4.6955 H   0  0  0  0  0  0  0  0  0  0  0  0
   -9.9219   -4.1846    2.9336 H   0  0  0  0  0  0  0  0  0  0  0  0
   -9.5757   -6.6500    2.7703 H   0  0  0  0  0  0  0  0  0  0  0  0
   -9.7344   -6.7899    4.5245 H   0  0  0  0  0  0  0  0  0  0  0  0
  -11.1152   -6.2742    3.5516 H   0  0  0  0  0  0  0  0  0  0  0  0
   -5.5054   -6.9155    1.9839 H   0  0  0  0  0  0  0  0  0  0  0  0
   -4.0365   -8.3038    0.3392 H   0  0  0  0  0  0  0  0  0  0  0  0
  1  2  2  0  0  0  0
  2  3  1  0  0  0  0
  3  4  2  0  0  0  0
  4  5  1  0  0  0  0
  5  6  1  0  0  0  0
  6  7  1  0  0  0  0
  7  8  1  0  0  0  0
  8  9  1  0  0  0  0
  7 10  2  0  0  0  0
 10 11  1  0  0  0  0
 10 12  1  0  0  0  0
 12 13  1  0  0  0  0
  4 14  1  0  0  0  0
 14 15  2  0  0  0  0
 15 16  1  0  0  0  0
 16 17  1  0  0  0  0
 17 18  1  0  0  0  0
 18 19  1  0  0  0  0
 19 20  1  0  0  0  0
 20 21  1  0  0  0  0
 19 22  2  0  0  0  0
 22 23  1  0  0  0  0
 23 24  1  0  0  0  0
 22 25  1  0  0  0  0
 16 26  2  0  0  0  0
 26 27  1  0  0  0  0
 15 28  1  0  0  0  0
 28 29  2  0  0  0  0
 29 30  1  0  0  0  0
 29 31  1  0  0  0  0
 31 32  2  0  0  0  0
 32 33  1  0  0  0  0
 33 34  2  0  0  0  0
 34 35  1  0  0  0  0
 35 36  1  0  0  0  0
 36 37  1  0  0  0  0
 37 38  1  0  0  0  0
 38 39  1  0  0  0  0
 37 40  2  0  0  0  0
 40 41  1  0  0  0  0
 40 42  1  0  0  0  0
 42 43  1  0  0  0  0
 34 44  1  0  0  0  0
 44 45  2  0  0  0  0
 45 46  1  0  0  0  0
 46 47  1  0  0  0  0
 47 48  1  0  0  0  0
 48 49  1  0  0  0  0
 49 50  1  0  0  0  0
 50 51  1  0  0  0  0
 49 52  2  0  0  0  0
 52 53  1  0  0  0  0
 53 54  1  0  0  0  0
 52 55  1  0  0  0  0
 46 56  2  0  0  0  0
 56 57  1  0  0  0  0
 45 58  1  0  0  0  0
 58 59  2  0  0  0  0
 59 60  1  0  0  0  0
 59 61  1  0  0  0  0
 61 62  2  0  0  0  0
 62 63  1  0  0  0  0
 63 64  2  0  0  0  0
 64 65  1  0  0  0  0
 65 66  1  0  0  0  0
 66 67  1  0  0  0  0
 67 68  1  0  0  0  0
 68 69  1  0  0  0  0
 67 70  2  0  0  0  0
 70 71  1  0  0  0  0
 70 72  1  0  0  0  0
 72 73  1  0  0  0  0
 64 74  1  0  0  0  0
 74 75  2  0  0  0  0
 75 76  1  0  0  0  0
 76 77  1  0  0  0  0
 77 78  1  0  0  0  0
 78 79  1  0  0  0  0
 79 80  1  0  0  0  0
 80 81  1  0  0  0  0
 79 82  2  0  0  0  0
 82 83  1  0  0  0  0
 83 84  1  0  0  0  0
 82 85  1  0  0  0  0
 76 86  2  0  0  0  0
 86 87  1  0  0  0  0
 75 88  1  0  0  0  0
 88 89  2  0  0  0  0
 89 90  1  0  0  0  0
 89 91  1  0  0  0  0
 91 92  2  0  0  0  0
 92 93  1  0  0  0  0
 93 94  2  0  0  0  0
 94 95  1  0  0  0  0
 95 96  1  0  0  0  0
 96 97  1  0  0  0  0
 97 98  1  0  0  0  0
 98 99  1  0  0  0  0
 97100  2  0  0  0  0
100101  1  0  0  0  0
100102  1  0  0  0  0
102103  1  0  0  0  0
 94104  1  0  0  0  0
104105  2  0  0  0  0
105106  1  0  0  0  0
106107  1  0  0  0  0
107108  1  0  0  0  0
108109  1  0  0  0  0
109110  1  0  0  0  0
110111  1  0  0  0  0
109112  2  0  0  0  0
112113  1  0  0  0  0
113114  1  0  0  0  0
112115  1  0  0  0  0
106116  2  0  0  0  0
116117  1  0  0  0  0
105118  1  0  0  0  0
118119  2  0  0  0  0
119120  1  0  0  0  0
119121  1  0  0  0  0
121122  2  0  0  0  0
122123  1  0  0  0  0
123124  2  0  0  0  0
124125  1  0  0  0  0
125126  1  0  0  0  0
126127  1  0  0  0  0
127128  1  0  0  0  0
128129  1  0  0  0  0
127130  2  0  0  0  0
130131  1  0  0  0  0
130132  1  0  0  0  0
132133  1  0  0  0  0
124134  1  0  0  0  0
134135  2  0  0  0  0
135136  1  0  0  0  0
136137  1  0  0  0  0
137138  1  0  0  0  0
138139  1  0  0  0  0
139140  1  0  0  0  0
140141  1  0  0  0  0
139142  2  0  0  0  0
142143  1  0  0  0  0
143144  1  0  0  0  0
142145  1  0  0  0  0
136146  2  0  0  0  0
146147  1  0  0  0  0
135148  1  0  0  0  0
148149  2  0  0  0  0
149150  1  0  0  0  0
149151  1  0  0  0  0
151152  2  0  0  0  0
152153  1  0  0  0  0
153154  2  0  0  0  0
154155  1  0  0  0  0
155156  1  0  0  0  0
156157  1  0  0  0  0
157158  1  0  0  0  0
158159  1  0  0  0  0
157160  2  0  0  0  0
160161  1  0  0  0  0
160162  1  0  0  0  0
162163  1  0  0  0  0
154164  1  0  0  0  0
164165  2  0  0  0  0
165166  1  0  0  0  0
166167  1  0  0  0  0
167168  1  0  0  0  0
168169  1  0  0  0  0
169170  1  0  0  0  0
170171  1  0  0  0  0
169172  2  0  0  0  0
172173  1  0  0  0  0
173174  1  0  0  0  0
172175  1  0  0  0  0
166176  2  0  0  0  0
176177  1  0  0  0  0
165178  1  0  0  0  0
178179  2  0  0  0  0
179180  1  0  0  0  0
 27  1  1  0  0  0  0
 57 31  1  0  0  0  0
 87 61  1  0  0  0  0
117 91  1  0  0  0  0
147121  1  0  0  0  0
177151  1  0  0  0  0
 26  3  1  0  0  0  0
 56 33  1  0  0  0  0
 86 63  1  0  0  0  0
116 93  1  0  0  0  0
146123  1  0  0  0  0
176153  1  0  0  0  0
 12  5  2  0  0  0  0
 30 14  1  0  0  0  0
 42 35  2  0  0  0  0
 60 44  1  0  0  0  0
 72 65  2  0  0  0  0
 90 74  1  0  0  0  0
102 95  2  0  0  0  0
120104  1  0  0  0  0
132125  2  0  0  0  0
150134  1  0  0  0  0
162155  2  0  0  0  0
180164  1  0  0  0  0
 23 17  2  0  0  0  0
 53 47  2  0  0  0  0
 83 77  2  0  0  0  0
113107  2  0  0  0  0
143137  2  0  0  0  0
173167  2  0  0  0  0
  1181  1  0  0  0  0
  2182  1  0  0  0  0
  8183  1  0  0  0  0
  8184  1  0  0  0  0
  9185  1  0  0  0  0
  9186  1  0  0  0  0
  9187  1  0  0  0  0
 20188  1  0  0  0  0
 20189  1  0  0  0  0
 21190  1  0  0  0  0
 21191  1  0  0  0  0
 21192  1  0  0  0  0
 28193  1  0  0  0  0
 32194  1  0  0  0  0
 38195  1  0  0  0  0
 38196  1  0  0  0  0
 39197  1  0  0  0  0
 39198  1  0  0  0  0
 39199  1  0  0  0  0
 50200  1  0  0  0  0
 50201  1  0  0  0  0
 51202  1  0  0  0  0
 51203  1  0  0  0  0
 51204  1  0  0  0  0
 58205  1  0  0  0  0
 62206  1  0  0  0  0
 68207  1  0  0  0  0
 68208  1  0  0  0  0
 69209  1  0  0  0  0
 69210  1  0  0  0  0
 69211  1  0  0  0  0
 80212  1  0  0  0  0
 80213  1  0  0  0  0
 81214  1  0  0  0  0
 81215  1  0  0  0  0
 81216  1  0  0  0  0
 88217  1  0  0  0  0
 92218  1  0  0  0  0
 98219  1  0  0  0  0
 98220  1  0  0  0  0
 99221  1  0  0  0  0
 99222  1  0  0  0  0
 99223  1  0  0  0  0
110224  1  0  0  0  0
110225  1  0  0  0  0
111226  1  0  0  0  0
111227  1  0  0  0  0
111228  1  0  0  0  0
118229  1  0  0  0  0
122230  1  0  0  0  0
128231  1  0  0  0  0
128232  1  0  0  0  0
129233  1  0  0  0  0
129234  1  0  0  0  0
129235  1  0  0  0  0
140236  1  0  0  0  0
140237  1  0  0  0  0
141238  1  0  0  0  0
141239  1  0  0  0  0
141240  1  0  0  0  0
148241  1  0  0  0  0
152242  1  0  0  0  0
158243  1  0  0  0  0
158244  1  0  0  0  0
159245  1  0  0  0  0
159246  1  0  0  0  0
159247  1  0  0  0  0
170248  1  0  0  0  0
170249  1  0  0  0  0
171250  1  0  0  0  0
171251  1  0  0  0  0
171252  1  0  0  0  0
178253  1  0  0  0  0
179254  1  0  0  0  0
M  END
