210

C         -0.36770       -4.59830        7.21340
C          0.44770       -3.58430        7.56910
C          0.08400       -2.34350        6.96990
C          0.70570       -1.09030        7.10860
C          1.96100       -0.92920        7.82310
S          2.16500        0.31510        9.01980
C          3.82270       -0.10250        9.28630
C          4.66780        0.67410       10.23440
C          5.17080        1.96410        9.58210
C          4.18520       -1.13900        8.47950
Cl         5.76070       -1.82050        8.44200
C          3.13170       -1.61590        7.65410
Cl         3.36200       -2.88470        6.52230
C          0.09530       -0.01150        6.48160
C         -1.06050       -0.15310        5.68010
C         -1.66230       -1.41100        5.50870
C         -2.82010       -1.52050        4.63230
S         -2.76310       -2.43510        3.15820
C         -4.31060       -1.85920        2.64770
C         -4.85070       -2.18330        1.29840
C         -4.38840       -1.14100        0.27470
C         -4.84050       -1.02570        3.58810
C         -3.99710       -0.82910        4.71240
Cl        -4.43520        0.16250        6.04650
Cl        -6.36950       -0.26230        3.43700
C         -1.07150       -2.48110        6.16120
S         -1.63700       -4.12630        6.13660
C         -1.44160        1.06260        5.07140
C         -0.64530        2.12170        5.40350
S          0.65860        1.63920        6.47530
C         -0.80800        3.47640        4.97160
C         -1.88030        3.86090        4.21000
C         -2.09790        5.14720        3.72240
C         -1.17100        6.24340        4.02040
C         -0.06580        6.10230        4.78470
S          0.43370        4.61210        5.48310
C         -1.70150        7.36770        3.33090
C         -2.86770        7.00830        2.64890
C         -3.36790        8.08040        1.87440
C         -2.60060        9.19440        1.99750
S         -1.24190        9.00050        3.04930
C         -3.14480        5.61750        2.91420
C         -4.23960        4.83130        2.47970
C         -5.35280        5.30640        1.87380
C         -6.46150        4.53350        1.42930
C         -7.52310        5.13620        0.80720
C         -8.62200        4.46890        0.26470
C         -8.86920        3.04980        0.54320
C         -7.95720        2.25140        1.13900
S         -6.40870        2.78610        1.65420
C        -10.14350        2.78700       -0.02890
C        -10.61630        3.93510       -0.67690
C        -11.85170        3.70990       -1.32480
C        -12.28030        2.43220       -1.15500
S        -11.20590        1.44810       -0.21550
C         -9.64900        4.98130       -0.52700
C         -9.62650        6.27980       -1.15910
C         -8.52080        6.78910       -1.73120
C         -7.33280        5.98290       -1.93950
C         -7.31390        4.72840       -2.45570
C         -6.04510        4.10070       -2.40700
C         -5.73330        2.79110       -2.79710
C         -6.74470        1.89520       -3.33600
S         -8.20000        1.55580       -2.44610
C         -8.78060        0.46320       -3.65470
C        -10.11560       -0.18400       -3.53190
C        -11.20060        0.68830       -4.16780
C         -7.89120        0.38200       -4.68390
Cl        -8.12600       -0.59590       -6.07390
C         -6.73220        1.18470       -4.50310
Cl        -5.49660        1.29350       -5.68510
C         -4.42700        2.37110       -2.59160
C         -3.43900        3.18960       -1.99240
C         -3.74000        4.52300       -1.63910
C         -2.71640        5.38450       -1.07110
S         -1.64610        4.81050        0.17890
C         -0.74510        6.28310        0.21290
C          0.49520        6.41480        1.02540
C          1.72040        6.00570        0.20370
C         -1.26770        7.17110       -0.67820
C         -2.37990        6.67000       -1.40550
Cl        -3.09680        7.57770       -2.66850
Cl        -0.64250        8.74870       -0.92390
C         -5.04690        4.94810       -1.86420
S         -5.72780        6.49800       -1.45090
C         -2.21380        2.48700       -1.84860
C         -2.25490        1.21140       -2.31760
S         -3.81930        0.78540       -2.96670
C         -1.19080        0.25020       -2.32450
C         -0.88580       -0.64790       -3.29870
C          0.24750       -1.44560       -2.99540
C          0.87350       -2.41590       -3.79610
C          0.30390       -2.84610       -5.06040
S          1.27370       -2.97050       -6.49770
C         -0.04830       -3.58120       -7.43320
C          0.14560       -3.98600       -8.85230
C          0.92660       -5.29940       -8.93910
C         -1.16810       -3.67850       -6.66250
Cl        -2.68150       -4.25110       -7.23440
C         -0.97490       -3.25950       -5.31820
Cl        -2.21530       -3.36910       -4.13730
C          2.05010       -2.97040       -3.30640
C          2.56310       -2.68570       -2.01710
C          1.89120       -1.77550       -1.18650
C          2.26040       -1.57940        0.20660
S          3.82520       -1.05500        0.74710
C          3.37090       -1.15280        2.41600
C          4.31340       -0.79470        3.51280
C          3.91470        0.51630        4.19430
C          2.07760       -1.56910        2.52740
C          1.44580       -1.80860        1.28070
Cl        -0.15280       -2.41230        1.15680
Cl         1.26960       -1.82100        4.01920
C          0.77940       -1.13730       -1.72030
S         -0.10920        0.14590       -0.95140
C          3.72130       -3.44870       -1.72520
C          4.09990       -4.26700       -2.74630
S          3.02370       -4.15580       -4.12540
C          5.20480       -5.16620       -2.80170
C          5.60620       -5.89730       -3.87890
C          6.71610       -6.73510       -3.61300
C          7.38590       -7.59010       -4.50360
C          6.90420       -7.76770       -5.86240
S          7.95110       -7.55600       -7.23410
C          6.67430       -7.87530       -8.35680
C          6.89700       -7.79170       -9.82640
C          6.69730       -6.35940      -10.32830
C          5.51090       -8.12820       -7.69280
Cl         4.02200       -8.47920       -8.47080
C          5.63750       -8.07530       -6.27930
Cl         4.33430       -8.44780       -5.22490
C          8.51620       -8.23830       -4.02110
C          8.97470       -8.09890       -2.68970
C          8.28140       -7.27490       -1.78860
C          8.71030       -7.11670       -0.40770
S         10.32430       -6.60440       -0.01100
C         10.00000       -6.62710        1.68870
C         11.02960       -6.21230        2.68090
C         10.96070       -4.70570        2.94270
C          8.71110       -7.00500        1.91840
C          7.97780       -7.28630        0.73420
Cl         6.36380       -7.86150        0.76870
Cl         8.02110       -7.14430        3.48310
C          7.16780       -6.60260       -2.27700
S          6.19910       -5.45850       -1.39120
C         10.12390       -8.90630       -2.44480
C         10.51140       -9.60780       -3.52920
S          9.51430       -9.34730       -4.91830
H         -0.31300       -5.62450        7.52050
H          1.27290       -3.69580        8.24810
H          5.51700        0.05760       10.53420
H          4.08360        0.92180       11.12240
H          5.77470        1.73340        8.70810
H          5.77750        2.52670       10.28630
H          4.33090        2.58080        9.27110
H         -4.50260       -3.17150        0.99420
H         -5.94150       -2.19290        1.34320
H         -4.77960       -1.38240       -0.71010
H         -4.73990       -0.15070        0.55600
H         -3.30200       -1.12060        0.22160
H         -2.27170        1.12670        4.39500
H         -2.60640        3.10360        3.95990
H          0.59990        6.92190        5.00440
H         -4.22970        8.04320        1.23330
H         -2.74520       10.14550        1.52360
H         -4.17850        3.76890        2.67730
H         -5.44730        6.36730        1.69780
H         -7.50000        6.21440        0.72260
H         -8.11570        1.19650        1.29820
H        -12.39560        4.45050       -1.88340
H        -13.18330        1.98710       -1.52510
H        -10.54300        6.85600       -1.15630
H         -8.49920        7.81060       -2.08510
H         -8.19590        4.25220       -2.84220
H        -10.34690       -0.33970       -2.47680
H        -10.08570       -1.15290       -4.03400
H        -12.16920        0.20480       -4.07460
H        -10.98890        0.84480       -5.22250
H        -11.24420        1.65620       -3.67310
H          0.42080        5.77770        1.90710
H          0.60410        7.45220        1.34710
H          2.62090        6.10910        0.80310
H          1.81270        6.63710       -0.67610
H          1.63160        4.97050       -0.11750
H         -1.31550        2.90780       -1.43760
H         -1.43000       -0.70440       -4.22340
H          0.69330       -3.20470       -9.38340
H         -0.83350       -4.10520       -9.31880
H          0.38790       -6.09370       -8.42870
H          1.90290       -5.18870       -8.47290
H          1.06500       -5.58510       -9.97840
H          5.32180       -0.70930        3.10580
H          4.30670       -1.59600        4.25560
H          3.92190        1.33550        3.47940
H          4.61340        0.74400        4.99500
H          2.91820        0.43600        4.62000
H          4.25900       -3.38870       -0.79610
H          5.12720       -5.81920       -4.83760
H          6.18920       -8.45530      -10.32670
H          7.91110       -8.12070      -10.05790
H          7.39970       -5.68770       -9.84070
H          6.85840       -6.31450      -11.40190
H          5.68660       -6.02240      -10.11260
H         10.85450       -6.75200        3.61360
H         12.02060       -6.47210        2.30530
H         11.71450       -4.41910        3.67100
H          9.98140       -4.43570        3.32940
H         11.13560       -4.15390        2.02220
H         10.62410       -8.95260       -1.49520
H         11.33900      -10.28440       -3.61380
