
  xtb     03022208103D
 energy: -360.130883289169 gnorm: 0.000229294591 xtb: 6.4.1 (unknown)
188211  0     0  0            999 V2000
   -1.8981   -0.2617  -17.6733 C   0  0  0  0  0  0  0  0  0  0  0  0
   -0.9918   -0.0353  -16.6969 C   0  0  0  0  0  0  0  0  0  0  0  0
    0.1825    0.7212  -16.8860 C   0  0  0  0  0  0  0  0  0  0  0  0
    0.4766    1.3164  -18.1948 C   0  0  0  0  0  0  0  0  0  0  0  0
   -0.3090    1.2007  -19.2885 C   0  0  0  0  0  0  0  0  0  0  0  0
   -1.7850    0.3250  -19.3009 S   0  0  0  0  0  0  0  0  0  0  0  0
    1.7113    1.9990  -18.0217 C   0  0  0  0  0  0  0  0  0  0  0  0
    2.1619    1.8488  -16.7101 C   0  0  0  0  0  0  0  0  0  0  0  0
    3.3916    2.5149  -16.5065 C   0  0  0  0  0  0  0  0  0  0  0  0
    3.8250    3.1349  -17.6356 C   0  0  0  0  0  0  0  0  0  0  0  0
    2.7719    2.9419  -18.9925 S   0  0  0  0  0  0  0  0  0  0  0  0
    1.2022    1.0444  -15.9855 C   0  0  0  0  0  0  0  0  0  0  0  0
    1.2301    0.6433  -14.6258 C   0  0  0  0  0  0  0  0  0  0  0  0
    2.1617    0.9615  -13.6974 C   0  0  0  0  0  0  0  0  0  0  0  0
    2.0888    0.5444  -12.3411 C   0  0  0  0  0  0  0  0  0  0  0  0
    2.9501    0.8686  -11.3283 C   0  0  0  0  0  0  0  0  0  0  0  0
    2.5836    0.3398  -10.0696 C   0  0  0  0  0  0  0  0  0  0  0  0
    3.2491    0.4762   -8.8380 C   0  0  0  0  0  0  0  0  0  0  0  0
    4.4229    1.3222   -8.7068 C   0  0  0  0  0  0  0  0  0  0  0  0
    5.9037    0.7261   -8.0180 S   0  0  0  0  0  0  0  0  0  0  0  0
    6.7006    2.2484   -8.2185 C   0  0  0  0  0  0  0  0  0  0  0  0
    8.1334    2.4264   -7.8546 C   0  0  0  0  0  0  0  0  0  0  0  0
    9.0422    2.1006   -9.0425 C   0  0  0  0  0  0  0  0  0  0  0  0
    5.8570    3.1542   -8.7893 C   0  0  0  0  0  0  0  0  0  0  0  0
    6.2929    4.7770   -9.1397 Cl  0  0  0  0  0  0  0  0  0  0  0  0
    4.5639    2.6351   -9.0632 C   0  0  0  0  0  0  0  0  0  0  0  0
    3.2961    3.6010   -9.7024 Cl  0  0  0  0  0  0  0  0  0  0  0  0
    2.7250   -0.2172   -7.7553 C   0  0  0  0  0  0  0  0  0  0  0  0
    1.5542   -1.0083   -7.8401 C   0  0  0  0  0  0  0  0  0  0  0  0
    0.8642   -1.1140   -9.0622 C   0  0  0  0  0  0  0  0  0  0  0  0
   -0.3522   -1.9019   -9.1783 C   0  0  0  0  0  0  0  0  0  0  0  0
   -0.3922   -3.5772   -8.7089 S   0  0  0  0  0  0  0  0  0  0  0  0
   -2.0509   -3.7509   -9.1709 C   0  0  0  0  0  0  0  0  0  0  0  0
   -2.7485   -5.0631   -9.0817 C   0  0  0  0  0  0  0  0  0  0  0  0
   -2.5953   -5.8506  -10.3853 C   0  0  0  0  0  0  0  0  0  0  0  0
   -2.5300   -2.5726   -9.6592 C   0  0  0  0  0  0  0  0  0  0  0  0
   -1.5732   -1.5220   -9.6618 C   0  0  0  0  0  0  0  0  0  0  0  0
   -1.9651    0.0739  -10.1484 Cl  0  0  0  0  0  0  0  0  0  0  0  0
   -4.1395   -2.3544  -10.2125 Cl  0  0  0  0  0  0  0  0  0  0  0  0
    1.4006   -0.4398  -10.1486 C   0  0  0  0  0  0  0  0  0  0  0  0
    0.7766   -0.4743  -11.7702 S   0  0  0  0  0  0  0  0  0  0  0  0
    1.1923   -1.5541   -6.5869 C   0  0  0  0  0  0  0  0  0  0  0  0
    2.0408   -1.2054   -5.5750 C   0  0  0  0  0  0  0  0  0  0  0  0
    3.3470   -0.1813   -6.1300 S   0  0  0  0  0  0  0  0  0  0  0  0
    1.9101   -1.5469   -4.1955 C   0  0  0  0  0  0  0  0  0  0  0  0
    1.0137   -2.4187   -3.6469 C   0  0  0  0  0  0  0  0  0  0  0  0
    1.0598   -2.4627   -2.2337 C   0  0  0  0  0  0  0  0  0  0  0  0
    0.2306   -3.1894   -1.3604 C   0  0  0  0  0  0  0  0  0  0  0  0
   -0.7987   -4.0876   -1.8561 C   0  0  0  0  0  0  0  0  0  0  0  0
   -1.9728   -3.5680   -3.0306 S   0  0  0  0  0  0  0  0  0  0  0  0
   -2.7670   -5.1063   -3.0392 C   0  0  0  0  0  0  0  0  0  0  0  0
   -3.9198   -5.3685   -3.9439 C   0  0  0  0  0  0  0  0  0  0  0  0
   -3.4574   -5.5083   -5.3958 C   0  0  0  0  0  0  0  0  0  0  0  0
   -2.1438   -5.9625   -2.1824 C   0  0  0  0  0  0  0  0  0  0  0  0
   -2.6330   -7.5866   -1.9237 Cl  0  0  0  0  0  0  0  0  0  0  0  0
   -1.0337   -5.3882   -1.5048 C   0  0  0  0  0  0  0  0  0  0  0  0
   -0.0527   -6.2916   -0.4291 Cl  0  0  0  0  0  0  0  0  0  0  0  0
    0.4091   -2.9730    0.0001 C   0  0  0  0  0  0  0  0  0  0  0  0
    1.4059   -2.1095    0.5204 C   0  0  0  0  0  0  0  0  0  0  0  0
    2.2922   -1.4506   -0.3510 C   0  0  0  0  0  0  0  0  0  0  0  0
    3.3759   -0.6170    0.1418 C   0  0  0  0  0  0  0  0  0  0  0  0
    3.1217    0.6503    1.3075 S   0  0  0  0  0  0  0  0  0  0  0  0
    4.7939    1.0944    1.3146 C   0  0  0  0  0  0  0  0  0  0  0  0
    5.3170    2.1500    2.2245 C   0  0  0  0  0  0  0  0  0  0  0  0
    5.7871    1.5357    3.5458 C   0  0  0  0  0  0  0  0  0  0  0  0
    5.4967    0.2945    0.4647 C   0  0  0  0  0  0  0  0  0  0  0  0
    4.6988   -0.6714   -0.2046 C   0  0  0  0  0  0  0  0  0  0  0  0
    5.3773   -1.8396   -1.2583 Cl  0  0  0  0  0  0  0  0  0  0  0  0
    7.1881    0.4267    0.2116 Cl  0  0  0  0  0  0  0  0  0  0  0  0
    2.0740   -1.6201   -1.7126 C   0  0  0  0  0  0  0  0  0  0  0  0
    2.9086   -0.7776   -2.9847 S   0  0  0  0  0  0  0  0  0  0  0  0
    1.3267   -2.0050    1.9288 C   0  0  0  0  0  0  0  0  0  0  0  0
    0.2967   -2.7170    2.4721 C   0  0  0  0  0  0  0  0  0  0  0  0
   -0.5936   -3.6171    1.2674 S   0  0  0  0  0  0  0  0  0  0  0  0
   -0.1187   -2.7016    3.8386 C   0  0  0  0  0  0  0  0  0  0  0  0
    0.2062   -1.7502    4.7625 C   0  0  0  0  0  0  0  0  0  0  0  0
   -0.4296   -1.9358    6.0113 C   0  0  0  0  0  0  0  0  0  0  0  0
   -0.3803   -1.0969    7.1407 C   0  0  0  0  0  0  0  0  0  0  0  0
    0.3737    0.1466    7.1210 C   0  0  0  0  0  0  0  0  0  0  0  0
    0.1439    1.3021    5.8383 S   0  0  0  0  0  0  0  0  0  0  0  0
    1.2938    2.4057    6.5139 C   0  0  0  0  0  0  0  0  0  0  0  0
    1.6416    3.6717    5.8110 C   0  0  0  0  0  0  0  0  0  0  0  0
    2.5701    3.4021    4.6250 C   0  0  0  0  0  0  0  0  0  0  0  0
    1.8168    1.8967    7.6647 C   0  0  0  0  0  0  0  0  0  0  0  0
    2.9937    2.7000    8.6226 Cl  0  0  0  0  0  0  0  0  0  0  0  0
    1.2936    0.6211    8.0146 C   0  0  0  0  0  0  0  0  0  0  0  0
    1.8583   -0.2490    9.3787 Cl  0  0  0  0  0  0  0  0  0  0  0  0
   -1.1274   -1.4890    8.2417 C   0  0  0  0  0  0  0  0  0  0  0  0
   -1.9006   -2.6773    8.2742 C   0  0  0  0  0  0  0  0  0  0  0  0
   -1.9444   -3.5156    7.1462 C   0  0  0  0  0  0  0  0  0  0  0  0
   -2.7439   -4.7290    7.1325 C   0  0  0  0  0  0  0  0  0  0  0  0
   -4.4377   -4.7014    7.5291 S   0  0  0  0  0  0  0  0  0  0  0  0
   -4.6139   -6.3999    7.2460 C   0  0  0  0  0  0  0  0  0  0  0  0
   -5.9157   -7.0858    7.4712 C   0  0  0  0  0  0  0  0  0  0  0  0
   -6.1476   -7.3425    8.9620 C   0  0  0  0  0  0  0  0  0  0  0  0
   -3.4199   -6.9435    6.8785 C   0  0  0  0  0  0  0  0  0  0  0  0
   -2.3597   -5.9997    6.8054 C   0  0  0  0  0  0  0  0  0  0  0  0
   -0.7514   -6.4548    6.4282 Cl  0  0  0  0  0  0  0  0  0  0  0  0
   -3.1921   -8.6074    6.5267 Cl  0  0  0  0  0  0  0  0  0  0  0  0
   -1.2167   -3.1138    6.0327 C   0  0  0  0  0  0  0  0  0  0  0  0
   -1.2012   -3.9106    4.4857 S   0  0  0  0  0  0  0  0  0  0  0  0
   -2.5632   -2.8448    9.5134 C   0  0  0  0  0  0  0  0  0  0  0  0
   -2.3535   -1.8205   10.3928 C   0  0  0  0  0  0  0  0  0  0  0  0
   -1.2976   -0.5893    9.7176 S   0  0  0  0  0  0  0  0  0  0  0  0
   -2.8569   -1.6626   11.7190 C   0  0  0  0  0  0  0  0  0  0  0  0
   -2.5465   -0.5712   12.4858 C   0  0  0  0  0  0  0  0  0  0  0  0
   -2.9842   -0.3505   13.7897 C   0  0  0  0  0  0  0  0  0  0  0  0
   -3.8422   -1.3231   14.4732 C   0  0  0  0  0  0  0  0  0  0  0  0
   -4.2803   -2.4686   13.9086 C   0  0  0  0  0  0  0  0  0  0  0  0
   -3.8935   -2.9612   12.3065 S   0  0  0  0  0  0  0  0  0  0  0  0
   -4.0603   -0.7730   15.7662 C   0  0  0  0  0  0  0  0  0  0  0  0
   -3.3943    0.4499   15.8890 C   0  0  0  0  0  0  0  0  0  0  0  0
   -3.5987    1.0280   17.1623 C   0  0  0  0  0  0  0  0  0  0  0  0
   -4.3878    0.2508   17.9491 C   0  0  0  0  0  0  0  0  0  0  0  0
   -4.9196   -1.2096   17.1887 S   0  0  0  0  0  0  0  0  0  0  0  0
   -2.7132    0.7294   14.6493 C   0  0  0  0  0  0  0  0  0  0  0  0
   -1.9237    1.8393   14.2728 C   0  0  0  0  0  0  0  0  0  0  0  0
   -1.5498    2.8979   15.0351 C   0  0  0  0  0  0  0  0  0  0  0  0
   -0.7590    3.9883   14.5640 C   0  0  0  0  0  0  0  0  0  0  0  0
   -0.3963    4.1959   13.2564 C   0  0  0  0  0  0  0  0  0  0  0  0
    0.3887    5.2517   12.7908 C   0  0  0  0  0  0  0  0  0  0  0  0
    0.9096    6.2753   13.7097 C   0  0  0  0  0  0  0  0  0  0  0  0
    0.6659    6.2912   15.0375 C   0  0  0  0  0  0  0  0  0  0  0  0
   -0.2750    5.1045   15.8432 S   0  0  0  0  0  0  0  0  0  0  0  0
    1.6461    7.1663   12.8872 C   0  0  0  0  0  0  0  0  0  0  0  0
    1.5846    6.7463   11.5539 C   0  0  0  0  0  0  0  0  0  0  0  0
    2.3350    7.5967   10.7081 C   0  0  0  0  0  0  0  0  0  0  0  0
    2.9165    8.6119   11.3969 C   0  0  0  0  0  0  0  0  0  0  0  0
    2.5905    8.5879   13.0976 S   0  0  0  0  0  0  0  0  0  0  0  0
    0.7890    5.5513   11.4826 C   0  0  0  0  0  0  0  0  0  0  0  0
    0.4262    4.7926   10.3204 C   0  0  0  0  0  0  0  0  0  0  0  0
    0.5482    5.1794    9.0504 C   0  0  0  0  0  0  0  0  0  0  0  0
   -2.7905   -0.8420  -17.5108 H   0  0  0  0  0  0  0  0  0  0  0  0
   -1.1865   -0.4598  -15.7219 H   0  0  0  0  0  0  0  0  0  0  0  0
   -0.0584    1.6556  -20.2336 H   0  0  0  0  0  0  0  0  0  0  0  0
    3.9445    2.5471  -15.5860 H   0  0  0  0  0  0  0  0  0  0  0  0
    4.7212    3.7101  -17.7641 H   0  0  0  0  0  0  0  0  0  0  0  0
    0.4020    0.0243  -14.3012 H   0  0  0  0  0  0  0  0  0  0  0  0
    3.0080    1.5822  -13.9469 H   0  0  0  0  0  0  0  0  0  0  0  0
    3.8292    1.4663  -11.4859 H   0  0  0  0  0  0  0  0  0  0  0  0
    8.2928    3.4620   -7.5478 H   0  0  0  0  0  0  0  0  0  0  0  0
    8.3772    1.7707   -7.0175 H   0  0  0  0  0  0  0  0  0  0  0  0
    8.8927    1.0715   -9.3605 H   0  0  0  0  0  0  0  0  0  0  0  0
   10.0839    2.2324   -8.7631 H   0  0  0  0  0  0  0  0  0  0  0  0
    8.8195    2.7591   -9.8783 H   0  0  0  0  0  0  0  0  0  0  0  0
   -3.8079   -4.8851   -8.8870 H   0  0  0  0  0  0  0  0  0  0  0  0
   -2.3312   -5.6404   -8.2558 H   0  0  0  0  0  0  0  0  0  0  0  0
   -3.1102   -6.8042  -10.3078 H   0  0  0  0  0  0  0  0  0  0  0  0
   -3.0194   -5.2912  -11.2151 H   0  0  0  0  0  0  0  0  0  0  0  0
   -1.5442   -6.0365  -10.5924 H   0  0  0  0  0  0  0  0  0  0  0  0
    0.3191   -2.1605   -6.4362 H   0  0  0  0  0  0  0  0  0  0  0  0
    0.3350   -3.0049   -4.2364 H   0  0  0  0  0  0  0  0  0  0  0  0
   -4.6349   -4.5465   -3.8713 H   0  0  0  0  0  0  0  0  0  0  0  0
   -4.4109   -6.2879   -3.6217 H   0  0  0  0  0  0  0  0  0  0  0  0
   -2.7491   -6.3283   -5.4869 H   0  0  0  0  0  0  0  0  0  0  0  0
   -2.9757   -4.5913   -5.7276 H   0  0  0  0  0  0  0  0  0  0  0  0
   -4.3089   -5.7089   -6.0404 H   0  0  0  0  0  0  0  0  0  0  0  0
    4.5343    2.8842    2.4184 H   0  0  0  0  0  0  0  0  0  0  0  0
    6.1572    2.6491    1.7381 H   0  0  0  0  0  0  0  0  0  0  0  0
    6.5852    0.8207    3.3643 H   0  0  0  0  0  0  0  0  0  0  0  0
    6.1605    2.3120    4.2082 H   0  0  0  0  0  0  0  0  0  0  0  0
    4.9655    1.0193    4.0369 H   0  0  0  0  0  0  0  0  0  0  0  0
    2.0024   -1.4162    2.5194 H   0  0  0  0  0  0  0  0  0  0  0  0
    0.8574   -0.9258    4.5423 H   0  0  0  0  0  0  0  0  0  0  0  0
    0.7293    4.1527    5.4524 H   0  0  0  0  0  0  0  0  0  0  0  0
    2.1363    4.3381    6.5193 H   0  0  0  0  0  0  0  0  0  0  0  0
    2.8083    4.3357    4.1221 H   0  0  0  0  0  0  0  0  0  0  0  0
    2.0929    2.7321    3.9128 H   0  0  0  0  0  0  0  0  0  0  0  0
    3.4933    2.9457    4.9718 H   0  0  0  0  0  0  0  0  0  0  0  0
   -6.7256   -6.4671    7.0801 H   0  0  0  0  0  0  0  0  0  0  0  0
   -5.9074   -8.0341    6.9312 H   0  0  0  0  0  0  0  0  0  0  0  0
   -5.3533   -7.9659    9.3649 H   0  0  0  0  0  0  0  0  0  0  0  0
   -7.0973   -7.8492    9.1105 H   0  0  0  0  0  0  0  0  0  0  0  0
   -6.1634   -6.4022    9.5082 H   0  0  0  0  0  0  0  0  0  0  0  0
   -3.1751   -3.6960    9.7502 H   0  0  0  0  0  0  0  0  0  0  0  0
   -1.9012    0.1640   12.0232 H   0  0  0  0  0  0  0  0  0  0  0  0
   -4.9139   -3.1697   14.4285 H   0  0  0  0  0  0  0  0  0  0  0  0
   -3.1954    1.9668   17.4943 H   0  0  0  0  0  0  0  0  0  0  0  0
   -4.7031    0.4438   18.9560 H   0  0  0  0  0  0  0  0  0  0  0  0
   -1.5823    1.8102   13.2478 H   0  0  0  0  0  0  0  0  0  0  0  0
   -1.8334    2.9387   16.0761 H   0  0  0  0  0  0  0  0  0  0  0  0
   -0.7555    3.4863   12.5258 H   0  0  0  0  0  0  0  0  0  0  0  0
    1.0463    7.0601   15.6914 H   0  0  0  0  0  0  0  0  0  0  0  0
    2.4593    7.4696    9.6484 H   0  0  0  0  0  0  0  0  0  0  0  0
    3.5362    9.3975   11.0102 H   0  0  0  0  0  0  0  0  0  0  0  0
   -0.0110    3.8219   10.5204 H   0  0  0  0  0  0  0  0  0  0  0  0
    0.9467    6.1392    8.7755 H   0  0  0  0  0  0  0  0  0  0  0  0
    0.2262    4.5436    8.2442 H   0  0  0  0  0  0  0  0  0  0  0  0
  1  2  2  0  0  0  0
  2  3  1  0  0  0  0
  3  4  1  0  0  0  0
  4  5  2  0  0  0  0
  5  6  1  0  0  0  0
  4  7  1  0  0  0  0
  7  8  2  0  0  0  0
  8  9  1  0  0  0  0
  9 10  2  0  0  0  0
 10 11  1  0  0  0  0
  8 12  1  0  0  0  0
 12 13  1  0  0  0  0
 13 14  2  0  0  0  0
 14 15  1  0  0  0  0
 15 16  2  0  0  0  0
 16 17  1  0  0  0  0
 17 18  2  0  0  0  0
 18 19  1  0  0  0  0
 19 20  1  0  0  0  0
 20 21  1  0  0  0  0
 21 22  1  0  0  0  0
 22 23  1  0  0  0  0
 21 24  2  0  0  0  0
 24 25  1  0  0  0  0
 24 26  1  0  0  0  0
 26 27  1  0  0  0  0
 18 28  1  0  0  0  0
 28 29  2  0  0  0  0
 29 30  1  0  0  0  0
 30 31  1  0  0  0  0
 31 32  1  0  0  0  0
 32 33  1  0  0  0  0
 33 34  1  0  0  0  0
 34 35  1  0  0  0  0
 33 36  2  0  0  0  0
 36 37  1  0  0  0  0
 37 38  1  0  0  0  0
 36 39  1  0  0  0  0
 30 40  2  0  0  0  0
 40 41  1  0  0  0  0
 29 42  1  0  0  0  0
 42 43  2  0  0  0  0
 43 44  1  0  0  0  0
 43 45  1  0  0  0  0
 45 46  2  0  0  0  0
 46 47  1  0  0  0  0
 47 48  2  0  0  0  0
 48 49  1  0  0  0  0
 49 50  1  0  0  0  0
 50 51  1  0  0  0  0
 51 52  1  0  0  0  0
 52 53  1  0  0  0  0
 51 54  2  0  0  0  0
 54 55  1  0  0  0  0
 54 56  1  0  0  0  0
 56 57  1  0  0  0  0
 48 58  1  0  0  0  0
 58 59  2  0  0  0  0
 59 60  1  0  0  0  0
 60 61  1  0  0  0  0
 61 62  1  0  0  0  0
 62 63  1  0  0  0  0
 63 64  1  0  0  0  0
 64 65  1  0  0  0  0
 63 66  2  0  0  0  0
 66 67  1  0  0  0  0
 67 68  1  0  0  0  0
 66 69  1  0  0  0  0
 60 70  2  0  0  0  0
 70 71  1  0  0  0  0
 59 72  1  0  0  0  0
 72 73  2  0  0  0  0
 73 74  1  0  0  0  0
 73 75  1  0  0  0  0
 75 76  2  0  0  0  0
 76 77  1  0  0  0  0
 77 78  2  0  0  0  0
 78 79  1  0  0  0  0
 79 80  1  0  0  0  0
 80 81  1  0  0  0  0
 81 82  1  0  0  0  0
 82 83  1  0  0  0  0
 81 84  2  0  0  0  0
 84 85  1  0  0  0  0
 84 86  1  0  0  0  0
 86 87  1  0  0  0  0
 78 88  1  0  0  0  0
 88 89  2  0  0  0  0
 89 90  1  0  0  0  0
 90 91  1  0  0  0  0
 91 92  1  0  0  0  0
 92 93  1  0  0  0  0
 93 94  1  0  0  0  0
 94 95  1  0  0  0  0
 93 96  2  0  0  0  0
 96 97  1  0  0  0  0
 97 98  1  0  0  0  0
 96 99  1  0  0  0  0
 90100  2  0  0  0  0
100101  1  0  0  0  0
 89102  1  0  0  0  0
102103  2  0  0  0  0
103104  1  0  0  0  0
103105  1  0  0  0  0
105106  2  0  0  0  0
106107  1  0  0  0  0
107108  1  0  0  0  0
108109  2  0  0  0  0
109110  1  0  0  0  0
108111  1  0  0  0  0
111112  2  0  0  0  0
112113  1  0  0  0  0
113114  2  0  0  0  0
114115  1  0  0  0  0
112116  1  0  0  0  0
116117  1  0  0  0  0
117118  2  0  0  0  0
118119  1  0  0  0  0
119120  2  0  0  0  0
120121  1  0  0  0  0
121122  1  0  0  0  0
122123  2  0  0  0  0
123124  1  0  0  0  0
122125  1  0  0  0  0
125126  2  0  0  0  0
126127  1  0  0  0  0
127128  2  0  0  0  0
128129  1  0  0  0  0
126130  1  0  0  0  0
130131  1  0  0  0  0
131132  2  0  0  0  0
  6  1  1  0  0  0  0
 11  7  1  0  0  0  0
 41 15  1  0  0  0  0
 71 45  1  0  0  0  0
101 75  1  0  0  0  0
110105  1  0  0  0  0
115111  1  0  0  0  0
124119  1  0  0  0  0
129125  1  0  0  0  0
 12  3  2  0  0  0  0
 40 17  1  0  0  0  0
 70 47  1  0  0  0  0
100 77  1  0  0  0  0
116107  2  0  0  0  0
130121  2  0  0  0  0
 26 19  2  0  0  0  0
 44 28  1  0  0  0  0
 56 49  2  0  0  0  0
 74 58  1  0  0  0  0
 86 79  2  0  0  0  0
104 88  1  0  0  0  0
 37 31  2  0  0  0  0
 67 61  2  0  0  0  0
 97 91  2  0  0  0  0
  1133  1  0  0  0  0
  2134  1  0  0  0  0
  5135  1  0  0  0  0
  9136  1  0  0  0  0
 10137  1  0  0  0  0
 13138  1  0  0  0  0
 14139  1  0  0  0  0
 16140  1  0  0  0  0
 22141  1  0  0  0  0
 22142  1  0  0  0  0
 23143  1  0  0  0  0
 23144  1  0  0  0  0
 23145  1  0  0  0  0
 34146  1  0  0  0  0
 34147  1  0  0  0  0
 35148  1  0  0  0  0
 35149  1  0  0  0  0
 35150  1  0  0  0  0
 42151  1  0  0  0  0
 46152  1  0  0  0  0
 52153  1  0  0  0  0
 52154  1  0  0  0  0
 53155  1  0  0  0  0
 53156  1  0  0  0  0
 53157  1  0  0  0  0
 64158  1  0  0  0  0
 64159  1  0  0  0  0
 65160  1  0  0  0  0
 65161  1  0  0  0  0
 65162  1  0  0  0  0
 72163  1  0  0  0  0
 76164  1  0  0  0  0
 82165  1  0  0  0  0
 82166  1  0  0  0  0
 83167  1  0  0  0  0
 83168  1  0  0  0  0
 83169  1  0  0  0  0
 94170  1  0  0  0  0
 94171  1  0  0  0  0
 95172  1  0  0  0  0
 95173  1  0  0  0  0
 95174  1  0  0  0  0
102175  1  0  0  0  0
106176  1  0  0  0  0
109177  1  0  0  0  0
113178  1  0  0  0  0
114179  1  0  0  0  0
117180  1  0  0  0  0
118181  1  0  0  0  0
120182  1  0  0  0  0
123183  1  0  0  0  0
127184  1  0  0  0  0
128185  1  0  0  0  0
131186  1  0  0  0  0
132187  1  0  0  0  0
132188  1  0  0  0  0
M  END
