97

C         13.02630        6.68110        6.19750
S         11.59180        6.32470        5.30110
C         11.83380        4.62000        5.55210
C         12.99380        4.37860        6.30610
C         13.65930        5.58150        6.66470
C         13.31810        3.04030        6.59810
C         12.48950        2.01570        6.11330
S         13.07790        0.46260        6.63540
C         14.39750        1.19820        7.47230
C         14.40680        2.54320        7.36860
C         11.32900        2.27230        5.35200
C         11.01460        3.60000        5.08940
C         10.46710        1.21960        4.86120
S          8.79750        1.59360        4.46720
C          8.49620       -0.05350        4.00620
C          9.65300       -0.83770        4.15190
C         10.75410       -0.09530        4.63490
C          9.56700       -2.20040        3.80650
C          8.34110       -2.71570        3.35810
S          8.50460       -4.40410        2.96440
C         10.17450       -4.38850        3.40490
C         10.59820       -3.18030        3.83020
C          7.18270       -1.91840        3.22310
C          7.29400       -0.56970        3.54960
C          5.92220       -2.44060        2.75570
C          5.46390       -3.74060        2.74970
C          4.18070       -3.85330        2.21710
C          3.65300       -2.63270        1.80850
S          4.73340       -1.33160        2.08960
C          2.35630       -2.84430        1.28000
C          2.05610       -4.20370        1.35220
C          3.20000       -4.95890        1.96200
C          0.79800       -4.50790        0.84410
C          0.13300       -3.38590        0.38150
S          1.08500       -1.92850        0.58280
C         -1.16190       -3.33070       -0.20590
S         -1.82860       -1.80820       -0.75970
C         -3.28480       -2.59890       -1.28730
C         -3.23270       -3.98210       -1.03280
C         -2.02470       -4.37490       -0.42230
C         -4.34490       -4.75880       -1.41660
C         -5.44850       -4.12670       -2.00990
S         -6.66660       -5.30020       -2.42300
C         -5.69740       -6.58740       -1.80230
C         -4.51600       -6.16660       -1.30440
C         -5.48880       -2.73690       -2.25410
C         -4.37460       -1.98860       -1.88600
C         -6.61840       -2.08460       -2.87520
S         -6.39070       -0.52500       -3.64910
C         -8.06680       -0.45880       -4.09870
C         -8.75450       -1.59970       -3.65230
C         -7.91490       -2.50370       -2.96380
C        -10.12840       -1.69370       -3.94690
C        -10.74920       -0.64930       -4.65000
S        -12.42940       -1.01810       -4.91900
C        -12.27160       -2.53080       -4.10050
C        -11.02340       -2.75630       -3.64050
C        -10.04710        0.49430       -5.08820
C         -8.68790        0.56180       -4.80170
C        -10.67810        1.56870       -5.82230
S         -9.68060        2.64450       -6.78700
C        -11.07080        3.55620       -7.28620
C        -12.24510        3.03710       -6.71610
C        -11.99570        1.91330       -5.89190
C        -13.46640        3.66970       -7.02100
C        -13.43850        4.78320       -7.87550
S        -15.03900        5.41800       -8.12710
C        -15.70980        4.19870       -7.10060
C        -14.78510        3.35560       -6.59110
C        -12.25940        5.28230       -8.42960
C        -11.06670        4.66400       -8.13270
H         13.31200        7.70740        6.32130
H         14.56580        5.61550        7.24130
H         15.09210        0.56650        7.99040
H         15.14970        3.17440        7.82110
H         10.13270        3.83760        4.51500
H         11.72710       -0.52570        4.77870
H         10.73540       -5.29850        3.32020
H         11.60340       -2.97370        4.14920
H          6.43410        0.07560        3.45680
H          6.02350       -4.56900        3.14160
H          2.90910       -5.46600        2.88430
H          3.60210       -5.71120        1.28050
H          0.37690       -5.49560        0.80600
H         -1.79910       -5.38930       -0.15060
H         -6.08250       -7.58720       -1.84710
H         -3.77980       -6.82090       -0.87440
H         -4.36500       -0.92400       -2.06140
H         -8.27840       -3.41400       -2.52600
H        -13.13660       -3.15840       -4.01200
H        -10.72980       -3.64190       -3.10720
H         -8.11560        1.41830       -5.12300
H        -12.77460        1.40790       -5.35280
H        -16.77040        4.19010       -6.94150
H        -15.01880        2.53630       -5.93560
H        -12.29080        6.14120       -9.08090
H        -10.13760        5.02470       -8.54460
