
  xtb     03012207583D
 energy: -394.594986083092 gnorm: 0.001086539840 xtb: 6.4.1 (unknown)
200225  0     0  0            999 V2000
    9.9690   -2.9631   19.3218 C   0  0  0  0  0  0  0  0  0  0  0  0
   10.3892   -3.2746   18.0792 C   0  0  0  0  0  0  0  0  0  0  0  0
    9.7346   -2.5141   17.0660 C   0  0  0  0  0  0  0  0  0  0  0  0
    9.8892   -2.6065   15.6736 C   0  0  0  0  0  0  0  0  0  0  0  0
   10.8205   -3.5435   15.0643 C   0  0  0  0  0  0  0  0  0  0  0  0
   12.5109   -3.5414   15.4709 S   0  0  0  0  0  0  0  0  0  0  0  0
   12.8623   -4.8160   14.3543 C   0  0  0  0  0  0  0  0  0  0  0  0
   14.2543   -5.3003   14.1449 C   0  0  0  0  0  0  0  0  0  0  0  0
   14.9684   -4.4583   13.0847 C   0  0  0  0  0  0  0  0  0  0  0  0
   11.7270   -5.2057   13.7092 C   0  0  0  0  0  0  0  0  0  0  0  0
   11.6778   -6.4499   12.5290 Cl  0  0  0  0  0  0  0  0  0  0  0  0
   10.5672   -4.4892   14.1102 C   0  0  0  0  0  0  0  0  0  0  0  0
    9.0064   -4.8509   13.5018 Cl  0  0  0  0  0  0  0  0  0  0  0  0
    9.1130   -1.7581   14.8938 C   0  0  0  0  0  0  0  0  0  0  0  0
    8.1861   -0.8442   15.4511 C   0  0  0  0  0  0  0  0  0  0  0  0
    7.9898   -0.7898   16.8413 C   0  0  0  0  0  0  0  0  0  0  0  0
    6.9805    0.0903   17.4036 C   0  0  0  0  0  0  0  0  0  0  0  0
    7.3483    1.2040   18.6872 S   0  0  0  0  0  0  0  0  0  0  0  0
    5.7418    1.8464   18.6975 C   0  0  0  0  0  0  0  0  0  0  0  0
    5.3618    2.9742   19.5916 C   0  0  0  0  0  0  0  0  0  0  0  0
    5.6933    4.3195   18.9404 C   0  0  0  0  0  0  0  0  0  0  0  0
    4.9777    1.2246   17.7555 C   0  0  0  0  0  0  0  0  0  0  0  0
    5.6711    0.2233   17.0262 C   0  0  0  0  0  0  0  0  0  0  0  0
    4.8878   -0.7606   15.8542 Cl  0  0  0  0  0  0  0  0  0  0  0  0
    3.3291    1.5992   17.4595 Cl  0  0  0  0  0  0  0  0  0  0  0  0
    8.7921   -1.6147   17.6195 C   0  0  0  0  0  0  0  0  0  0  0  0
    8.7495   -1.7363   19.3557 S   0  0  0  0  0  0  0  0  0  0  0  0
    7.5652   -0.0519   14.4577 C   0  0  0  0  0  0  0  0  0  0  0  0
    7.9570   -0.3623   13.1885 C   0  0  0  0  0  0  0  0  0  0  0  0
    9.1677   -1.6230   13.1588 S   0  0  0  0  0  0  0  0  0  0  0  0
    7.4053    0.1967   11.9954 C   0  0  0  0  0  0  0  0  0  0  0  0
    6.2144    0.8590   11.9217 C   0  0  0  0  0  0  0  0  0  0  0  0
    5.8775    1.2761   10.6142 C   0  0  0  0  0  0  0  0  0  0  0  0
    4.6956    1.9140   10.1921 C   0  0  0  0  0  0  0  0  0  0  0  0
    3.6579    2.2573   11.1509 C   0  0  0  0  0  0  0  0  0  0  0  0
    4.0229    3.1718   12.5866 S   0  0  0  0  0  0  0  0  0  0  0  0
    2.3873    3.1005   13.1502 C   0  0  0  0  0  0  0  0  0  0  0  0
    1.9865    3.7548   14.4256 C   0  0  0  0  0  0  0  0  0  0  0  0
    1.9775    5.2783   14.2910 C   0  0  0  0  0  0  0  0  0  0  0  0
    1.6145    2.4173   12.2606 C   0  0  0  0  0  0  0  0  0  0  0  0
   -0.0651    2.1331   12.4683 Cl  0  0  0  0  0  0  0  0  0  0  0  0
    2.3298    1.9339   11.1306 C   0  0  0  0  0  0  0  0  0  0  0  0
    1.5892    0.9604    9.9308 Cl  0  0  0  0  0  0  0  0  0  0  0  0
    4.5730    2.1685    8.8343 C   0  0  0  0  0  0  0  0  0  0  0  0
    5.5674    1.8047    7.8895 C   0  0  0  0  0  0  0  0  0  0  0  0
    6.7290    1.1337    8.3102 C   0  0  0  0  0  0  0  0  0  0  0  0
    7.7263    0.6813    7.3558 C   0  0  0  0  0  0  0  0  0  0  0  0
    9.4080    1.0753    7.5486 S   0  0  0  0  0  0  0  0  0  0  0  0
    9.8543    0.2103    6.1191 C   0  0  0  0  0  0  0  0  0  0  0  0
   11.2793    0.0840    5.7069 C   0  0  0  0  0  0  0  0  0  0  0  0
   11.9090   -1.1636    6.3318 C   0  0  0  0  0  0  0  0  0  0  0  0
    8.7559   -0.3563    5.5445 C   0  0  0  0  0  0  0  0  0  0  0  0
    7.5465   -0.0881    6.2392 C   0  0  0  0  0  0  0  0  0  0  0  0
    6.0385   -0.7496    5.7545 Cl  0  0  0  0  0  0  0  0  0  0  0  0
    8.8077   -1.3030    4.1143 Cl  0  0  0  0  0  0  0  0  0  0  0  0
    6.8638    0.8996    9.6719 C   0  0  0  0  0  0  0  0  0  0  0  0
    8.1793    0.0493   10.4346 S   0  0  0  0  0  0  0  0  0  0  0  0
    5.2190    2.1989    6.5774 C   0  0  0  0  0  0  0  0  0  0  0  0
    4.0008    2.8108    6.4934 C   0  0  0  0  0  0  0  0  0  0  0  0
    3.2408    2.9814    8.0647 S   0  0  0  0  0  0  0  0  0  0  0  0
    3.3080    3.2038    5.3182 C   0  0  0  0  0  0  0  0  0  0  0  0
    2.0369    3.7381    5.2229 C   0  0  0  0  0  0  0  0  0  0  0  0
    1.6197    3.8724    3.9033 C   0  0  0  0  0  0  0  0  0  0  0  0
    2.5803    3.4447    2.9863 C   0  0  0  0  0  0  0  0  0  0  0  0
    4.0143    2.8860    3.7437 S   0  0  0  0  0  0  0  0  0  0  0  0
    2.0394    3.5233    1.6833 C   0  0  0  0  0  0  0  0  0  0  0  0
    0.7298    3.9958    1.7620 C   0  0  0  0  0  0  0  0  0  0  0  0
    0.3701    4.2927    3.1876 C   0  0  0  0  0  0  0  0  0  0  0  0
    0.0840    4.0070    0.5308 C   0  0  0  0  0  0  0  0  0  0  0  0
    0.8933    3.5439   -0.4913 C   0  0  0  0  0  0  0  0  0  0  0  0
    2.4971    3.1145    0.0797 S   0  0  0  0  0  0  0  0  0  0  0  0
    0.5311    3.2960   -1.8388 C   0  0  0  0  0  0  0  0  0  0  0  0
    1.3333    2.8247   -2.8626 C   0  0  0  0  0  0  0  0  0  0  0  0
    0.6106    2.5629   -4.0215 C   0  0  0  0  0  0  0  0  0  0  0  0
   -0.7500    2.8353   -3.8856 C   0  0  0  0  0  0  0  0  0  0  0  0
   -1.1475    3.4462   -2.3313 S   0  0  0  0  0  0  0  0  0  0  0  0
   -1.4204    2.4429   -5.0657 C   0  0  0  0  0  0  0  0  0  0  0  0
   -0.4886    1.9219   -5.9646 C   0  0  0  0  0  0  0  0  0  0  0  0
    0.8921    1.9941   -5.3810 C   0  0  0  0  0  0  0  0  0  0  0  0
   -1.0752    1.4246   -7.1222 C   0  0  0  0  0  0  0  0  0  0  0  0
   -2.4532    1.5570   -7.1097 C   0  0  0  0  0  0  0  0  0  0  0  0
   -3.0282    2.3382   -5.6508 S   0  0  0  0  0  0  0  0  0  0  0  0
   -3.3796    1.0654   -8.0700 C   0  0  0  0  0  0  0  0  0  0  0  0
   -3.1130    0.3046   -9.1744 C   0  0  0  0  0  0  0  0  0  0  0  0
   -4.2725   -0.1130   -9.8685 C   0  0  0  0  0  0  0  0  0  0  0  0
   -4.3501   -0.9338  -11.0079 C   0  0  0  0  0  0  0  0  0  0  0  0
   -3.1494   -1.4079  -11.6765 C   0  0  0  0  0  0  0  0  0  0  0  0
   -1.9307   -0.2927  -12.2238 S   0  0  0  0  0  0  0  0  0  0  0  0
   -0.9454   -1.5605  -12.8695 C   0  0  0  0  0  0  0  0  0  0  0  0
    0.3271   -1.2653  -13.5839 C   0  0  0  0  0  0  0  0  0  0  0  0
    0.0713   -1.0149  -15.0720 C   0  0  0  0  0  0  0  0  0  0  0  0
   -1.5424   -2.7688  -12.6711 C   0  0  0  0  0  0  0  0  0  0  0  0
   -0.8633   -4.2625  -13.1723 Cl  0  0  0  0  0  0  0  0  0  0  0  0
   -2.7883   -2.6883  -11.9915 C   0  0  0  0  0  0  0  0  0  0  0  0
   -3.6786   -4.0829  -11.5469 Cl  0  0  0  0  0  0  0  0  0  0  0  0
   -5.6201   -1.2686  -11.4586 C   0  0  0  0  0  0  0  0  0  0  0  0
   -6.8064   -0.8078  -10.8338 C   0  0  0  0  0  0  0  0  0  0  0  0
   -6.7283    0.0478   -9.7200 C   0  0  0  0  0  0  0  0  0  0  0  0
   -7.9231    0.5900   -9.0951 C   0  0  0  0  0  0  0  0  0  0  0  0
   -8.1727    0.4790   -7.3779 S   0  0  0  0  0  0  0  0  0  0  0  0
   -9.6826    1.3173   -7.4631 C   0  0  0  0  0  0  0  0  0  0  0  0
  -10.4624    1.6336   -6.2350 C   0  0  0  0  0  0  0  0  0  0  0  0
  -10.0060    2.9638   -5.6306 C   0  0  0  0  0  0  0  0  0  0  0  0
   -9.9583    1.6673   -8.7513 C   0  0  0  0  0  0  0  0  0  0  0  0
   -8.9692    1.2495   -9.6809 C   0  0  0  0  0  0  0  0  0  0  0  0
   -9.0668    1.6236  -11.3544 Cl  0  0  0  0  0  0  0  0  0  0  0  0
  -11.3600    2.5368   -9.2231 Cl  0  0  0  0  0  0  0  0  0  0  0  0
   -5.4589    0.3511   -9.2489 C   0  0  0  0  0  0  0  0  0  0  0  0
   -5.0994    1.3297   -7.8558 S   0  0  0  0  0  0  0  0  0  0  0  0
   -7.9662   -1.3352  -11.4494 C   0  0  0  0  0  0  0  0  0  0  0  0
   -7.6969   -2.1291  -12.5267 C   0  0  0  0  0  0  0  0  0  0  0  0
   -5.9814   -2.2708  -12.8321 S   0  0  0  0  0  0  0  0  0  0  0  0
   -8.6386   -2.8200  -13.3486 C   0  0  0  0  0  0  0  0  0  0  0  0
   -9.9944   -2.6692  -13.3529 C   0  0  0  0  0  0  0  0  0  0  0  0
  -10.6530   -3.5150  -14.2786 C   0  0  0  0  0  0  0  0  0  0  0  0
  -12.0281   -3.5898  -14.5560 C   0  0  0  0  0  0  0  0  0  0  0  0
  -12.9740   -2.7130  -13.8851 C   0  0  0  0  0  0  0  0  0  0  0  0
  -12.7504   -0.9874  -13.8976 S   0  0  0  0  0  0  0  0  0  0  0  0
  -14.1817   -0.7137  -12.9631 C   0  0  0  0  0  0  0  0  0  0  0  0
  -14.5661    0.6625  -12.5460 C   0  0  0  0  0  0  0  0  0  0  0  0
  -13.5792    1.2174  -11.5174 C   0  0  0  0  0  0  0  0  0  0  0  0
  -14.7835   -1.8991  -12.6653 C   0  0  0  0  0  0  0  0  0  0  0  0
  -16.2248   -2.0405  -11.7444 Cl  0  0  0  0  0  0  0  0  0  0  0  0
  -14.1064   -3.0338  -13.1909 C   0  0  0  0  0  0  0  0  0  0  0  0
  -14.6316   -4.6365  -12.8882 Cl  0  0  0  0  0  0  0  0  0  0  0  0
  -12.4278   -4.5113  -15.5164 C   0  0  0  0  0  0  0  0  0  0  0  0
  -11.5191   -5.3590  -16.1954 C   0  0  0  0  0  0  0  0  0  0  0  0
  -10.1469   -5.2922  -15.9095 C   0  0  0  0  0  0  0  0  0  0  0  0
   -9.1796   -6.1461  -16.5819 C   0  0  0  0  0  0  0  0  0  0  0  0
   -9.0547   -6.1906  -18.3160 S   0  0  0  0  0  0  0  0  0  0  0  0
   -7.7462   -7.3237  -18.2728 C   0  0  0  0  0  0  0  0  0  0  0  0
   -7.0841   -7.7855  -19.5237 C   0  0  0  0  0  0  0  0  0  0  0  0
   -6.0818   -6.7460  -20.0299 C   0  0  0  0  0  0  0  0  0  0  0  0
   -7.4338   -7.6346  -16.9837 C   0  0  0  0  0  0  0  0  0  0  0  0
   -8.2450   -6.9722  -16.0227 C   0  0  0  0  0  0  0  0  0  0  0  0
   -8.0980   -7.2648  -14.3404 Cl  0  0  0  0  0  0  0  0  0  0  0  0
   -6.1900   -8.7286  -16.5362 Cl  0  0  0  0  0  0  0  0  0  0  0  0
   -9.7438   -4.3600  -14.9612 C   0  0  0  0  0  0  0  0  0  0  0  0
   -8.1027   -4.0341  -14.4876 S   0  0  0  0  0  0  0  0  0  0  0  0
  -12.1883   -6.2040  -17.1281 C   0  0  0  0  0  0  0  0  0  0  0  0
  -13.5182   -5.9844  -17.1723 C   0  0  0  0  0  0  0  0  0  0  0  0
  -14.0553   -4.7550  -16.0827 S   0  0  0  0  0  0  0  0  0  0  0  0
   10.2972   -3.3829   20.2524 H   0  0  0  0  0  0  0  0  0  0  0  0
   11.1352   -4.0191   17.8713 H   0  0  0  0  0  0  0  0  0  0  0  0
   14.2179   -6.3418   13.8201 H   0  0  0  0  0  0  0  0  0  0  0  0
   14.8042   -5.2445   15.0858 H   0  0  0  0  0  0  0  0  0  0  0  0
   15.9800   -4.8257   12.9350 H   0  0  0  0  0  0  0  0  0  0  0  0
   15.0165   -3.4182   13.3985 H   0  0  0  0  0  0  0  0  0  0  0  0
   14.4339   -4.5118   12.1398 H   0  0  0  0  0  0  0  0  0  0  0  0
    4.2897    2.9190   19.7901 H   0  0  0  0  0  0  0  0  0  0  0  0
    5.8990    2.8848   20.5370 H   0  0  0  0  0  0  0  0  0  0  0  0
    6.7626    4.3973   18.7602 H   0  0  0  0  0  0  0  0  0  0  0  0
    5.1725    4.4168   17.9912 H   0  0  0  0  0  0  0  0  0  0  0  0
    5.3881    5.1347   19.5906 H   0  0  0  0  0  0  0  0  0  0  0  0
    6.8745    0.7396   14.6768 H   0  0  0  0  0  0  0  0  0  0  0  0
    5.5798    1.0096   12.7739 H   0  0  0  0  0  0  0  0  0  0  0  0
    2.6839    3.4660   15.2151 H   0  0  0  0  0  0  0  0  0  0  0  0
    0.9909    3.4006   14.6976 H   0  0  0  0  0  0  0  0  0  0  0  0
    2.9671    5.6384   14.0192 H   0  0  0  0  0  0  0  0  0  0  0  0
    1.6856    5.7345   15.2331 H   0  0  0  0  0  0  0  0  0  0  0  0
    1.2728    5.5851   13.5220 H   0  0  0  0  0  0  0  0  0  0  0  0
   11.3292    0.0129    4.6186 H   0  0  0  0  0  0  0  0  0  0  0  0
   11.8286    0.9703    6.0276 H   0  0  0  0  0  0  0  0  0  0  0  0
   11.8501   -1.1113    7.4158 H   0  0  0  0  0  0  0  0  0  0  0  0
   12.9529   -1.2424    6.0409 H   0  0  0  0  0  0  0  0  0  0  0  0
   11.3858   -2.0551    5.9980 H   0  0  0  0  0  0  0  0  0  0  0  0
    5.8410    2.0332    5.7169 H   0  0  0  0  0  0  0  0  0  0  0  0
    1.4526    3.9874    6.0908 H   0  0  0  0  0  0  0  0  0  0  0  0
    0.1482    5.3511    3.3401 H   0  0  0  0  0  0  0  0  0  0  0  0
   -0.4993    3.7197    3.5158 H   0  0  0  0  0  0  0  0  0  0  0  0
   -0.9332    4.3135    0.3642 H   0  0  0  0  0  0  0  0  0  0  0  0
    2.3901    2.6681   -2.7390 H   0  0  0  0  0  0  0  0  0  0  0  0
    1.5464    2.6452   -5.9648 H   0  0  0  0  0  0  0  0  0  0  0  0
    1.3647    1.0119   -5.3234 H   0  0  0  0  0  0  0  0  0  0  0  0
   -0.5399    0.9723   -7.9366 H   0  0  0  0  0  0  0  0  0  0  0  0
   -2.1187    0.0255   -9.4679 H   0  0  0  0  0  0  0  0  0  0  0  0
    0.7956   -0.3844  -13.1417 H   0  0  0  0  0  0  0  0  0  0  0  0
    0.9998   -2.1173  -13.4678 H   0  0  0  0  0  0  0  0  0  0  0  0
    1.0077   -0.8055  -15.5820 H   0  0  0  0  0  0  0  0  0  0  0  0
   -0.5958   -0.1661  -15.2024 H   0  0  0  0  0  0  0  0  0  0  0  0
   -0.3862   -1.8897  -15.5268 H   0  0  0  0  0  0  0  0  0  0  0  0
  -10.3256    0.8356   -5.5036 H   0  0  0  0  0  0  0  0  0  0  0  0
  -11.5209    1.6945   -6.4951 H   0  0  0  0  0  0  0  0  0  0  0  0
  -10.5749    3.1793   -4.7303 H   0  0  0  0  0  0  0  0  0  0  0  0
   -8.9501    2.9193   -5.3757 H   0  0  0  0  0  0  0  0  0  0  0  0
  -10.1585    3.7718   -6.3414 H   0  0  0  0  0  0  0  0  0  0  0  0
   -8.9604   -1.1586  -11.0851 H   0  0  0  0  0  0  0  0  0  0  0  0
  -10.5071   -1.9706  -12.7193 H   0  0  0  0  0  0  0  0  0  0  0  0
  -15.5696    0.6290  -12.1190 H   0  0  0  0  0  0  0  0  0  0  0  0
  -14.5812    1.3178  -13.4199 H   0  0  0  0  0  0  0  0  0  0  0  0
  -13.8661    2.2247  -11.2283 H   0  0  0  0  0  0  0  0  0  0  0  0
  -12.5757    1.2482  -11.9356 H   0  0  0  0  0  0  0  0  0  0  0  0
  -13.5663    0.5916  -10.6284 H   0  0  0  0  0  0  0  0  0  0  0  0
   -6.5678   -8.7245  -19.3174 H   0  0  0  0  0  0  0  0  0  0  0  0
   -7.8400   -7.9628  -20.2909 H   0  0  0  0  0  0  0  0  0  0  0  0
   -5.3185   -6.5615  -19.2789 H   0  0  0  0  0  0  0  0  0  0  0  0
   -6.5884   -5.8092  -20.2478 H   0  0  0  0  0  0  0  0  0  0  0  0
   -5.6000   -7.1025  -20.9364 H   0  0  0  0  0  0  0  0  0  0  0  0
  -11.6850   -6.9368  -17.7313 H   0  0  0  0  0  0  0  0  0  0  0  0
  -14.2468   -6.4791  -17.7843 H   0  0  0  0  0  0  0  0  0  0  0  0
  1  2  2  0  0  0  0
  2  3  1  0  0  0  0
  3  4  2  0  0  0  0
  4  5  1  0  0  0  0
  5  6  1  0  0  0  0
  6  7  1  0  0  0  0
  7  8  1  0  0  0  0
  8  9  1  0  0  0  0
  7 10  2  0  0  0  0
 10 11  1  0  0  0  0
 10 12  1  0  0  0  0
 12 13  1  0  0  0  0
  4 14  1  0  0  0  0
 14 15  2  0  0  0  0
 15 16  1  0  0  0  0
 16 17  1  0  0  0  0
 17 18  1  0  0  0  0
 18 19  1  0  0  0  0
 19 20  1  0  0  0  0
 20 21  1  0  0  0  0
 19 22  2  0  0  0  0
 22 23  1  0  0  0  0
 23 24  1  0  0  0  0
 22 25  1  0  0  0  0
 16 26  2  0  0  0  0
 26 27  1  0  0  0  0
 15 28  1  0  0  0  0
 28 29  2  0  0  0  0
 29 30  1  0  0  0  0
 29 31  1  0  0  0  0
 31 32  2  0  0  0  0
 32 33  1  0  0  0  0
 33 34  2  0  0  0  0
 34 35  1  0  0  0  0
 35 36  1  0  0  0  0
 36 37  1  0  0  0  0
 37 38  1  0  0  0  0
 38 39  1  0  0  0  0
 37 40  2  0  0  0  0
 40 41  1  0  0  0  0
 40 42  1  0  0  0  0
 42 43  1  0  0  0  0
 34 44  1  0  0  0  0
 44 45  2  0  0  0  0
 45 46  1  0  0  0  0
 46 47  1  0  0  0  0
 47 48  1  0  0  0  0
 48 49  1  0  0  0  0
 49 50  1  0  0  0  0
 50 51  1  0  0  0  0
 49 52  2  0  0  0  0
 52 53  1  0  0  0  0
 53 54  1  0  0  0  0
 52 55  1  0  0  0  0
 46 56  2  0  0  0  0
 56 57  1  0  0  0  0
 45 58  1  0  0  0  0
 58 59  2  0  0  0  0
 59 60  1  0  0  0  0
 59 61  1  0  0  0  0
 61 62  2  0  0  0  0
 62 63  1  0  0  0  0
 63 64  2  0  0  0  0
 64 65  1  0  0  0  0
 64 66  1  0  0  0  0
 66 67  2  0  0  0  0
 67 68  1  0  0  0  0
 67 69  1  0  0  0  0
 69 70  2  0  0  0  0
 70 71  1  0  0  0  0
 70 72  1  0  0  0  0
 72 73  2  0  0  0  0
 73 74  1  0  0  0  0
 74 75  2  0  0  0  0
 75 76  1  0  0  0  0
 75 77  1  0  0  0  0
 77 78  2  0  0  0  0
 78 79  1  0  0  0  0
 78 80  1  0  0  0  0
 80 81  2  0  0  0  0
 81 82  1  0  0  0  0
 81 83  1  0  0  0  0
 83 84  2  0  0  0  0
 84 85  1  0  0  0  0
 85 86  2  0  0  0  0
 86 87  1  0  0  0  0
 87 88  1  0  0  0  0
 88 89  1  0  0  0  0
 89 90  1  0  0  0  0
 90 91  1  0  0  0  0
 89 92  2  0  0  0  0
 92 93  1  0  0  0  0
 92 94  1  0  0  0  0
 94 95  1  0  0  0  0
 86 96  1  0  0  0  0
 96 97  2  0  0  0  0
 97 98  1  0  0  0  0
 98 99  1  0  0  0  0
 99100  1  0  0  0  0
100101  1  0  0  0  0
101102  1  0  0  0  0
102103  1  0  0  0  0
101104  2  0  0  0  0
104105  1  0  0  0  0
105106  1  0  0  0  0
104107  1  0  0  0  0
 98108  2  0  0  0  0
108109  1  0  0  0  0
 97110  1  0  0  0  0
110111  2  0  0  0  0
111112  1  0  0  0  0
111113  1  0  0  0  0
113114  2  0  0  0  0
114115  1  0  0  0  0
115116  2  0  0  0  0
116117  1  0  0  0  0
117118  1  0  0  0  0
118119  1  0  0  0  0
119120  1  0  0  0  0
120121  1  0  0  0  0
119122  2  0  0  0  0
122123  1  0  0  0  0
122124  1  0  0  0  0
124125  1  0  0  0  0
116126  1  0  0  0  0
126127  2  0  0  0  0
127128  1  0  0  0  0
128129  1  0  0  0  0
129130  1  0  0  0  0
130131  1  0  0  0  0
131132  1  0  0  0  0
132133  1  0  0  0  0
131134  2  0  0  0  0
134135  1  0  0  0  0
135136  1  0  0  0  0
134137  1  0  0  0  0
128138  2  0  0  0  0
138139  1  0  0  0  0
127140  1  0  0  0  0
140141  2  0  0  0  0
141142  1  0  0  0  0
 27  1  1  0  0  0  0
 57 31  1  0  0  0  0
 65 61  1  0  0  0  0
 71 66  1  0  0  0  0
 76 72  1  0  0  0  0
 82 77  1  0  0  0  0
109 83  1  0  0  0  0
139113  1  0  0  0  0
 26  3  1  0  0  0  0
 56 33  1  0  0  0  0
 68 63  1  0  0  0  0
 79 74  1  0  0  0  0
108 85  1  0  0  0  0
138115  1  0  0  0  0
 12  5  2  0  0  0  0
 30 14  1  0  0  0  0
 42 35  2  0  0  0  0
 60 44  1  0  0  0  0
 94 87  2  0  0  0  0
112 96  1  0  0  0  0
124117  2  0  0  0  0
142126  1  0  0  0  0
 23 17  2  0  0  0  0
 53 47  2  0  0  0  0
105 99  2  0  0  0  0
135129  2  0  0  0  0
  1143  1  0  0  0  0
  2144  1  0  0  0  0
  8145  1  0  0  0  0
  8146  1  0  0  0  0
  9147  1  0  0  0  0
  9148  1  0  0  0  0
  9149  1  0  0  0  0
 20150  1  0  0  0  0
 20151  1  0  0  0  0
 21152  1  0  0  0  0
 21153  1  0  0  0  0
 21154  1  0  0  0  0
 28155  1  0  0  0  0
 32156  1  0  0  0  0
 38157  1  0  0  0  0
 38158  1  0  0  0  0
 39159  1  0  0  0  0
 39160  1  0  0  0  0
 39161  1  0  0  0  0
 50162  1  0  0  0  0
 50163  1  0  0  0  0
 51164  1  0  0  0  0
 51165  1  0  0  0  0
 51166  1  0  0  0  0
 58167  1  0  0  0  0
 62168  1  0  0  0  0
 68169  1  0  0  0  0
 68170  1  0  0  0  0
 69171  1  0  0  0  0
 73172  1  0  0  0  0
 79173  1  0  0  0  0
 79174  1  0  0  0  0
 80175  1  0  0  0  0
 84176  1  0  0  0  0
 90177  1  0  0  0  0
 90178  1  0  0  0  0
 91179  1  0  0  0  0
 91180  1  0  0  0  0
 91181  1  0  0  0  0
102182  1  0  0  0  0
102183  1  0  0  0  0
103184  1  0  0  0  0
103185  1  0  0  0  0
103186  1  0  0  0  0
110187  1  0  0  0  0
114188  1  0  0  0  0
120189  1  0  0  0  0
120190  1  0  0  0  0
121191  1  0  0  0  0
121192  1  0  0  0  0
121193  1  0  0  0  0
132194  1  0  0  0  0
132195  1  0  0  0  0
133196  1  0  0  0  0
133197  1  0  0  0  0
133198  1  0  0  0  0
140199  1  0  0  0  0
141200  1  0  0  0  0
M  END
