107

N         -1.62040        4.21620        2.86440
C         -1.06520        3.06060        2.19490
C         -2.02800        1.87920        2.19580
S         -0.96220        0.43900        1.86260
C          0.47640        1.19050        2.49900
S          1.88320        0.39830        2.63650
C          0.17710        2.58350        2.96270
N          1.27230        3.56170        2.92940
C          0.75700        4.92270        2.76070
C         -0.59190        5.05800        3.46750
N          2.37240        3.22420        2.16950
C          3.65600        3.17430        2.83090
C          3.80450        4.01450        4.09050
S          5.60920        4.05180        4.36850
C          6.00630        3.81550        2.68620
S          7.52370        3.82210        2.11820
C          4.74980        3.68520        1.87960
N          4.83920        2.92450        0.64730
C          3.51310        2.55390        0.13880
C          2.40610        3.41770        0.73560
N          5.83440        1.95700        0.61060
C          5.64760        0.68130        1.26880
C          6.35340        0.51410        2.61490
S          6.29820       -1.29340        2.89660
C          6.15860       -1.70080        1.20630
S          6.07690       -3.20960        0.62130
C          6.24760       -0.43980        0.40360
N          5.70880       -0.42560       -0.92780
C          6.06740        0.81200       -1.62470
C          6.54890        1.90970       -0.64920
C          4.47340       -0.96660       -1.19850
C          3.99400       -1.25060       -2.45370
C          2.67870       -1.73110       -2.42080
C          2.16140       -1.80780       -1.13900
S          3.27180       -1.27320        0.05410
C          0.83600       -2.30830       -1.20010
C          0.50450       -2.54890       -2.52250
C          1.66730       -2.22370       -3.41550
C         -0.82160       -2.97800       -2.68260
C         -1.48570       -3.05210       -1.48800
S         -0.45880       -2.63810       -0.12150
N         -2.79490       -3.45840       -1.21480
C         -3.75340       -2.40020       -0.94920
C         -3.30040       -1.36380        0.06040
S         -4.84880       -0.52600        0.53830
C         -5.86560       -1.88800        0.14320
S         -7.47320       -1.86970        0.32890
C         -5.01440       -3.02930       -0.32350
N         -5.64730       -4.03330       -1.15280
C         -4.64710       -5.01860       -1.54970
C         -3.36260       -4.42370       -2.14310
N         -6.63050       -3.58480       -2.01560
C         -7.86710       -4.34440       -2.01450
C         -8.22140       -5.04710       -0.71910
S         -9.60850       -6.14310       -1.19230
C         -9.20040       -6.15890       -2.88950
S        -10.11510       -6.81040       -4.05660
C         -7.89330       -5.45610       -3.08820
N         -7.65110       -4.96600       -4.42250
C         -6.41810       -4.19910       -4.45360
C         -6.34380       -3.10860       -3.36600
H         -2.21240        4.74260        2.23370
H         -0.77080        3.26280        1.14740
H         -2.49330        1.75860        3.17380
H         -2.79790        1.93550        1.42980
H         -0.11570        2.48620        4.02300
H          0.63450        5.19000        1.69910
H          1.47680        5.61660        3.20200
H         -0.47220        4.76390        4.51570
H         -0.91770        6.09830        3.44660
H          3.87370        2.12790        3.10260
H          3.46570        5.04060        3.94990
H          3.31830        3.57950        4.95890
H          4.48350        4.71640        1.58510
H          3.27070        1.50690        0.36050
H          3.52400        2.68000       -0.94940
H          1.45030        3.08020        0.32240
H          2.55490        4.47020        0.43880
H          4.58160        0.46660        1.43010
H          7.39260        0.84090        2.56960
H          5.85410        0.99590        3.45190
H          7.32780       -0.24710        0.29750
H          6.86870        0.60100       -2.34290
H          5.19190        1.15460       -2.18150
H          7.61300        1.77790       -0.42990
H          6.43340        2.88750       -1.11530
H          4.59110       -1.14260       -3.34040
H          2.02820       -3.10790       -3.94490
H          1.41700       -1.46680       -4.16150
H         -1.27570       -3.20680       -3.63040
H         -4.03380       -1.87600       -1.88410
H         -2.86230       -1.82610        0.94500
H         -2.61320       -0.62470       -0.34300
H         -4.67540       -3.56590        0.58130
H         -4.38030       -5.57550       -0.64450
H         -5.08960       -5.71290       -2.26280
H         -2.63080       -5.22020       -2.28970
H         -3.57420       -3.96430       -3.12270
H         -8.66240       -3.62260       -2.25760
H         -7.39550       -5.65470       -0.35110
H         -8.55970       -4.36980        0.05980
H         -7.09770       -6.18510       -2.86140
H         -8.44020       -4.41230       -4.74170
H         -5.59310       -4.90980       -4.33420
H         -6.32510       -3.73810       -5.43850
H         -5.36440       -2.63140       -3.38110
H         -7.09580       -2.33930       -3.58310
