146

C          1.86350       -0.86010       21.12750
C          2.04790        0.47410       20.91270
C          2.00950        0.78690       19.54590
C          1.79460       -0.33060       18.75090
S          1.63830       -1.77000       19.67510
C          1.77030        0.06860       17.38950
C          1.97070        1.44440       17.31940
C          2.13920        2.01620       18.69630
C          1.96370        1.92540       16.01240
C          1.75990        0.92120       15.08730
S          1.56990       -0.64950       15.84530
C          1.68810        1.03980       13.67310
C          1.50110        0.04550       12.75670
C          1.45710        0.50610       11.41990
C          1.23420       -0.24070       10.25040
C          0.94060       -1.66300       10.31020
S          1.84750       -2.82320        9.38730
C          0.90460       -4.14700        9.98010
C          1.21240       -5.55120        9.59260
C          2.25510       -6.16230       10.53190
C         -0.04960       -3.70040       10.84490
Cl        -1.18090       -4.72280       11.63230
C         -0.03530       -2.29270       11.03180
Cl        -1.18880       -1.47770       12.00750
C          1.27180        0.44560        9.04530
C          1.48470        1.84270        8.95590
C          1.69420        2.59300       10.12790
C          1.91120        4.03020       10.07980
S          0.76860        5.09250        9.31020
C          1.68900        6.50390        9.71010
C          1.25650        7.85730        9.26530
C          1.62230        8.09360        7.79820
C          2.81710        6.15380       10.38860
C          2.94360        4.75470       10.60550
Cl         4.30960        4.06610       11.37780
Cl         3.98860        7.27800       10.94390
C          1.67170        1.90450       11.33240
S          1.84790        2.61290       12.91280
C          1.45800        2.29770        7.61630
C          1.21580        1.30660        6.70600
S          1.01930       -0.25700        7.47450
C          1.10700        1.42450        5.29180
C          1.11560        2.58370        4.53590
C          0.97240        2.32620        3.17660
C          0.85840        0.96550        2.89220
S          0.92220       -0.00820        4.30180
C          0.71320        0.79800        1.49550
C          0.72850        2.05020        0.88280
C          0.89850        3.12930        1.91110
C          0.58090        1.97670       -0.49890
C          0.45680        0.67430       -0.94310
S          0.52500       -0.48450        0.37170
C          0.28470        0.21940       -2.27780
C          0.19130       -1.07130       -2.71400
C          0.01630       -1.18720       -4.11220
C         -0.15340       -2.36090       -4.86940
C         -0.01550       -3.67050       -4.25700
S         -1.23470       -4.89760       -4.42870
C         -0.33570       -6.03320       -3.48200
C         -0.88020       -7.38290       -3.16810
C         -1.72150       -7.34950       -1.88980
C          0.83570       -5.47790       -3.06120
Cl         1.99480       -6.30380       -2.10240
C          1.02310       -4.14070       -3.50100
Cl         2.45490       -3.25280       -3.17190
C         -0.44880       -2.20420       -6.21550
C         -0.52940       -0.93930       -6.84760
C         -0.30030        0.23250       -6.10240
C         -0.36100        1.54510       -6.72350
S         -1.75720        2.04850       -7.63140
C         -1.07900        3.60530       -7.96620
C         -1.80160        4.59040       -8.81700
C         -1.64340        4.25170      -10.30120
C          0.15890        3.71020       -7.40720
C          0.56650        2.54880       -6.69630
Cl         2.10910        2.41640       -5.96180
Cl         1.15160        5.10440       -7.53320
C         -0.04270        0.07820       -4.74710
S          0.15650        1.36920       -3.59640
C         -0.81560       -1.05600       -8.22780
C         -0.96500       -2.34600       -8.65070
S         -0.73010       -3.49750       -7.34710
C         -1.29310       -2.80220       -9.95440
C         -1.44720       -4.10700      -10.38220
C         -1.80400       -4.18380      -11.72430
C         -1.92410       -2.93100      -12.32500
S         -1.59200       -1.64440      -11.23900
C         -2.30420       -3.10240      -13.67540
C         -2.42890       -4.46410      -13.94390
C         -2.11180       -5.26620      -12.71650
C         -2.81530       -4.72500      -15.25480
C         -2.98840       -3.56810      -15.99180
S         -2.66280       -2.12720      -15.04350
C         -3.38390       -3.45000      -17.34860
C         -3.56950       -2.29330      -18.08120
C         -3.96670       -2.55450      -19.39010
C         -4.08500       -3.91440      -19.65990
S         -3.70700       -4.89060      -18.29990
C         -4.49270       -4.08300      -21.00800
C         -4.63430       -2.83380      -21.59670
C         -4.30910       -1.75120      -20.61050
C         -5.03790       -2.91460      -22.93750
C         -5.19380       -4.20890      -23.33820
S         -4.85380       -5.36260      -22.09590
H          1.84490       -1.37920       22.06510
H          2.20260        1.18620       21.70310
H          3.11080        2.49880       18.82050
H          1.36870        2.75510       18.92670
H          2.09950        2.95300       15.72500
H          1.40670       -0.98780       13.03690
H          0.29240       -6.13700        9.63900
H          1.58900       -5.56910        8.56880
H          1.88850       -6.15770       11.55520
H          3.17990       -5.59180       10.49090
H          2.46390       -7.18830       10.24100
H          0.17620        7.95320        9.38900
H          1.74850        8.60340        9.89140
H          1.30800        9.08690        7.48960
H          2.69730        8.00930        7.65970
H          1.13020        7.35890        7.16510
H          1.61900        3.32250        7.33890
H          1.21300        3.56200        4.96900
H          1.80660        3.71190        1.74320
H          0.05470        3.82230        1.91720
H          0.56280        2.81650       -1.17060
H          0.22630       -1.91060       -2.04340
H         -0.04650       -8.07550       -3.03720
H         -1.49560       -7.72690       -4.00080
H         -1.11680       -7.01720       -1.05000
H         -2.55910       -6.66620       -2.00750
H         -2.10730       -8.34150       -1.67070
H         -1.39630        5.58450       -8.62110
H         -2.86170        4.58640       -8.55640
H         -2.04180        3.26090      -10.50660
H         -2.17880        4.97630      -10.90860
H         -0.59340        4.26940      -10.58210
H         -0.91100       -0.21820       -8.89420
H         -1.30430       -4.94640       -9.72510
H         -2.95720       -5.88080      -12.40090
H         -1.25860       -5.92930      -12.87350
H         -2.97220       -5.70270      -15.67450
H         -3.41760       -1.31520      -17.66050
H         -5.15910       -1.08830      -20.43560
H         -3.46950       -1.13600      -20.94080
H         -5.20740       -2.07020      -23.58110
H         -5.49250       -4.56830      -24.30270
