200

C          6.86390       -0.26780       14.00370
C          7.95820       -0.89000       13.47860
C          7.75130       -1.25580       12.14050
C          6.49130       -0.89790       11.68040
S          5.55460       -0.11100       12.88610
C          6.36260       -1.30060       10.32570
C          7.54510       -1.91600        9.92430
C          8.53050       -1.93780       11.05550
C          7.50860       -2.34430        8.59980
C          6.30350       -2.05660        7.99070
S          5.19000       -1.24410        9.07580
C          5.91540       -2.34400        6.65460
C          4.73540       -2.04170        6.03910
C          4.66530       -2.47520        4.69340
C          3.58890       -2.35240        3.79180
C          2.29780       -1.87120        4.24140
S          1.39500       -0.69330        3.33250
C          0.11510       -0.64400        4.50020
C         -1.07510        0.22930        4.30520
C         -1.71180        0.02480        2.93180
C          0.38820       -1.49700        5.52730
Cl        -0.59940       -1.68720        6.91810
C          1.60920       -2.20770        5.37630
Cl         2.07120       -3.44730        6.47180
C          3.84200       -2.69390        2.46700
C          5.08180       -3.22510        2.03750
C          6.10280       -3.49050        2.96940
C          7.32240       -4.16140        2.55920
S          8.89640       -3.54550        2.96790
C          9.70230       -4.83250        2.13790
C         11.18680       -4.94450        2.14100
C         11.67020       -5.69920        3.38200
C          8.79250       -5.69020        1.59500
C          7.44350       -5.31160        1.82660
Cl         6.11870       -6.26920        1.30090
Cl         9.21500       -7.09400        0.70270
C          5.87960       -3.07220        4.27210
S          7.02260       -3.18140        5.58090
C          5.13770       -3.37660        0.63260
C          3.98260       -3.02110        0.00020
S          2.74550       -2.50650        1.12720
C          3.77940       -2.94890       -1.41230
C          4.76190       -2.90160       -2.35870
C          4.27520       -2.70540       -3.67300
C          5.03360       -2.41040       -4.82390
C          6.48000       -2.51390       -4.80170
S          7.50590       -1.24340       -5.40000
C          8.94810       -2.11680       -5.01170
C         10.29180       -1.56490       -5.33740
C         10.64590       -1.82550       -6.80360
C          8.63780       -3.32660       -4.46530
Cl         9.80530       -4.47790       -3.95790
C          7.24180       -3.55460       -4.34010
Cl         6.60700       -5.03530       -3.74410
C          4.32910       -1.95020       -5.92870
C          2.91420       -1.94880       -5.97940
C          2.15070       -2.29380       -4.84970
C          0.70450       -2.14270       -4.82970
S         -0.06030       -0.66500       -5.35290
C         -1.64040       -1.23460       -4.94330
C         -2.85060       -0.39030       -5.15670
C         -3.42880        0.12060       -3.83550
C         -1.56560       -2.49530       -4.42970
C         -0.24300       -3.00900       -4.35760
Cl         0.09480       -4.59780       -3.81340
Cl        -2.93290       -3.40530       -3.93580
C          2.86090       -2.62420       -3.70100
S          2.18380       -2.80340       -2.10860
C          2.43510       -1.36570       -7.17470
C          3.41400       -0.80270       -7.94220
S          5.01170       -1.17110       -7.33700
C          3.06510        0.34510       -8.74980
C          1.95030        0.47540       -9.54830
C          1.34550        1.73090       -9.42460
C          2.00100        2.54840       -8.50830
S          3.46950        1.86670       -7.93830
C          1.06690        3.45800       -7.95550
C         -0.17550        3.25130       -8.55570
C         -0.03400        2.27270       -9.69180
C         -1.23230        3.69980       -7.76860
C         -0.80420        4.19560       -6.54770
S          0.94470        4.25130       -6.43910
C         -1.58000        4.25790       -5.35250
C         -2.93910        4.28390       -5.21830
C         -3.38580        3.93920       -3.91970
C         -4.71120        3.80120       -3.46970
C         -5.83250        4.24650       -4.27530
S         -7.23070        3.24480       -4.54020
C         -8.02240        4.46080       -5.48270
C         -9.35420        4.21260       -6.10010
C         -9.20910        3.53870       -7.46670
C         -7.23400        5.56770       -5.58690
Cl        -7.68470        6.98530       -6.44310
C         -5.99500        5.45260       -4.90180
Cl        -4.87130        6.74720       -4.81030
C         -4.89070        3.19900       -2.23020
C         -3.81500        2.80430       -1.40030
C         -2.49000        3.06210       -1.79470
C         -1.38080        2.73650       -0.90790
S         -1.29340        3.46060        0.67270
C          0.18080        2.64100        1.05640
C          0.89670        2.89350        2.33700
C          1.98410        3.95450        2.15110
C          0.56670        1.84970        0.01600
C         -0.31490        1.90320       -1.09820
Cl        -0.05670        0.94710       -2.49630
Cl         1.96570        0.85360        0.03590
C         -2.30870        3.60900       -3.05650
S         -0.77860        3.88420       -3.83300
C         -4.25830        2.09320       -0.25730
C         -5.61300        1.97290       -0.18910
S         -6.42180        2.77660       -1.52170
C         -6.40250        1.22550        0.73360
C         -7.75730        1.26640        0.86450
C         -8.26630        0.31960        1.78630
C         -9.61060        0.06490        2.10190
C        -10.67740        0.78770        1.42840
S        -10.74260        0.83030       -0.31020
C        -12.17480        1.80300       -0.31310
C        -12.77660        2.26390       -1.59480
C        -11.81040        3.16030       -2.37150
C        -12.56840        2.06520        0.96450
Cl       -13.94490        3.00530        1.37340
C        -11.72660        1.48620        1.95460
Cl       -11.97670        1.73210        3.63160
C         -9.86010       -0.94370        3.02470
C         -8.83060       -1.72800        3.59880
C         -7.48800       -1.48970        3.26350
C         -6.42050       -2.36580        3.71700
S         -6.53260       -4.08350        3.45130
C         -4.94060       -4.36330        4.06600
C         -4.33950       -5.72540        4.07630
C         -3.55490       -5.98550        2.78780
C         -4.36690       -3.18710        4.44620
C         -5.20430       -2.05470        4.25790
Cl        -4.74900       -0.48390        4.76380
Cl        -2.78150       -3.06840        5.08900
C         -7.23370       -0.44500        2.38170
S         -5.67020        0.02530        1.77560
C         -9.35690       -2.71930        4.47730
C        -10.70390       -2.69880        4.54290
S        -11.42800       -1.47990        3.55430
H          6.73910        0.11700       14.99630
H          8.86100       -1.07100       14.03360
H          8.80970       -2.95680       11.33170
H          9.44650       -1.39730       10.80790
H          8.30920       -2.84250        8.08240
H          3.95560       -1.49280        6.53460
H         -0.78030        1.27690        4.41350
H         -1.79910       -0.00030        5.08860
H         -0.99480        0.24280        2.14330
H         -2.04820       -1.00280        2.82020
H         -2.57090        0.68110        2.81960
H         11.50090       -5.47890        1.24250
H         11.62630       -3.94580        2.12800
H         11.25310       -6.70300        3.39770
H         12.75450       -5.77210        3.37680
H         11.35770       -5.17860        4.28410
H          6.01260       -3.71400        0.10950
H          5.80660       -2.92920       -2.11380
H         10.29740       -0.48990       -5.14940
H         11.03220       -2.03890       -4.69070
H         10.66220       -2.89390       -7.00330
H          9.91080       -1.36060       -7.45620
H         11.62570       -1.41350       -7.03000
H         -3.60930       -0.98500       -5.67230
H         -2.58250        0.45800       -5.78940
H         -4.30120        0.74050       -4.02670
H         -2.69060        0.71420       -3.30400
H         -3.72430       -0.71110       -3.20250
H          1.39290       -1.23950       -7.40060
H          1.54770       -0.34350      -10.11730
H         -0.08560        2.76990      -10.66360
H         -0.79930        1.49720       -9.66590
H         -2.27210        3.57280       -8.00950
H         -3.60510        4.49070       -6.03540
H         -9.86930        5.16780       -6.21740
H         -9.94360        3.57410       -5.44000
H         -8.69830        2.58440       -7.36340
H         -8.63460        4.17080       -8.13890
H        -10.18860        3.36560       -7.90380
H          1.35440        1.96150        2.67520
H          0.18210        3.23310        3.08810
H          1.54610        4.89200        1.81700
H          2.50150        4.12580        3.09120
H          2.70710        3.62470        1.40980
H         -3.59580        1.65810        0.46910
H         -8.36760        1.95600        0.31070
H        -13.69440        2.80910       -1.36940
H        -13.03250        1.39640       -2.20840
H        -10.89540        2.61870       -2.60170
H        -11.55390        4.03860       -1.78440
H        -12.26990        3.48620       -3.30090
H         -3.66760       -5.80780        4.93330
H         -5.13090       -6.46970        4.17880
H         -3.12240       -6.98210        2.80990
H         -2.75270       -5.25980        2.68170
H         -4.21020       -5.90780        1.92350
H         -8.74400       -3.40420        5.03370
H        -11.34390       -3.33140        5.12620
