
  xtb     03012216153D
 energy: -394.555161057909 gnorm: 0.000213920440 xtb: 6.4.1 (unknown)
200225  0     0  0            999 V2000
    8.0799   -1.7346   14.4850 C   0  0  0  0  0  0  0  0  0  0  0  0
    6.7728   -1.7229   14.8745 C   0  0  0  0  0  0  0  0  0  0  0  0
    5.9252   -2.1721   13.8515 C   0  0  0  0  0  0  0  0  0  0  0  0
    6.6184   -2.5166   12.6992 C   0  0  0  0  0  0  0  0  0  0  0  0
    8.3133   -2.2917   12.8649 S   0  0  0  0  0  0  0  0  0  0  0  0
    5.6939   -2.9571   11.7175 C   0  0  0  0  0  0  0  0  0  0  0  0
    4.4084   -2.8932   12.2474 C   0  0  0  0  0  0  0  0  0  0  0  0
    4.4524   -2.3838   13.6587 C   0  0  0  0  0  0  0  0  0  0  0  0
    3.4291   -3.3074   11.3487 C   0  0  0  0  0  0  0  0  0  0  0  0
    3.9627   -3.6878   10.1298 C   0  0  0  0  0  0  0  0  0  0  0  0
    5.7094   -3.5295   10.1013 S   0  0  0  0  0  0  0  0  0  0  0  0
    3.2664   -4.1550    8.9832 C   0  0  0  0  0  0  0  0  0  0  0  0
    1.9027   -4.3514    8.8421 C   0  0  0  0  0  0  0  0  0  0  0  0
    1.5638   -4.8054    7.5719 C   0  0  0  0  0  0  0  0  0  0  0  0
    2.6692   -4.9584    6.7370 C   0  0  0  0  0  0  0  0  0  0  0  0
    4.1415   -4.5459    7.5161 S   0  0  0  0  0  0  0  0  0  0  0  0
    2.2284   -5.3749    5.4600 C   0  0  0  0  0  0  0  0  0  0  0  0
    0.8386   -5.4909    5.4744 C   0  0  0  0  0  0  0  0  0  0  0  0
    0.3036   -5.1572    6.8366 C   0  0  0  0  0  0  0  0  0  0  0  0
    0.3136   -5.8310    4.2315 C   0  0  0  0  0  0  0  0  0  0  0  0
    1.2974   -5.9795    3.2703 C   0  0  0  0  0  0  0  0  0  0  0  0
    2.9027   -5.7174    3.9219 S   0  0  0  0  0  0  0  0  0  0  0  0
    1.1180   -6.1500    1.8676 C   0  0  0  0  0  0  0  0  0  0  0  0
   -0.0067   -5.8588    1.1468 C   0  0  0  0  0  0  0  0  0  0  0  0
    0.1867   -5.9252   -0.2527 C   0  0  0  0  0  0  0  0  0  0  0  0
   -0.7249   -5.5764   -1.2629 C   0  0  0  0  0  0  0  0  0  0  0  0
   -2.0105   -4.9691   -0.9594 C   0  0  0  0  0  0  0  0  0  0  0  0
   -2.0753   -3.5511    0.0505 S   0  0  0  0  0  0  0  0  0  0  0  0
   -3.7728   -3.3382   -0.2127 C   0  0  0  0  0  0  0  0  0  0  0  0
   -4.5058   -2.1953    0.4006 C   0  0  0  0  0  0  0  0  0  0  0  0
   -3.7693   -0.8729    0.1954 C   0  0  0  0  0  0  0  0  0  0  0  0
   -4.2464   -4.3242   -1.0249 C   0  0  0  0  0  0  0  0  0  0  0  0
   -5.8898   -4.4850   -1.4839 Cl  0  0  0  0  0  0  0  0  0  0  0  0
   -3.2510   -5.2418   -1.4610 C   0  0  0  0  0  0  0  0  0  0  0  0
   -3.6077   -6.5814   -2.4698 Cl  0  0  0  0  0  0  0  0  0  0  0  0
   -0.2689   -5.6510   -2.5729 C   0  0  0  0  0  0  0  0  0  0  0  0
    1.0532   -6.0249   -2.9158 C   0  0  0  0  0  0  0  0  0  0  0  0
    1.9460   -6.4318   -1.9058 C   0  0  0  0  0  0  0  0  0  0  0  0
    3.2825   -6.8891   -2.2362 C   0  0  0  0  0  0  0  0  0  0  0  0
    4.6934   -6.2982   -1.4100 S   0  0  0  0  0  0  0  0  0  0  0  0
    5.7543   -7.2963   -2.3439 C   0  0  0  0  0  0  0  0  0  0  0  0
    7.2196   -7.3120   -2.0826 C   0  0  0  0  0  0  0  0  0  0  0  0
    7.5444   -8.1780   -0.8632 C   0  0  0  0  0  0  0  0  0  0  0  0
    5.0419   -8.0467   -3.2315 C   0  0  0  0  0  0  0  0  0  0  0  0
    3.6419   -7.8141   -3.1794 C   0  0  0  0  0  0  0  0  0  0  0  0
    2.5274   -8.6830   -4.1539 Cl  0  0  0  0  0  0  0  0  0  0  0  0
    5.7472   -9.1702   -4.3209 Cl  0  0  0  0  0  0  0  0  0  0  0  0
    1.4977   -6.3391   -0.5937 C   0  0  0  0  0  0  0  0  0  0  0  0
    2.4552   -6.6167    0.8349 S   0  0  0  0  0  0  0  0  0  0  0  0
    1.3479   -5.7344   -4.2762 C   0  0  0  0  0  0  0  0  0  0  0  0
    0.2979   -5.1936   -4.9510 C   0  0  0  0  0  0  0  0  0  0  0  0
   -1.1468   -5.0872   -3.9584 S   0  0  0  0  0  0  0  0  0  0  0  0
    0.2504   -4.4334   -6.1678 C   0  0  0  0  0  0  0  0  0  0  0  0
    1.1720   -3.5149   -6.5770 C   0  0  0  0  0  0  0  0  0  0  0  0
    0.6171   -2.5053   -7.4086 C   0  0  0  0  0  0  0  0  0  0  0  0
    1.1594   -1.2262   -7.6234 C   0  0  0  0  0  0  0  0  0  0  0  0
    2.5388   -0.9319   -7.2457 C   0  0  0  0  0  0  0  0  0  0  0  0
    3.8815   -1.5026   -8.1844 S   0  0  0  0  0  0  0  0  0  0  0  0
    5.0331   -0.7762   -7.1139 C   0  0  0  0  0  0  0  0  0  0  0  0
    6.4942   -0.8431   -7.3925 C   0  0  0  0  0  0  0  0  0  0  0  0
    6.9177    0.2662   -8.3582 C   0  0  0  0  0  0  0  0  0  0  0  0
    4.3950   -0.1340   -6.0956 C   0  0  0  0  0  0  0  0  0  0  0  0
    5.2030    0.7046   -4.8355 Cl  0  0  0  0  0  0  0  0  0  0  0  0
    2.9781   -0.2279   -6.1621 C   0  0  0  0  0  0  0  0  0  0  0  0
    1.9395    0.4233   -4.9611 Cl  0  0  0  0  0  0  0  0  0  0  0  0
    0.2736   -0.2215   -7.9740 C   0  0  0  0  0  0  0  0  0  0  0  0
   -1.0983   -0.4608   -8.2482 C   0  0  0  0  0  0  0  0  0  0  0  0
   -1.6091   -1.7665   -8.1760 C   0  0  0  0  0  0  0  0  0  0  0  0
   -3.0194   -2.0866   -8.3293 C   0  0  0  0  0  0  0  0  0  0  0  0
   -4.2647   -1.2890   -7.4133 S   0  0  0  0  0  0  0  0  0  0  0  0
   -5.4978   -2.3361   -8.0220 C   0  0  0  0  0  0  0  0  0  0  0  0
   -6.9065   -2.2319   -7.5525 C   0  0  0  0  0  0  0  0  0  0  0  0
   -7.1723   -3.2379   -6.4296 C   0  0  0  0  0  0  0  0  0  0  0  0
   -4.9622   -3.2483   -8.8813 C   0  0  0  0  0  0  0  0  0  0  0  0
   -3.5583   -3.1163   -9.0494 C   0  0  0  0  0  0  0  0  0  0  0  0
   -2.6500   -4.1227  -10.0976 Cl  0  0  0  0  0  0  0  0  0  0  0  0
   -5.8815   -4.4462   -9.6949 Cl  0  0  0  0  0  0  0  0  0  0  0  0
   -0.7476   -2.7435   -7.6913 C   0  0  0  0  0  0  0  0  0  0  0  0
   -1.2888   -4.2381   -6.9813 S   0  0  0  0  0  0  0  0  0  0  0  0
   -1.8584    0.7324   -8.2050 C   0  0  0  0  0  0  0  0  0  0  0  0
   -1.1397    1.8128   -7.7722 C   0  0  0  0  0  0  0  0  0  0  0  0
    0.5912    1.4860   -7.7815 S   0  0  0  0  0  0  0  0  0  0  0  0
   -1.6535    2.7459   -6.8064 C   0  0  0  0  0  0  0  0  0  0  0  0
   -2.6048    2.3019   -5.9300 C   0  0  0  0  0  0  0  0  0  0  0  0
   -2.5805    2.9645   -4.6875 C   0  0  0  0  0  0  0  0  0  0  0  0
   -3.1763    2.5050   -3.5052 C   0  0  0  0  0  0  0  0  0  0  0  0
   -3.9089    1.2461   -3.4752 C   0  0  0  0  0  0  0  0  0  0  0  0
   -5.5388    1.1473   -2.8888 S   0  0  0  0  0  0  0  0  0  0  0  0
   -5.6159   -0.5634   -3.1560 C   0  0  0  0  0  0  0  0  0  0  0  0
   -6.8631   -1.3203   -2.8617 C   0  0  0  0  0  0  0  0  0  0  0  0
   -8.0567   -0.7608   -3.6340 C   0  0  0  0  0  0  0  0  0  0  0  0
   -4.4331   -1.0175   -3.6587 C   0  0  0  0  0  0  0  0  0  0  0  0
   -4.0924   -2.6623   -4.0285 Cl  0  0  0  0  0  0  0  0  0  0  0  0
   -3.4630    0.0064   -3.8426 C   0  0  0  0  0  0  0  0  0  0  0  0
   -1.8770   -0.3324   -4.4200 Cl  0  0  0  0  0  0  0  0  0  0  0  0
   -2.8833    3.2117   -2.3516 C   0  0  0  0  0  0  0  0  0  0  0  0
   -2.0626    4.3660   -2.3362 C   0  0  0  0  0  0  0  0  0  0  0  0
   -1.4646    4.8199   -3.5307 C   0  0  0  0  0  0  0  0  0  0  0  0
   -0.6156    5.9972   -3.5349 C   0  0  0  0  0  0  0  0  0  0  0  0
    0.9589    5.9952   -4.2710 S   0  0  0  0  0  0  0  0  0  0  0  0
    1.2406    7.6510   -3.8556 C   0  0  0  0  0  0  0  0  0  0  0  0
    2.4920    8.3445   -4.2668 C   0  0  0  0  0  0  0  0  0  0  0  0
    2.3991    8.8196   -5.7188 C   0  0  0  0  0  0  0  0  0  0  0  0
    0.1629    8.1665   -3.1987 C   0  0  0  0  0  0  0  0  0  0  0  0
   -0.8881    7.2313   -3.0088 C   0  0  0  0  0  0  0  0  0  0  0  0
   -2.3761    7.6589   -2.2672 Cl  0  0  0  0  0  0  0  0  0  0  0  0
    0.0648    9.7864   -2.6391 Cl  0  0  0  0  0  0  0  0  0  0  0  0
   -1.6795    4.0558   -4.6733 C   0  0  0  0  0  0  0  0  0  0  0  0
   -0.8359    4.1729   -6.2027 S   0  0  0  0  0  0  0  0  0  0  0  0
   -1.8046    4.7978   -1.0046 C   0  0  0  0  0  0  0  0  0  0  0  0
   -2.3686    3.9990   -0.0600 C   0  0  0  0  0  0  0  0  0  0  0  0
   -3.3113    2.6962   -0.7522 S   0  0  0  0  0  0  0  0  0  0  0  0
   -2.2189    4.0016    1.3695 C   0  0  0  0  0  0  0  0  0  0  0  0
   -2.2557    5.0172    2.2688 C   0  0  0  0  0  0  0  0  0  0  0  0
   -2.1192    4.5771    3.6158 C   0  0  0  0  0  0  0  0  0  0  0  0
   -2.1414    5.3480    4.7894 C   0  0  0  0  0  0  0  0  0  0  0  0
   -2.3077    6.7914    4.7550 C   0  0  0  0  0  0  0  0  0  0  0  0
   -3.6366    7.5340    3.9130 S   0  0  0  0  0  0  0  0  0  0  0  0
   -3.1432    9.1271    4.3728 C   0  0  0  0  0  0  0  0  0  0  0  0
   -3.8763   10.3310    3.8935 C   0  0  0  0  0  0  0  0  0  0  0  0
   -3.3566   10.7736    2.5232 C   0  0  0  0  0  0  0  0  0  0  0  0
   -2.0081    9.0714    5.1250 C   0  0  0  0  0  0  0  0  0  0  0  0
   -1.2115   10.4536    5.7562 Cl  0  0  0  0  0  0  0  0  0  0  0  0
   -1.5359    7.7504    5.3506 C   0  0  0  0  0  0  0  0  0  0  0  0
   -0.0905    7.4269    6.2120 Cl  0  0  0  0  0  0  0  0  0  0  0  0
   -2.0292    4.6617    5.9947 C   0  0  0  0  0  0  0  0  0  0  0  0
   -1.8195    3.2642    6.0747 C   0  0  0  0  0  0  0  0  0  0  0  0
   -1.6918    2.5065    4.8990 C   0  0  0  0  0  0  0  0  0  0  0  0
   -1.2766    1.1162    4.9091 C   0  0  0  0  0  0  0  0  0  0  0  0
   -1.9723   -0.0543    3.8243 S   0  0  0  0  0  0  0  0  0  0  0  0
   -0.8529   -1.2832    4.2959 C   0  0  0  0  0  0  0  0  0  0  0  0
   -0.7839   -2.5802    3.5713 C   0  0  0  0  0  0  0  0  0  0  0  0
    0.2921   -2.4981    2.4850 C   0  0  0  0  0  0  0  0  0  0  0  0
   -0.0095   -0.8121    5.2578 C   0  0  0  0  0  0  0  0  0  0  0  0
   -0.2415    0.5454    5.6053 C   0  0  0  0  0  0  0  0  0  0  0  0
    0.7921    1.3842    6.6890 Cl  0  0  0  0  0  0  0  0  0  0  0  0
    1.2380   -1.7551    5.9727 Cl  0  0  0  0  0  0  0  0  0  0  0  0
   -1.9197    3.1783    3.7000 C   0  0  0  0  0  0  0  0  0  0  0  0
   -1.9626    2.4427    2.1280 S   0  0  0  0  0  0  0  0  0  0  0  0
   -1.8391    2.8087    7.4252 C   0  0  0  0  0  0  0  0  0  0  0  0
   -2.0352    3.8061    8.3113 C   0  0  0  0  0  0  0  0  0  0  0  0
   -2.2024    5.3621    7.5785 S   0  0  0  0  0  0  0  0  0  0  0  0
    8.9397   -1.4458   15.0561 H   0  0  0  0  0  0  0  0  0  0  0  0
    6.4474   -1.4056   15.8489 H   0  0  0  0  0  0  0  0  0  0  0  0
    3.8885   -1.4557   13.7735 H   0  0  0  0  0  0  0  0  0  0  0  0
    4.0477   -3.1098   14.3670 H   0  0  0  0  0  0  0  0  0  0  0  0
    2.3758   -3.3320   11.5597 H   0  0  0  0  0  0  0  0  0  0  0  0
    1.2000   -4.1632    9.6326 H   0  0  0  0  0  0  0  0  0  0  0  0
   -0.3972   -4.3201    6.8096 H   0  0  0  0  0  0  0  0  0  0  0  0
   -0.2078   -6.0076    7.2927 H   0  0  0  0  0  0  0  0  0  0  0  0
   -0.7307   -5.9740    4.0210 H   0  0  0  0  0  0  0  0  0  0  0  0
   -0.9362   -5.5679    1.5999 H   0  0  0  0  0  0  0  0  0  0  0  0
   -5.4986   -2.1505   -0.0499 H   0  0  0  0  0  0  0  0  0  0  0  0
   -4.6291   -2.3720    1.4733 H   0  0  0  0  0  0  0  0  0  0  0  0
   -4.3570   -0.0479    0.5874 H   0  0  0  0  0  0  0  0  0  0  0  0
   -3.5897   -0.6980   -0.8622 H   0  0  0  0  0  0  0  0  0  0  0  0
   -2.8125   -0.8862    0.7116 H   0  0  0  0  0  0  0  0  0  0  0  0
    7.5678   -6.2928   -1.9052 H   0  0  0  0  0  0  0  0  0  0  0  0
    7.7284   -7.7088   -2.9627 H   0  0  0  0  0  0  0  0  0  0  0  0
    7.2177   -9.2014   -1.0299 H   0  0  0  0  0  0  0  0  0  0  0  0
    8.6155   -8.1794   -0.6807 H   0  0  0  0  0  0  0  0  0  0  0  0
    7.0389   -7.7908    0.0183 H   0  0  0  0  0  0  0  0  0  0  0  0
    2.3184   -5.8734   -4.7161 H   0  0  0  0  0  0  0  0  0  0  0  0
    2.1690   -3.4644   -6.1774 H   0  0  0  0  0  0  0  0  0  0  0  0
    7.0347   -0.7342   -6.4504 H   0  0  0  0  0  0  0  0  0  0  0  0
    6.7370   -1.8146   -7.8265 H   0  0  0  0  0  0  0  0  0  0  0  0
    6.3879    0.1667   -9.3026 H   0  0  0  0  0  0  0  0  0  0  0  0
    6.6916    1.2410   -7.9337 H   0  0  0  0  0  0  0  0  0  0  0  0
    7.9858    0.2073   -8.5486 H   0  0  0  0  0  0  0  0  0  0  0  0
   -7.5767   -2.4362   -8.3904 H   0  0  0  0  0  0  0  0  0  0  0  0
   -7.0924   -1.2177   -7.1945 H   0  0  0  0  0  0  0  0  0  0  0  0
   -8.1953   -3.1441   -6.0750 H   0  0  0  0  0  0  0  0  0  0  0  0
   -7.0211   -4.2512   -6.7919 H   0  0  0  0  0  0  0  0  0  0  0  0
   -6.4929   -3.0631   -5.5995 H   0  0  0  0  0  0  0  0  0  0  0  0
   -2.9250    0.7577   -8.3275 H   0  0  0  0  0  0  0  0  0  0  0  0
   -3.2146    1.4381   -6.1168 H   0  0  0  0  0  0  0  0  0  0  0  0
   -7.0770   -1.2652   -1.7911 H   0  0  0  0  0  0  0  0  0  0  0  0
   -6.7010   -2.3663   -3.1230 H   0  0  0  0  0  0  0  0  0  0  0  0
   -7.8670   -0.7970   -4.7032 H   0  0  0  0  0  0  0  0  0  0  0  0
   -8.2384    0.2727   -3.3488 H   0  0  0  0  0  0  0  0  0  0  0  0
   -8.9472   -1.3447   -3.4176 H   0  0  0  0  0  0  0  0  0  0  0  0
    2.6511    9.2009   -3.6092 H   0  0  0  0  0  0  0  0  0  0  0  0
    3.3363    7.6608   -4.1631 H   0  0  0  0  0  0  0  0  0  0  0  0
    3.3177    9.3242   -6.0056 H   0  0  0  0  0  0  0  0  0  0  0  0
    1.5695    9.5121   -5.8367 H   0  0  0  0  0  0  0  0  0  0  0  0
    2.2425    7.9725   -6.3824 H   0  0  0  0  0  0  0  0  0  0  0  0
   -1.1624    5.6227   -0.7575 H   0  0  0  0  0  0  0  0  0  0  0  0
   -2.4083    6.0428    1.9882 H   0  0  0  0  0  0  0  0  0  0  0  0
   -3.7361   11.1376    4.6154 H   0  0  0  0  0  0  0  0  0  0  0  0
   -4.9413   10.1037    3.8228 H   0  0  0  0  0  0  0  0  0  0  0  0
   -3.8949   11.6556    2.1869 H   0  0  0  0  0  0  0  0  0  0  0  0
   -3.4948    9.9807    1.7919 H   0  0  0  0  0  0  0  0  0  0  0  0
   -2.2977   11.0127    2.5813 H   0  0  0  0  0  0  0  0  0  0  0  0
   -1.7489   -2.7990    3.1131 H   0  0  0  0  0  0  0  0  0  0  0  0
   -0.5288   -3.3778    4.2702 H   0  0  0  0  0  0  0  0  0  0  0  0
    0.3339   -3.4273    1.9260 H   0  0  0  0  0  0  0  0  0  0  0  0
    1.2645   -2.3161    2.9347 H   0  0  0  0  0  0  0  0  0  0  0  0
    0.0686   -1.6894    1.7940 H   0  0  0  0  0  0  0  0  0  0  0  0
   -1.7434    1.7756    7.7032 H   0  0  0  0  0  0  0  0  0  0  0  0
   -2.0982    3.7343    9.3796 H   0  0  0  0  0  0  0  0  0  0  0  0
  1  2  2  0  0  0  0
  2  3  1  0  0  0  0
  3  4  2  0  0  0  0
  4  5  1  0  0  0  0
  4  6  1  0  0  0  0
  6  7  2  0  0  0  0
  7  8  1  0  0  0  0
  7  9  1  0  0  0  0
  9 10  2  0  0  0  0
 10 11  1  0  0  0  0
 10 12  1  0  0  0  0
 12 13  2  0  0  0  0
 13 14  1  0  0  0  0
 14 15  2  0  0  0  0
 15 16  1  0  0  0  0
 15 17  1  0  0  0  0
 17 18  2  0  0  0  0
 18 19  1  0  0  0  0
 18 20  1  0  0  0  0
 20 21  2  0  0  0  0
 21 22  1  0  0  0  0
 21 23  1  0  0  0  0
 23 24  2  0  0  0  0
 24 25  1  0  0  0  0
 25 26  2  0  0  0  0
 26 27  1  0  0  0  0
 27 28  1  0  0  0  0
 28 29  1  0  0  0  0
 29 30  1  0  0  0  0
 30 31  1  0  0  0  0
 29 32  2  0  0  0  0
 32 33  1  0  0  0  0
 32 34  1  0  0  0  0
 34 35  1  0  0  0  0
 26 36  1  0  0  0  0
 36 37  2  0  0  0  0
 37 38  1  0  0  0  0
 38 39  1  0  0  0  0
 39 40  1  0  0  0  0
 40 41  1  0  0  0  0
 41 42  1  0  0  0  0
 42 43  1  0  0  0  0
 41 44  2  0  0  0  0
 44 45  1  0  0  0  0
 45 46  1  0  0  0  0
 44 47  1  0  0  0  0
 38 48  2  0  0  0  0
 48 49  1  0  0  0  0
 37 50  1  0  0  0  0
 50 51  2  0  0  0  0
 51 52  1  0  0  0  0
 51 53  1  0  0  0  0
 53 54  2  0  0  0  0
 54 55  1  0  0  0  0
 55 56  2  0  0  0  0
 56 57  1  0  0  0  0
 57 58  1  0  0  0  0
 58 59  1  0  0  0  0
 59 60  1  0  0  0  0
 60 61  1  0  0  0  0
 59 62  2  0  0  0  0
 62 63  1  0  0  0  0
 62 64  1  0  0  0  0
 64 65  1  0  0  0  0
 56 66  1  0  0  0  0
 66 67  2  0  0  0  0
 67 68  1  0  0  0  0
 68 69  1  0  0  0  0
 69 70  1  0  0  0  0
 70 71  1  0  0  0  0
 71 72  1  0  0  0  0
 72 73  1  0  0  0  0
 71 74  2  0  0  0  0
 74 75  1  0  0  0  0
 75 76  1  0  0  0  0
 74 77  1  0  0  0  0
 68 78  2  0  0  0  0
 78 79  1  0  0  0  0
 67 80  1  0  0  0  0
 80 81  2  0  0  0  0
 81 82  1  0  0  0  0
 81 83  1  0  0  0  0
 83 84  2  0  0  0  0
 84 85  1  0  0  0  0
 85 86  2  0  0  0  0
 86 87  1  0  0  0  0
 87 88  1  0  0  0  0
 88 89  1  0  0  0  0
 89 90  1  0  0  0  0
 90 91  1  0  0  0  0
 89 92  2  0  0  0  0
 92 93  1  0  0  0  0
 92 94  1  0  0  0  0
 94 95  1  0  0  0  0
 86 96  1  0  0  0  0
 96 97  2  0  0  0  0
 97 98  1  0  0  0  0
 98 99  1  0  0  0  0
 99100  1  0  0  0  0
100101  1  0  0  0  0
101102  1  0  0  0  0
102103  1  0  0  0  0
101104  2  0  0  0  0
104105  1  0  0  0  0
105106  1  0  0  0  0
104107  1  0  0  0  0
 98108  2  0  0  0  0
108109  1  0  0  0  0
 97110  1  0  0  0  0
110111  2  0  0  0  0
111112  1  0  0  0  0
111113  1  0  0  0  0
113114  2  0  0  0  0
114115  1  0  0  0  0
115116  2  0  0  0  0
116117  1  0  0  0  0
117118  1  0  0  0  0
118119  1  0  0  0  0
119120  1  0  0  0  0
120121  1  0  0  0  0
119122  2  0  0  0  0
122123  1  0  0  0  0
122124  1  0  0  0  0
124125  1  0  0  0  0
116126  1  0  0  0  0
126127  2  0  0  0  0
127128  1  0  0  0  0
128129  1  0  0  0  0
129130  1  0  0  0  0
130131  1  0  0  0  0
131132  1  0  0  0  0
132133  1  0  0  0  0
131134  2  0  0  0  0
134135  1  0  0  0  0
135136  1  0  0  0  0
134137  1  0  0  0  0
128138  2  0  0  0  0
138139  1  0  0  0  0
127140  1  0  0  0  0
140141  2  0  0  0  0
141142  1  0  0  0  0
  5  1  1  0  0  0  0
 11  6  1  0  0  0  0
 16 12  1  0  0  0  0
 22 17  1  0  0  0  0
 49 23  1  0  0  0  0
 79 53  1  0  0  0  0
109 83  1  0  0  0  0
139113  1  0  0  0  0
  8  3  1  0  0  0  0
 19 14  1  0  0  0  0
 48 25  1  0  0  0  0
 78 55  1  0  0  0  0
108 85  1  0  0  0  0
138115  1  0  0  0  0
 34 27  2  0  0  0  0
 52 36  1  0  0  0  0
 64 57  2  0  0  0  0
 82 66  1  0  0  0  0
 94 87  2  0  0  0  0
112 96  1  0  0  0  0
124117  2  0  0  0  0
142126  1  0  0  0  0
 45 39  2  0  0  0  0
 75 69  2  0  0  0  0
105 99  2  0  0  0  0
135129  2  0  0  0  0
  1143  1  0  0  0  0
  2144  1  0  0  0  0
  8145  1  0  0  0  0
  8146  1  0  0  0  0
  9147  1  0  0  0  0
 13148  1  0  0  0  0
 19149  1  0  0  0  0
 19150  1  0  0  0  0
 20151  1  0  0  0  0
 24152  1  0  0  0  0
 30153  1  0  0  0  0
 30154  1  0  0  0  0
 31155  1  0  0  0  0
 31156  1  0  0  0  0
 31157  1  0  0  0  0
 42158  1  0  0  0  0
 42159  1  0  0  0  0
 43160  1  0  0  0  0
 43161  1  0  0  0  0
 43162  1  0  0  0  0
 50163  1  0  0  0  0
 54164  1  0  0  0  0
 60165  1  0  0  0  0
 60166  1  0  0  0  0
 61167  1  0  0  0  0
 61168  1  0  0  0  0
 61169  1  0  0  0  0
 72170  1  0  0  0  0
 72171  1  0  0  0  0
 73172  1  0  0  0  0
 73173  1  0  0  0  0
 73174  1  0  0  0  0
 80175  1  0  0  0  0
 84176  1  0  0  0  0
 90177  1  0  0  0  0
 90178  1  0  0  0  0
 91179  1  0  0  0  0
 91180  1  0  0  0  0
 91181  1  0  0  0  0
102182  1  0  0  0  0
102183  1  0  0  0  0
103184  1  0  0  0  0
103185  1  0  0  0  0
103186  1  0  0  0  0
110187  1  0  0  0  0
114188  1  0  0  0  0
120189  1  0  0  0  0
120190  1  0  0  0  0
121191  1  0  0  0  0
121192  1  0  0  0  0
121193  1  0  0  0  0
132194  1  0  0  0  0
132195  1  0  0  0  0
133196  1  0  0  0  0
133197  1  0  0  0  0
133198  1  0  0  0  0
140199  1  0  0  0  0
141200  1  0  0  0  0
M  END
