200

C          8.07990       -1.73460       14.48500
C          6.77280       -1.72290       14.87450
C          5.92520       -2.17210       13.85150
C          6.61840       -2.51660       12.69920
S          8.31330       -2.29170       12.86490
C          5.69390       -2.95710       11.71750
C          4.40840       -2.89320       12.24740
C          4.45240       -2.38380       13.65870
C          3.42910       -3.30740       11.34870
C          3.96270       -3.68780       10.12980
S          5.70940       -3.52950       10.10130
C          3.26640       -4.15500        8.98320
C          1.90270       -4.35140        8.84210
C          1.56380       -4.80540        7.57190
C          2.66920       -4.95840        6.73700
S          4.14150       -4.54590        7.51610
C          2.22840       -5.37490        5.46000
C          0.83860       -5.49090        5.47440
C          0.30360       -5.15720        6.83660
C          0.31360       -5.83100        4.23150
C          1.29740       -5.97950        3.27030
S          2.90270       -5.71740        3.92190
C          1.11800       -6.15000        1.86760
C         -0.00670       -5.85880        1.14680
C          0.18670       -5.92520       -0.25270
C         -0.72490       -5.57640       -1.26290
C         -2.01050       -4.96910       -0.95940
S         -2.07530       -3.55110        0.05050
C         -3.77280       -3.33820       -0.21270
C         -4.50580       -2.19530        0.40060
C         -3.76930       -0.87290        0.19540
C         -4.24640       -4.32420       -1.02490
Cl        -5.88980       -4.48500       -1.48390
C         -3.25100       -5.24180       -1.46100
Cl        -3.60770       -6.58140       -2.46980
C         -0.26890       -5.65100       -2.57290
C          1.05320       -6.02490       -2.91580
C          1.94600       -6.43180       -1.90580
C          3.28250       -6.88910       -2.23620
S          4.69340       -6.29820       -1.41000
C          5.75430       -7.29630       -2.34390
C          7.21960       -7.31200       -2.08260
C          7.54440       -8.17800       -0.86320
C          5.04190       -8.04670       -3.23150
C          3.64190       -7.81410       -3.17940
Cl         2.52740       -8.68300       -4.15390
Cl         5.74720       -9.17020       -4.32090
C          1.49770       -6.33910       -0.59370
S          2.45520       -6.61670        0.83490
C          1.34790       -5.73440       -4.27620
C          0.29790       -5.19360       -4.95100
S         -1.14680       -5.08720       -3.95840
C          0.25040       -4.43340       -6.16780
C          1.17200       -3.51490       -6.57700
C          0.61710       -2.50530       -7.40860
C          1.15940       -1.22620       -7.62340
C          2.53880       -0.93190       -7.24570
S          3.88150       -1.50260       -8.18440
C          5.03310       -0.77620       -7.11390
C          6.49420       -0.84310       -7.39250
C          6.91770        0.26620       -8.35820
C          4.39500       -0.13400       -6.09560
Cl         5.20300        0.70460       -4.83550
C          2.97810       -0.22790       -6.16210
Cl         1.93950        0.42330       -4.96110
C          0.27360       -0.22150       -7.97400
C         -1.09830       -0.46080       -8.24820
C         -1.60910       -1.76650       -8.17600
C         -3.01940       -2.08660       -8.32930
S         -4.26470       -1.28900       -7.41330
C         -5.49780       -2.33610       -8.02200
C         -6.90650       -2.23190       -7.55250
C         -7.17230       -3.23790       -6.42960
C         -4.96220       -3.24830       -8.88130
C         -3.55830       -3.11630       -9.04940
Cl        -2.65000       -4.12270      -10.09760
Cl        -5.88150       -4.44620       -9.69490
C         -0.74760       -2.74350       -7.69130
S         -1.28880       -4.23810       -6.98130
C         -1.85840        0.73240       -8.20500
C         -1.13970        1.81280       -7.77220
S          0.59120        1.48600       -7.78150
C         -1.65350        2.74590       -6.80640
C         -2.60480        2.30190       -5.93000
C         -2.58050        2.96450       -4.68750
C         -3.17630        2.50500       -3.50520
C         -3.90890        1.24610       -3.47520
S         -5.53880        1.14730       -2.88880
C         -5.61590       -0.56340       -3.15600
C         -6.86310       -1.32030       -2.86170
C         -8.05670       -0.76080       -3.63400
C         -4.43310       -1.01750       -3.65870
Cl        -4.09240       -2.66230       -4.02850
C         -3.46300        0.00640       -3.84260
Cl        -1.87700       -0.33240       -4.42000
C         -2.88330        3.21170       -2.35160
C         -2.06260        4.36600       -2.33620
C         -1.46460        4.81990       -3.53070
C         -0.61560        5.99720       -3.53490
S          0.95890        5.99520       -4.27100
C          1.24060        7.65100       -3.85560
C          2.49200        8.34450       -4.26680
C          2.39910        8.81960       -5.71880
C          0.16290        8.16650       -3.19870
C         -0.88810        7.23130       -3.00880
Cl        -2.37610        7.65890       -2.26720
Cl         0.06480        9.78640       -2.63910
C         -1.67950        4.05580       -4.67330
S         -0.83590        4.17290       -6.20270
C         -1.80460        4.79780       -1.00460
C         -2.36860        3.99900       -0.06000
S         -3.31130        2.69620       -0.75220
C         -2.21890        4.00160        1.36950
C         -2.25570        5.01720        2.26880
C         -2.11920        4.57710        3.61580
C         -2.14140        5.34800        4.78940
C         -2.30770        6.79140        4.75500
S         -3.63660        7.53400        3.91300
C         -3.14320        9.12710        4.37280
C         -3.87630       10.33100        3.89350
C         -3.35660       10.77360        2.52320
C         -2.00810        9.07140        5.12500
Cl        -1.21150       10.45360        5.75620
C         -1.53590        7.75040        5.35060
Cl        -0.09050        7.42690        6.21200
C         -2.02920        4.66170        5.99470
C         -1.81950        3.26420        6.07470
C         -1.69180        2.50650        4.89900
C         -1.27660        1.11620        4.90910
S         -1.97230       -0.05430        3.82430
C         -0.85290       -1.28320        4.29590
C         -0.78390       -2.58020        3.57130
C          0.29210       -2.49810        2.48500
C         -0.00950       -0.81210        5.25780
C         -0.24150        0.54540        5.60530
Cl         0.79210        1.38420        6.68900
Cl         1.23800       -1.75510        5.97270
C         -1.91970        3.17830        3.70000
S         -1.96260        2.44270        2.12800
C         -1.83910        2.80870        7.42520
C         -2.03520        3.80610        8.31130
S         -2.20240        5.36210        7.57850
H          8.93970       -1.44580       15.05610
H          6.44740       -1.40560       15.84890
H          3.88850       -1.45570       13.77350
H          4.04770       -3.10980       14.36700
H          2.37580       -3.33200       11.55970
H          1.20000       -4.16320        9.63260
H         -0.39720       -4.32010        6.80960
H         -0.20780       -6.00760        7.29270
H         -0.73070       -5.97400        4.02100
H         -0.93620       -5.56790        1.59990
H         -5.49860       -2.15050       -0.04990
H         -4.62910       -2.37200        1.47330
H         -4.35700       -0.04790        0.58740
H         -3.58970       -0.69800       -0.86220
H         -2.81250       -0.88620        0.71160
H          7.56780       -6.29280       -1.90520
H          7.72840       -7.70880       -2.96270
H          7.21770       -9.20140       -1.02990
H          8.61550       -8.17940       -0.68070
H          7.03890       -7.79080        0.01830
H          2.31840       -5.87340       -4.71610
H          2.16900       -3.46440       -6.17740
H          7.03470       -0.73420       -6.45040
H          6.73700       -1.81460       -7.82650
H          6.38790        0.16670       -9.30260
H          6.69160        1.24100       -7.93370
H          7.98580        0.20730       -8.54860
H         -7.57670       -2.43620       -8.39040
H         -7.09240       -1.21770       -7.19450
H         -8.19530       -3.14410       -6.07500
H         -7.02110       -4.25120       -6.79190
H         -6.49290       -3.06310       -5.59950
H         -2.92500        0.75770       -8.32750
H         -3.21460        1.43810       -6.11680
H         -7.07700       -1.26520       -1.79110
H         -6.70100       -2.36630       -3.12300
H         -7.86700       -0.79700       -4.70320
H         -8.23840        0.27270       -3.34880
H         -8.94720       -1.34470       -3.41760
H          2.65110        9.20090       -3.60920
H          3.33630        7.66080       -4.16310
H          3.31770        9.32420       -6.00560
H          1.56950        9.51210       -5.83670
H          2.24250        7.97250       -6.38240
H         -1.16240        5.62270       -0.75750
H         -2.40830        6.04280        1.98820
H         -3.73610       11.13760        4.61540
H         -4.94130       10.10370        3.82280
H         -3.89490       11.65560        2.18690
H         -3.49480        9.98070        1.79190
H         -2.29770       11.01270        2.58130
H         -1.74890       -2.79900        3.11310
H         -0.52880       -3.37780        4.27020
H          0.33390       -3.42730        1.92600
H          1.26450       -2.31610        2.93470
H          0.06860       -1.68940        1.79400
H         -1.74340        1.77560        7.70320
H         -2.09820        3.73430        9.37960
