146

C         -0.81270       12.25100       16.62620
C         -0.07240       11.41040       17.40440
C         -0.16590       10.08210       16.96370
C         -0.98340        9.94760       15.85000
S         -1.64210       11.44920       15.33810
C         -1.02110        8.58240       15.46610
C         -0.22660        7.84580       16.33980
C          0.38660        8.74800       17.37100
C         -0.19700        6.48790       16.03370
C         -0.96590        6.18320       14.92420
S         -1.74290        7.60640       14.25490
C         -1.14280        4.91480       14.30940
C         -0.61050        3.69890       14.70510
C         -0.95260        2.66580       13.83860
C         -1.75180        3.08890       12.77810
S         -2.09610        4.76880       12.84560
C         -2.00230        1.99230       11.92250
C         -1.36400        0.86150       12.43240
C         -0.65970        1.19870       13.71460
C         -1.50460       -0.25390       11.61390
C         -2.24780        0.02020       10.47880
S         -2.79870        1.68370       10.43700
C         -2.50080       -0.83210        9.36880
C         -2.02490       -2.09480        9.14380
C         -2.33740       -2.59770        7.85860
C         -1.96600       -3.83040        7.28660
C         -1.22490       -4.83660        8.02740
S          0.26110       -4.46870        8.85440
C          0.47950       -6.10860        9.36470
C          1.68420       -6.52560       10.13370
C          2.85750       -6.81590        9.19480
C         -0.54350       -6.88380        8.90840
Cl        -0.67770       -8.56670        9.21500
C         -1.51100       -6.16800        8.15340
Cl        -2.93060       -6.90960        7.54340
C         -2.29580       -4.02990        5.95190
C         -3.03490       -3.09140        5.19230
C         -3.51670       -1.91760        5.80040
C         -4.38070       -1.00670        5.07460
S         -4.10060        0.70860        5.04010
C         -5.49260        0.99510        4.05270
C         -5.89180        2.37720        3.67100
C         -6.62730        3.06630        4.82300
C         -6.13300       -0.17760        3.78320
C         -5.50330       -1.31490        4.35400
Cl        -6.15770       -2.89530        4.21310
Cl        -7.56460       -0.29440        2.84360
C         -3.10830       -1.67800        7.10450
S         -3.43810       -0.23360        8.01390
C         -3.08210       -3.43530        3.82270
C         -2.41560       -4.58880        3.52230
S         -1.74280       -5.34790        4.95390
C         -2.14550       -5.10490        2.22690
C         -1.45070       -6.24760        1.87840
C         -1.24270       -6.33950        0.50480
C         -1.78040       -5.25930       -0.19340
S         -2.58040       -4.13910        0.82740
C         -1.41720       -5.35980       -1.55400
C         -0.65100       -6.50970       -1.73920
C         -0.51800       -7.25400       -0.44100
C         -0.15470       -6.62400       -3.03440
C         -0.52700       -5.55610       -3.83510
S         -1.54530       -4.41450       -2.97760
C         -0.10920       -5.25580       -5.15860
C          0.70230       -6.00050       -5.99900
C          0.99810       -5.32570       -7.17980
C          0.40870       -4.06420       -7.24430
S         -0.53230       -3.70410       -5.85800
C          0.81710       -3.42140       -8.43370
C          1.66990       -4.26880       -9.14090
C          1.83320       -5.56790       -8.40460
C          2.16700       -3.68520      -10.30190
C          1.70000       -2.39430      -10.47950
S          0.61420       -1.90160       -9.19600
C          2.02700       -1.47060      -11.51180
C          2.89100       -1.63220      -12.55870
C          3.00480       -0.48420      -13.38070
C          3.78970       -0.30890      -14.53240
C          4.63430       -1.37210      -15.05280
S          3.98380       -2.93310      -15.46070
C          5.51700       -3.51700      -16.01180
C          5.66580       -4.87740      -16.59840
C          5.46800       -4.83910      -18.11570
C          6.46560       -2.54750      -15.88260
Cl         8.11050       -2.75770      -16.32280
C          5.97090       -1.33260      -15.33670
Cl         6.98810        0.00500      -15.00080
C          3.71200        0.92420      -15.17080
C          2.90750        1.98850      -14.70020
C          2.14900        1.82600      -13.53140
C          1.32220        2.89650      -12.99380
S          0.07190        3.64760      -13.94000
C         -0.40430        4.68120      -12.63550
C         -1.55460        5.61670      -12.76970
C         -2.87560        4.90190      -12.47510
C          0.36720        4.44270      -11.53820
C          1.34840        3.43420      -11.73770
Cl         2.48920        3.00930      -10.53170
Cl         0.19570        5.27650      -10.04850
C          2.20870        0.58800      -12.90640
S          1.30960        0.12810      -11.49280
C          3.00530        3.13470      -15.54170
C          3.81350        2.93630      -16.60270
S          4.52230        1.35980      -16.64880
H         -0.92750       13.31180       16.72730
H          0.50700       11.73970       18.24800
H          0.08630        8.47300       18.38420
H          1.47780        8.72880       17.32970
H          0.35910        5.74930       16.58100
H          0.00180        3.58640       15.58070
H         -1.05810        0.63220       14.55890
H          0.41220        1.00030       13.65540
H         -1.08130       -1.22100       11.81390
H         -1.43880       -2.63500        9.86310
H          1.96380       -5.73270       10.82960
H          1.44090       -7.42410       10.70390
H          3.72680       -7.12710        9.76780
H          3.11360       -5.92570        8.62520
H          2.59520       -7.60970        8.50000
H         -6.54290        2.32490        2.79670
H         -5.00250        2.95460        3.41230
H         -5.98520        3.12310        5.69880
H         -6.91520        4.07330        4.53350
H         -7.52330        2.50900        5.08470
H         -3.54300       -2.82220        3.06950
H         -1.10320       -6.95340        2.61190
H         -0.98680       -8.23950       -0.48840
H          0.52600       -7.39470       -0.15530
H          0.47270       -7.42350       -3.38320
H          1.06300       -6.98010       -5.74440
H          2.87710       -5.76570       -8.15340
H          1.46390       -6.41450       -8.98730
H          2.84320       -4.15980      -10.98900
H          3.43610       -2.54040      -12.73590
H          6.66650       -5.25090      -16.37180
H          4.93040       -5.54780      -16.15090
H          6.20220       -4.18120      -18.57340
H          4.47360       -4.47190      -18.35760
H          5.58430       -5.83560      -18.53310
H         -1.57820        6.02160      -13.78290
H         -1.41940        6.43970      -12.06550
H         -3.70530        5.59750      -12.56730
H         -3.02560        4.08320      -13.17500
H         -2.86830        4.49910      -11.46560
H          2.48680        4.05590      -15.34980
H          4.05640        3.62860      -17.38480
