173

C        -10.96780        8.11240      -12.05970
C        -10.05430        8.60770      -11.20090
C         -9.34940        7.58850      -10.49630
C         -8.35270        7.73360       -9.51930
C         -7.97300        9.03280       -8.98950
S         -6.30780        9.52070       -8.88490
C         -6.71170       11.01610       -8.11280
C         -5.64690       11.94960       -7.65400
C         -4.96690       11.41530       -6.39100
C         -8.06130       11.11650       -7.95270
Cl        -8.84470       12.45500       -7.21710
C         -8.78020        9.99670       -8.45190
Cl       -10.48360        9.85240       -8.29600
C         -7.76350        6.56860       -9.04480
C         -8.16720        5.27390       -9.45080
C         -9.21560        5.12840      -10.37490
C         -9.70970        3.81400      -10.74690
S         -9.86880        3.33620      -12.41090
C        -10.47720        1.77330      -11.98540
C        -10.79450        0.75850      -13.02730
C         -9.54090       -0.02070      -13.43250
C        -10.54240        1.64320      -10.63020
C        -10.11270        2.79810       -9.92380
Cl       -10.18440        2.91000       -8.21180
Cl       -11.09950        0.23060       -9.83050
C         -9.76070        6.29550      -10.89810
S        -11.03460        6.38370      -12.08230
C         -7.39840        4.26010       -8.82300
C         -6.46950        4.74610       -7.95400
S         -6.48530        6.49700       -7.86860
C         -5.55600        4.03040       -7.12560
C         -4.54750        4.56840       -6.38380
C         -3.85450        3.61910       -5.59680
C         -2.77370        3.84310       -4.72600
C         -2.27120        5.18520       -4.48780
S         -0.58090        5.56110       -4.64390
C         -0.83410        7.22580       -4.24740
C          0.28930        8.20280       -4.25480
C          0.48950        8.79470       -5.65210
C         -2.15600        7.46140       -4.01270
Cl        -2.79540        8.99990       -3.60050
C         -2.97320        6.30680       -4.13830
Cl        -4.65500        6.33190       -3.79020
C         -2.23230        2.72960       -4.09990
C         -2.74110        1.41940       -4.27850
C         -3.81190        1.19470       -5.16300
C         -4.31100       -0.14640       -5.41130
S         -6.00330       -0.52560       -5.29210
C         -5.74130       -2.18260       -5.71310
C         -6.86370       -3.16010       -5.73930
C         -7.09470       -3.76240       -4.35100
C         -4.41510       -2.41370       -5.92900
C         -3.60120       -1.26200       -5.76350
Cl        -1.91120       -1.27680       -6.06620
Cl        -3.77010       -3.94120       -6.37140
C         -4.35600        2.30860       -5.78850
S         -5.68090        2.29540       -6.92050
C         -2.08350        0.48220       -3.44440
C         -1.09410        1.03060       -2.68380
S         -0.92500        2.75450       -2.95240
C         -0.24980        0.37870       -1.73970
C          0.74590        0.94190       -0.99750
C          1.39560        0.02620       -0.13700
C          2.48010        0.26830        0.72520
C          3.14830        1.55830        0.73730
S          3.42240        2.43580        2.21270
C          4.20270        3.73900        1.38430
C          4.67600        4.94880        2.11150
C          3.56800        6.00120        2.20070
C          4.23770        3.49520        0.04370
Cl         4.93580        4.56300       -1.10370
C          3.64630        2.25860       -0.32730
Cl         3.64660        1.68720       -1.94650
C          2.88630       -0.78230        1.53370
C          2.29300       -2.06810        1.48670
C          1.24190       -2.32390        0.58750
C          0.64250       -3.64480        0.48880
S          1.62170       -5.04940        0.18000
C          0.24980       -6.10490        0.17890
C          0.41090       -7.57460        0.00630
C          0.83810       -8.23450        1.31950
C         -0.88970       -5.39700        0.41650
C         -0.67300       -4.00250        0.58660
Cl        -1.94420       -2.91790        0.96590
Cl        -2.45310       -6.09960        0.50320
C          0.81610       -1.26520       -0.20400
S         -0.44640       -1.32800       -1.40060
C          2.87260       -2.95220        2.42700
C          3.88300       -2.39230        3.15580
S          4.17600       -0.72220        2.70110
C          4.64680       -2.98440        4.19540
C          5.66530       -2.40370        4.92730
C          6.17180       -3.25960        5.89850
C          5.53740       -4.50220        5.91050
S          4.31350       -4.62760        4.71340
C          6.09260       -5.29190        6.94260
C          7.08350       -4.55800        7.59350
C          7.22110       -3.20160        6.96850
C          7.66780       -5.25040        8.64790
C          7.12800       -6.51390        8.81090
S          5.87670       -6.85330        7.62730
C          7.45890       -7.47570        9.79690
C          6.92300       -8.73890        9.97170
C          7.46880       -9.39840       11.06740
C          8.42740       -8.63840       11.73680
S          8.66960       -7.10030       11.01380
C          8.90990       -9.37330       12.84240
C          8.26360      -10.60740       12.88560
C          7.29410      -10.72500       11.74650
C          8.66690      -11.39310       13.96060
C          9.61850      -10.76540       14.74300
S         10.02790       -9.17130       14.13110
C         10.23880      -11.25210       15.92170
C         11.18010      -10.61760       16.70950
C         11.55750      -11.38790       17.80650
C         10.90440      -12.61530       17.85810
S          9.81520      -12.83670       16.55000
C         11.34440      -13.32350       19.00570
C         12.27580      -12.54970       19.68450
C         12.49130      -11.24690       18.97270
C         12.75880      -13.18070       20.84030
C         12.19220      -14.40860       21.01650
S         11.05650      -14.82900       19.78160
H        -11.62660        8.65730      -12.70710
H         -9.86400        9.65680      -11.07000
H         -4.90130       12.06910       -8.44270
H         -6.09790       12.92180       -7.44870
H         -5.69220       11.30620       -5.58870
H         -4.18890       12.10070       -6.06560
H         -4.51880       10.44380       -6.58620
H        -11.21120        1.25780      -13.90350
H        -11.54040        0.06870      -12.62820
H         -9.78860       -0.75740      -14.19180
H         -8.79010        0.65610      -13.83310
H         -9.12210       -0.53470      -12.57110
H         -7.51480        3.20950       -9.01770
H         -4.30570        5.61480       -6.41540
H          1.20520        7.70260       -3.93660
H          0.06240        9.00380       -3.54860
H          0.71930        8.00710       -6.36550
H         -0.41300        9.30630       -5.97700
H          1.30990        9.50710       -5.64150
H         -6.62020       -3.95550       -6.44630
H         -7.77280       -2.65830       -6.07430
H         -6.19990       -4.27670       -4.00980
H         -7.33990       -2.98010       -3.63670
H         -7.91470       -4.47450       -4.38470
H         -2.34300       -0.55930       -3.38870
H          0.98990        1.98700       -1.05760
H          4.99230        4.66610        3.11660
H          5.53210        5.36630        1.57770
H          3.25260        6.30050        1.20450
H          3.92830        6.87860        2.73090
H          2.70850        5.59960        2.73190
H          1.16400       -7.77030       -0.75920
H         -0.54110       -7.99400       -0.32350
H          0.94870       -9.30640        1.18000
H          1.78830       -7.82580        1.65540
H          0.09190       -8.05830        2.09020
H          2.54940       -3.96680        2.57370
H          6.00090       -1.39820        4.74570
H          8.21840       -3.04430        6.55260
H          7.02950       -2.40110        7.68570
H          8.44720       -4.87210        9.28510
H          6.16630       -9.13720        9.31920
H          7.54310      -11.55700       11.08440
H          6.27040      -10.87270       12.09610
H          8.29600      -12.37720       14.18540
H         11.55830       -9.63770       16.47790
H         13.52760      -11.12260       18.65140
H         12.23210      -10.39100       19.59940
H         13.48490      -12.76040       21.51260
H         12.37010      -15.10950       21.80760
