118

C         -2.00690       12.24060       -9.51820
C         -1.20330       11.45040      -10.28620
C         -1.63360       10.11550      -10.28030
C         -2.76490        9.92440       -9.49910
S         -3.30740       11.38150       -8.76860
C         -3.12500        8.55260       -9.53370
C         -2.22110        7.86940      -10.34140
C         -1.19390        8.81690      -10.88970
C         -2.48260        6.50400      -10.41610
C         -3.58450        6.13830       -9.66250
S         -4.31470        7.51660       -8.85970
C         -4.09230        4.82940       -9.44760
C         -3.59070        3.63730       -9.94300
C         -4.26660        2.53020       -9.44180
C         -5.29780        2.87140       -8.56760
S         -5.45070        4.57000       -8.36860
C         -5.84250        1.68990       -8.01550
C         -5.15780        0.58960       -8.52910
C         -4.12930        1.03790       -9.52550
C         -5.52750       -0.60860       -7.92800
C         -6.49390       -0.43390       -6.95390
S         -6.98970        1.24730       -6.81550
C         -6.92820       -1.37610       -5.98730
C         -7.85330       -1.19470       -4.97500
C         -7.81620       -2.21790       -4.03270
C         -6.86430       -3.19220       -4.32890
S         -6.04550       -2.88620       -5.80760
C         -6.69970       -4.03200       -3.20480
C         -7.55100       -3.60430       -2.18750
C         -8.40870       -2.47240       -2.67630
C         -7.26340       -4.19370       -0.95940
C         -6.18530       -5.05570       -1.02800
S         -5.57370       -5.21240       -2.66990
C         -5.38030       -5.52240        0.04760
C         -4.17490       -6.15740       -0.04310
C         -3.40070       -6.09130        1.14200
C         -2.05560       -6.44960        1.30770
C         -1.31280       -7.23600        0.27060
C         -1.69160       -8.71630        0.34100
C         -1.44290       -5.99190        2.45810
C         -2.11810       -5.27220        3.47740
C         -3.49620       -5.03460        3.37120
C         -4.25960       -4.27950        4.41820
C         -4.17970       -2.77100        4.17360
C         -4.08620       -5.41260        2.18150
S         -5.69980       -4.95760        1.68110
C         -1.21540       -4.73880        4.43230
C          0.09600       -4.99510        4.15160
S          0.27590       -6.04640        2.76090
C          1.24800       -4.35580        4.70420
C          1.27310       -3.29460        5.56270
C          2.55180       -2.69610        5.69700
C          2.89260       -1.53090        6.39790
C          1.90840       -0.81090        7.27010
C          1.79400       -1.49120        8.63530
C          4.18900       -1.08060        6.24230
C          5.16310       -1.73930        5.44850
C          4.83380       -2.92730        4.78190
C          5.83650       -3.68650        3.96590
C          6.71240       -4.56340        4.86240
C          3.53020       -3.36430        4.91700
S          2.84130       -4.73440        4.08250
C          6.38030       -1.01370        5.39800
C          6.35620        0.15670        6.10180
S          4.82570        0.39730        6.92070
C          7.37070        1.15490        6.17310
C          8.59990        1.15650        5.54130
C          9.31050        2.33190        5.77330
C          8.62390        3.22850        6.58590
S          7.09500        2.62970        7.07820
C          9.41140        4.39840        6.74650
C         10.59460        4.24850        6.03700
C         10.63170        2.91100        5.35850
C         11.42670        5.37360        6.13530
C         10.86630        6.34650        6.90940
S          9.31330        5.91930        7.53880
H         -1.91800       13.29360       -9.33870
H         -0.34770       11.81900      -10.82290
H         -0.18290        8.54260      -10.58110
H         -1.21170        8.85100      -11.98110
H         -1.89970        5.79950      -10.98040
H         -2.75690        3.59010      -10.61880
H         -3.12600        0.70310       -9.25550
H         -4.34720        0.66510      -10.52890
H         -5.10150       -1.57150       -8.14780
H         -8.48010       -0.32230       -4.92030
H         -8.34220       -1.59770       -2.02770
H         -9.46050       -2.76050       -2.74350
H         -7.75930       -3.96860       -0.03170
H         -3.81780       -6.57170       -0.96930
H         -0.23940       -7.12850        0.44090
H         -1.53990       -6.84880       -0.72470
H         -1.44700       -9.12090        1.32050
H         -1.14880       -9.28130       -0.41280
H         -2.75850       -8.84500        0.17270
H         -5.30650       -4.59020        4.38640
H         -3.86320       -4.51460        5.40740
H         -3.14510       -2.43570        4.18370
H         -4.60940       -2.52580        3.20530
H         -4.72980       -2.23400        4.94260
H         -1.52380       -4.12650        5.25960
H          0.38960       -2.91510        6.04230
H          0.92930       -0.78970        6.78770
H          2.24150        0.22010        7.40840
H          1.07690       -0.96520        9.26090
H          2.75880       -1.48880        9.13710
H          1.46860       -2.52300        8.52130
H          5.30790       -4.31930        3.24950
H          6.46480       -2.99090        3.40640
H          7.43850       -5.10920        4.26480
H          7.24450       -3.95380        5.58940
H          6.09730       -5.28090        5.40060
H          7.23750       -1.33490        4.83570
H          8.94890        0.33990        4.93630
H         10.71110        3.00570        4.27340
H         11.47030        2.30180        5.70220
H         12.38780        5.47150        5.66340
H         11.27230        7.30720        7.15610
