131

C          1.32330       12.65770        8.31910
C          1.67800       11.62490        9.13590
C          2.38950       10.63660        8.43960
C          2.55800       10.94830        7.09790
S          1.84560       12.45530        6.68320
C          3.27230        9.89780        6.46470
C          3.55990        8.91660        7.40840
C          3.02110        9.31220        8.75230
C          4.24500        7.83020        6.86940
C          4.47900        7.97860        5.51530
S          3.84870        9.49400        4.90170
C          5.08870        7.04340        4.62990
C          5.56990        5.80020        4.92740
C          6.02240        5.07390        3.79670
C          6.50100        3.75770        3.74700
C          6.70740        2.93800        4.98520
C          8.04560        3.27790        5.64350
C          6.77580        3.25320        2.49060
C          6.62100        3.99520        1.29160
C          6.17990        5.32490        1.34480
C          6.04010        6.16610        0.11180
C          7.39610        6.72870       -0.31770
C          5.88290        5.82140        2.59910
S          5.22260        7.40600        2.92070
C          6.86430        3.19790        0.14410
C          7.16730        1.89790        0.43010
S          7.25830        1.60950        2.15550
C          7.21190        0.79510       -0.47730
C          7.04810        0.81780       -1.83290
C          6.80670       -0.45960       -2.40050
C          6.42700       -0.76310       -3.71750
C          6.46400        0.26300       -4.80940
C          7.89330        0.46000       -5.31730
C          5.97510       -2.04880       -3.93840
C          5.95280       -3.05700       -2.94010
C          6.45740       -2.79010       -1.66150
C          6.45630       -3.81970       -0.57170
C          5.12050       -3.82660        0.17500
C          6.82870       -1.48160       -1.41810
S          7.21460       -0.83810        0.15670
C          5.22650       -4.19930       -3.35860
C          4.67220       -4.07750       -4.59970
S          5.17600       -2.59440       -5.39790
C          3.58820       -4.83400       -5.12630
C          2.89630       -4.63100       -6.30440
C          1.66110       -5.27650       -6.31240
C          1.41530       -5.98190       -5.13670
S          2.72930       -5.91490       -4.03640
C          0.05570       -6.36510       -5.10220
C         -0.57510       -5.91160       -6.25850
C          0.42860       -5.26620       -7.17160
C         -1.96230       -6.02370       -6.19370
C         -2.39160       -6.54220       -4.98740
S         -1.04920       -6.97310       -3.93910
C         -3.70870       -6.54660       -4.45150
C         -4.07590       -6.87340       -3.17810
C         -5.40690       -6.51370       -2.85330
C         -6.04430       -6.60600       -1.60890
C         -5.37010       -7.20700       -0.41240
C         -4.49740       -6.17000        0.29770
C         -7.29640       -6.03040       -1.52130
C         -7.95900       -5.41240       -2.61200
C         -7.34130       -5.36670       -3.87030
C         -8.01920       -4.76380       -5.06350
C         -8.99650       -5.75880       -5.69160
C         -6.07370       -5.90930       -3.94960
S         -5.04070       -5.85300       -5.36060
C         -9.20050       -4.84900       -2.22150
C         -9.48460       -5.00260       -0.89600
S         -8.23870       -5.90790       -0.05550
C        -10.58940       -4.48200       -0.16690
C        -10.82440       -4.57860        1.18920
C        -11.97090       -3.88790        1.57760
C        -12.61370       -3.26520        0.51320
S        -11.81490       -3.52670       -0.98300
C        -13.75170       -2.57340        1.00380
C        -13.83210       -2.75360        2.37750
C        -12.70160       -3.61400        2.85910
C        -14.92950       -2.08790        2.94350
C        -15.65440       -1.42190        1.99980
S        -15.02160       -1.58740        0.39890
H          0.77690       13.54320        8.57640
H          1.43410       11.58570       10.18230
H          3.81300        9.40330        9.49870
H          2.29190        8.59030        9.12630
H          4.55530        6.96530        7.42640
H          5.57590        5.40390        5.92590
H          5.89470        3.11860        5.69120
H          6.69680        1.87890        4.71780
H          8.86380        3.07110        4.95750
H          8.08130        4.33120        5.91300
H          8.18760        2.68170        6.54170
H          5.35690        6.99270        0.31920
H          5.61670        5.57050       -0.69920
H          8.09590        5.92190       -0.52410
H          7.28730        7.33540       -1.21350
H          7.81140        7.34960        0.47270
H          6.76360        3.56250       -0.86170
H          7.03540        1.72980       -2.40090
H          6.07250        1.21360       -4.44180
H          5.82980       -0.06980       -5.63400
H          8.54280        0.78960       -4.50950
H          7.91420        1.20530       -6.10890
H          8.28390       -0.47530       -5.71150
H          7.25750       -3.58900        0.13440
H          6.64660       -4.80730       -0.99510
H          5.13200       -4.57920        0.95960
H          4.94020       -2.85540        0.62950
H          4.30140       -4.04500       -0.50640
H          5.03320       -5.04930       -2.72860
H          3.26660       -3.98860       -7.08350
H          0.57050       -5.84280       -8.08880
H          0.13410       -4.25460       -7.45480
H         -2.64910       -5.69800       -6.95480
H         -3.38390       -7.30860       -2.47910
H         -6.13310       -7.56780        0.28140
H         -4.75650       -8.05590       -0.71840
H         -5.10670       -5.33350        0.63220
H         -3.73140       -5.79020       -0.37460
H         -4.01250       -6.61400        1.16370
H         -7.26250       -4.48720       -5.80130
H         -8.55590       -3.86000       -4.76930
H         -8.46720       -6.65290       -6.01300
H         -9.48430       -5.31480       -6.55590
H         -9.75840       -6.05020       -4.97210
H         -9.85870       -4.32050       -2.88800
H        -10.17280       -5.12410        1.84850
H        -12.07080       -3.09300        3.58250
H        -13.05830       -4.53280        3.32930
H        -15.17920       -2.09210        3.98930
H        -16.53730       -0.83140        2.14270
