227

C          2.56590       -9.88120        6.15640
C          2.59930       -8.55550        5.90920
C          1.54500       -8.12310        5.05230
C          1.30470       -6.83480        4.54050
C          2.13960       -5.70650        4.92320
S          2.48320       -5.38050        6.59950
C          3.50810       -4.03850        6.22130
C          4.23500       -3.28830        7.28480
C          3.61610       -1.91850        7.57000
C          3.54400       -3.84680        4.87210
Cl         4.45550       -2.61490        4.09920
C          2.77630       -4.78710        4.13310
Cl         2.78550       -4.79760        2.41870
C          0.24730       -6.70490        3.64640
C         -0.56760       -7.79440        3.24830
C         -0.34290       -9.07340        3.78040
C         -1.18020      -10.20100        3.40590
S         -1.43650      -10.61970        1.73710
C         -2.46940      -11.94700        2.14430
C         -3.13590      -12.74970        1.08270
C         -4.31950      -11.98430        0.48540
C         -2.59920      -12.04590        3.49710
C         -1.86520      -11.06340        4.21590
Cl        -1.92960      -10.93890        5.92350
Cl        -3.55280      -13.23530        4.28510
C          0.71810       -9.20630        4.66840
S          1.26000      -10.69960        5.37800
C         -1.56990       -7.40030        2.32690
C         -1.53830       -6.07360        2.02420
S         -0.27790       -5.22790        2.89450
C         -2.33590       -5.36710        1.07770
C         -2.28760       -4.03610        0.79670
C         -3.15720       -3.65030       -0.25060
C         -3.28700       -2.38290       -0.83290
C         -2.48820       -1.24290       -0.41380
S         -1.53090       -0.40590       -1.60340
C         -0.90030        0.69930       -0.43740
C          0.07900        1.75140       -0.81760
C         -0.10710        2.24690       -2.24600
C         -1.40940        0.42570        0.79800
Cl        -1.01590        1.32670        2.20490
C         -2.30380       -0.67820        0.81660
Cl        -3.12250       -1.18000        2.23620
C         -4.13220       -2.28810       -1.93070
C         -4.81150       -3.38560       -2.50790
C         -4.69580       -4.65210       -1.90670
C         -5.34280       -5.82930       -2.46210
S         -5.12910       -6.26600       -4.13280
C         -6.06840       -7.70940       -3.96040
C         -6.33910       -8.59570       -5.12540
C         -7.47530       -8.03700       -5.98530
C         -6.52480       -7.82500       -2.68180
C         -6.11200       -6.76600       -1.82860
Cl        -6.62220       -6.65750       -0.19650
Cl        -7.49650       -9.12510       -2.12490
C         -3.88100       -4.74810       -0.78110
S         -3.48110       -6.21950        0.06160
C         -5.53180       -3.00470       -3.68250
C         -5.44030       -1.68390       -3.95900
S         -4.46060       -0.81670       -2.77970
C         -5.82540       -0.78380       -5.02920
C         -6.53340        0.35880       -4.83730
C         -6.17280        1.40930       -5.72140
C         -6.48720        2.77060       -5.57060
C         -7.50360        3.28180       -4.66820
S         -7.63030        2.78810       -3.00460
C         -8.87550        3.93920       -2.66630
C         -9.52250        4.00690       -1.32780
C        -10.76160        3.11020       -1.27280
C         -9.17170        4.65440       -3.78780
Cl       -10.36760        5.88230       -3.84730
C         -8.38550        4.29870       -4.91620
Cl        -8.58150        5.03930       -6.44870
C         -5.59350        3.66170       -6.15270
C         -4.51630        3.26380       -6.97410
C         -4.40450        1.91210       -7.37270
C         -3.43270        1.52980       -8.36790
S         -2.51290        0.05450       -8.28800
C         -1.68920        0.39280       -9.77110
C         -0.71330       -0.57330      -10.34480
C         -1.43530       -1.69170      -11.10030
C         -2.12240        1.57400      -10.29780
C         -3.10210        2.22550       -9.50590
Cl        -3.84250        3.69110      -10.00100
Cl        -1.54860        2.23030      -11.77620
C         -5.17230        1.00720       -6.64010
S         -4.82410       -0.69720       -6.47490
C         -3.45980        4.21790       -6.95660
C         -3.70040        5.26080       -6.10930
S         -5.37440        5.28890       -5.56720
C         -2.74300        5.90520       -5.25460
C         -2.95900        5.93380       -3.90740
C         -1.78530        6.09350       -3.14130
C         -1.65380        5.80590       -1.77280
C         -2.80220        5.35510       -1.00310
S         -2.76850        3.78230       -0.25370
C         -4.42520        3.88370        0.22640
C         -5.07470        2.73840        0.92030
C         -5.26430        1.55600       -0.03220
C         -4.95810        5.07440       -0.16750
Cl        -6.58210        5.54530        0.12180
C         -4.04280        5.91120       -0.86390
Cl        -4.46320        7.48130       -1.41850
C         -0.36120        5.74050       -1.27910
C          0.79140        5.99960       -2.06120
C          0.64970        6.30280       -3.43100
C          1.79590        6.52120       -4.29530
S          3.14890        5.42750       -4.33190
C          3.96010        6.34070       -5.55770
C          5.31170        5.94540       -6.04020
C          6.39150        6.35060       -5.03390
C          3.21700        7.42910       -5.90430
C          1.98620        7.52900       -5.20100
Cl         0.90640        8.84010       -5.42450
Cl         3.69820        8.58310       -7.07910
C         -0.64260        6.29420       -3.95030
S         -1.07190        6.24500       -5.64860
C          1.98360        5.75180       -1.32500
C          1.75400        5.26940       -0.07260
S          0.04950        5.21770        0.32280
C          2.65730        4.63100        0.84330
C          3.94720        4.89460        1.18410
C          4.50350        3.92660        2.06560
C          5.77690        3.89360        2.66330
C          6.76360        4.92690        2.39520
S          7.21090        5.34060        0.76520
C          8.35520        6.52660        1.29330
C          9.18950        7.28480        0.32080
C         10.46090        6.50920       -0.03210
C          8.38200        6.58210        2.65430
Cl         9.39200        7.64290        3.54740
C          7.47950        5.68130        3.28250
Cl         7.26780        5.63590        4.98190
C          6.05410        2.82190        3.50430
C          5.13860        1.76360        3.74430
C          3.88050        1.78330        3.13140
C          2.92750        0.67920        3.18430
S          2.06390        0.19020        4.60770
C          1.13830       -0.98970        3.73930
C          0.04880       -1.77990        4.37580
C          0.28010       -2.03650        5.85760
C          1.50680       -1.00330        2.42760
C          2.51420       -0.05720        2.11010
Cl         3.17740        0.10170        0.53630
Cl         0.81990       -2.04320        1.24880
C          3.58510        2.88880        2.34760
S          2.05170        3.16850        1.59680
C          5.68240        0.75910        4.57570
C          6.96910        1.00850        4.96120
S          7.56690        2.52160        4.31000
C          7.79260        0.19150        5.78530
C          7.48510       -1.06490        6.27330
C          8.51100       -1.59250        7.05080
C          9.60450       -0.73620        7.15510
S          9.37860        0.72900        6.29530
C         10.59740       -1.35670        7.95720
C         10.13880       -2.60280        8.36220
C          8.76440       -2.85790        7.81720
C         11.06880       -3.28380        9.16100
C         12.20390       -2.55020        9.34540
S         12.17090       -1.01410        8.55410
H          3.24090      -10.45330        6.76230
H          3.35160       -7.90040        6.30710
H          4.23680       -3.88470        8.19840
H          5.27040       -3.15480        6.96090
H          2.61760       -2.03110        7.98350
H          4.22970       -1.37950        8.28690
H          3.54830       -1.32890        6.65990
H         -3.48460      -13.68650        1.52010
H         -2.41760      -12.97800        0.29270
H         -4.79870      -12.58020       -0.28660
H         -5.05210      -11.76020        1.25670
H         -3.98160      -11.04890        0.04500
H         -2.28770       -8.07200        1.89320
H         -1.63020       -3.35690        1.30700
H         -0.02900        2.57840       -0.11420
H          1.09110        1.35140       -0.70400
H          0.01210        1.42790       -2.95160
H         -1.09940        2.67290       -2.37540
H          0.63200        3.01080       -2.47490
H         -5.43620       -8.68460       -5.73230
H         -6.61140       -9.58530       -4.75470
H         -8.38620       -7.95300       -5.39800
H         -7.66400       -8.69570       -6.82850
H         -7.21220       -7.05190       -6.36350
H         -6.09160       -3.69600       -4.28520
H         -7.20390        0.48630       -4.00780
H         -9.81210        5.04090       -1.13030
H         -8.80880        3.69220       -0.56530
H        -11.48530        3.42100       -2.02180
H        -10.48770        2.07470       -1.46120
H        -11.22510        3.17590       -0.29220
H         -0.04930       -0.03880      -11.02630
H         -0.11680       -1.00680       -9.54010
H         -2.10000       -2.23020      -10.42900
H         -2.02370       -1.27730      -11.91500
H         -0.71260       -2.39040      -11.51290
H         -2.49340        4.03340       -7.39120
H         -3.91610        5.71710       -3.47270
H         -4.44910        2.42470        1.75910
H         -6.04040        3.06460        1.30920
H         -4.30510        1.24060       -0.43620
H         -5.70950        0.71780        0.49680
H         -5.91250        1.83140       -0.86080
H          5.34370        4.86430       -6.18850
H          5.49700        6.43610       -6.99700
H          6.21920        5.86100       -4.07810
H          6.37980        7.42700       -4.88190
H          7.37200        6.06160       -5.40250
H          2.97270        5.85380       -1.73120
H          4.47900        5.76050        0.83530
H          8.61170        7.46850       -0.58670
H          9.45950        8.24430        0.76580
H         11.05850        7.07540       -0.74130
H         10.20670        5.54960       -0.47600
H         11.05410        6.33280        0.86150
H         -0.89220       -1.23540        4.24350
H         -0.04390       -2.72760        3.84060
H          0.36490       -1.09580        6.39750
H         -0.54990       -2.60300        6.27130
H          1.19430       -2.60450        6.00280
H          5.12910       -0.11060        4.87410
H          6.55920       -1.56000        6.04860
H          8.73840       -3.73760        7.17060
H          8.03130       -3.00650        8.61320
H         10.92000       -4.26200        9.58150
H         13.07640       -2.81850        9.90710
