
  xtb     03032200553D
 energy: -281.229876671784 gnorm: 0.000219790986 xtb: 6.4.1 (unknown)
146167  0     0  0            999 V2000
    1.8635   -0.8601   21.1275 C   0  0  0  0  0  0  0  0  0  0  0  0
    2.0479    0.4741   20.9127 C   0  0  0  0  0  0  0  0  0  0  0  0
    2.0095    0.7869   19.5459 C   0  0  0  0  0  0  0  0  0  0  0  0
    1.7946   -0.3306   18.7509 C   0  0  0  0  0  0  0  0  0  0  0  0
    1.6383   -1.7700   19.6751 S   0  0  0  0  0  0  0  0  0  0  0  0
    1.7703    0.0686   17.3895 C   0  0  0  0  0  0  0  0  0  0  0  0
    1.9707    1.4444   17.3194 C   0  0  0  0  0  0  0  0  0  0  0  0
    2.1392    2.0162   18.6963 C   0  0  0  0  0  0  0  0  0  0  0  0
    1.9637    1.9254   16.0124 C   0  0  0  0  0  0  0  0  0  0  0  0
    1.7599    0.9212   15.0873 C   0  0  0  0  0  0  0  0  0  0  0  0
    1.5699   -0.6495   15.8453 S   0  0  0  0  0  0  0  0  0  0  0  0
    1.6881    1.0398   13.6731 C   0  0  0  0  0  0  0  0  0  0  0  0
    1.5011    0.0455   12.7567 C   0  0  0  0  0  0  0  0  0  0  0  0
    1.4571    0.5061   11.4199 C   0  0  0  0  0  0  0  0  0  0  0  0
    1.2342   -0.2407   10.2504 C   0  0  0  0  0  0  0  0  0  0  0  0
    0.9406   -1.6630   10.3102 C   0  0  0  0  0  0  0  0  0  0  0  0
    1.8475   -2.8232    9.3873 S   0  0  0  0  0  0  0  0  0  0  0  0
    0.9046   -4.1470    9.9801 C   0  0  0  0  0  0  0  0  0  0  0  0
    1.2124   -5.5512    9.5926 C   0  0  0  0  0  0  0  0  0  0  0  0
    2.2551   -6.1623   10.5319 C   0  0  0  0  0  0  0  0  0  0  0  0
   -0.0496   -3.7004   10.8449 C   0  0  0  0  0  0  0  0  0  0  0  0
   -1.1809   -4.7228   11.6323 Cl  0  0  0  0  0  0  0  0  0  0  0  0
   -0.0353   -2.2927   11.0318 C   0  0  0  0  0  0  0  0  0  0  0  0
   -1.1888   -1.4777   12.0075 Cl  0  0  0  0  0  0  0  0  0  0  0  0
    1.2718    0.4456    9.0453 C   0  0  0  0  0  0  0  0  0  0  0  0
    1.4847    1.8427    8.9559 C   0  0  0  0  0  0  0  0  0  0  0  0
    1.6942    2.5930   10.1279 C   0  0  0  0  0  0  0  0  0  0  0  0
    1.9112    4.0302   10.0798 C   0  0  0  0  0  0  0  0  0  0  0  0
    0.7686    5.0925    9.3102 S   0  0  0  0  0  0  0  0  0  0  0  0
    1.6890    6.5039    9.7101 C   0  0  0  0  0  0  0  0  0  0  0  0
    1.2565    7.8573    9.2653 C   0  0  0  0  0  0  0  0  0  0  0  0
    1.6223    8.0936    7.7982 C   0  0  0  0  0  0  0  0  0  0  0  0
    2.8171    6.1538   10.3886 C   0  0  0  0  0  0  0  0  0  0  0  0
    2.9436    4.7547   10.6055 C   0  0  0  0  0  0  0  0  0  0  0  0
    4.3096    4.0661   11.3778 Cl  0  0  0  0  0  0  0  0  0  0  0  0
    3.9886    7.2780   10.9439 Cl  0  0  0  0  0  0  0  0  0  0  0  0
    1.6717    1.9045   11.3324 C   0  0  0  0  0  0  0  0  0  0  0  0
    1.8479    2.6129   12.9128 S   0  0  0  0  0  0  0  0  0  0  0  0
    1.4580    2.2977    7.6163 C   0  0  0  0  0  0  0  0  0  0  0  0
    1.2158    1.3066    6.7060 C   0  0  0  0  0  0  0  0  0  0  0  0
    1.0193   -0.2570    7.4745 S   0  0  0  0  0  0  0  0  0  0  0  0
    1.1070    1.4245    5.2918 C   0  0  0  0  0  0  0  0  0  0  0  0
    1.1156    2.5837    4.5359 C   0  0  0  0  0  0  0  0  0  0  0  0
    0.9724    2.3262    3.1766 C   0  0  0  0  0  0  0  0  0  0  0  0
    0.8584    0.9655    2.8922 C   0  0  0  0  0  0  0  0  0  0  0  0
    0.9222   -0.0082    4.3018 S   0  0  0  0  0  0  0  0  0  0  0  0
    0.7132    0.7980    1.4955 C   0  0  0  0  0  0  0  0  0  0  0  0
    0.7285    2.0502    0.8828 C   0  0  0  0  0  0  0  0  0  0  0  0
    0.8985    3.1293    1.9111 C   0  0  0  0  0  0  0  0  0  0  0  0
    0.5809    1.9767   -0.4989 C   0  0  0  0  0  0  0  0  0  0  0  0
    0.4568    0.6743   -0.9431 C   0  0  0  0  0  0  0  0  0  0  0  0
    0.5250   -0.4845    0.3717 S   0  0  0  0  0  0  0  0  0  0  0  0
    0.2847    0.2194   -2.2778 C   0  0  0  0  0  0  0  0  0  0  0  0
    0.1913   -1.0713   -2.7140 C   0  0  0  0  0  0  0  0  0  0  0  0
    0.0163   -1.1872   -4.1122 C   0  0  0  0  0  0  0  0  0  0  0  0
   -0.1534   -2.3609   -4.8694 C   0  0  0  0  0  0  0  0  0  0  0  0
   -0.0155   -3.6705   -4.2570 C   0  0  0  0  0  0  0  0  0  0  0  0
   -1.2347   -4.8976   -4.4287 S   0  0  0  0  0  0  0  0  0  0  0  0
   -0.3357   -6.0332   -3.4820 C   0  0  0  0  0  0  0  0  0  0  0  0
   -0.8802   -7.3829   -3.1681 C   0  0  0  0  0  0  0  0  0  0  0  0
   -1.7215   -7.3495   -1.8898 C   0  0  0  0  0  0  0  0  0  0  0  0
    0.8357   -5.4779   -3.0612 C   0  0  0  0  0  0  0  0  0  0  0  0
    1.9948   -6.3038   -2.1024 Cl  0  0  0  0  0  0  0  0  0  0  0  0
    1.0231   -4.1407   -3.5010 C   0  0  0  0  0  0  0  0  0  0  0  0
    2.4549   -3.2528   -3.1719 Cl  0  0  0  0  0  0  0  0  0  0  0  0
   -0.4488   -2.2042   -6.2155 C   0  0  0  0  0  0  0  0  0  0  0  0
   -0.5294   -0.9393   -6.8476 C   0  0  0  0  0  0  0  0  0  0  0  0
   -0.3003    0.2325   -6.1024 C   0  0  0  0  0  0  0  0  0  0  0  0
   -0.3610    1.5451   -6.7235 C   0  0  0  0  0  0  0  0  0  0  0  0
   -1.7572    2.0485   -7.6314 S   0  0  0  0  0  0  0  0  0  0  0  0
   -1.0790    3.6053   -7.9662 C   0  0  0  0  0  0  0  0  0  0  0  0
   -1.8016    4.5904   -8.8170 C   0  0  0  0  0  0  0  0  0  0  0  0
   -1.6434    4.2517  -10.3012 C   0  0  0  0  0  0  0  0  0  0  0  0
    0.1589    3.7102   -7.4072 C   0  0  0  0  0  0  0  0  0  0  0  0
    0.5665    2.5488   -6.6963 C   0  0  0  0  0  0  0  0  0  0  0  0
    2.1091    2.4164   -5.9618 Cl  0  0  0  0  0  0  0  0  0  0  0  0
    1.1516    5.1044   -7.5332 Cl  0  0  0  0  0  0  0  0  0  0  0  0
   -0.0427    0.0782   -4.7471 C   0  0  0  0  0  0  0  0  0  0  0  0
    0.1565    1.3692   -3.5964 S   0  0  0  0  0  0  0  0  0  0  0  0
   -0.8156   -1.0560   -8.2278 C   0  0  0  0  0  0  0  0  0  0  0  0
   -0.9650   -2.3460   -8.6507 C   0  0  0  0  0  0  0  0  0  0  0  0
   -0.7301   -3.4975   -7.3471 S   0  0  0  0  0  0  0  0  0  0  0  0
   -1.2931   -2.8022   -9.9544 C   0  0  0  0  0  0  0  0  0  0  0  0
   -1.4472   -4.1070  -10.3822 C   0  0  0  0  0  0  0  0  0  0  0  0
   -1.8040   -4.1838  -11.7243 C   0  0  0  0  0  0  0  0  0  0  0  0
   -1.9241   -2.9310  -12.3250 C   0  0  0  0  0  0  0  0  0  0  0  0
   -1.5920   -1.6444  -11.2390 S   0  0  0  0  0  0  0  0  0  0  0  0
   -2.3042   -3.1024  -13.6754 C   0  0  0  0  0  0  0  0  0  0  0  0
   -2.4289   -4.4641  -13.9439 C   0  0  0  0  0  0  0  0  0  0  0  0
   -2.1118   -5.2662  -12.7165 C   0  0  0  0  0  0  0  0  0  0  0  0
   -2.8153   -4.7250  -15.2548 C   0  0  0  0  0  0  0  0  0  0  0  0
   -2.9884   -3.5681  -15.9918 C   0  0  0  0  0  0  0  0  0  0  0  0
   -2.6628   -2.1272  -15.0435 S   0  0  0  0  0  0  0  0  0  0  0  0
   -3.3839   -3.4500  -17.3486 C   0  0  0  0  0  0  0  0  0  0  0  0
   -3.5695   -2.2933  -18.0812 C   0  0  0  0  0  0  0  0  0  0  0  0
   -3.9667   -2.5545  -19.3901 C   0  0  0  0  0  0  0  0  0  0  0  0
   -4.0850   -3.9144  -19.6599 C   0  0  0  0  0  0  0  0  0  0  0  0
   -3.7070   -4.8906  -18.2999 S   0  0  0  0  0  0  0  0  0  0  0  0
   -4.4927   -4.0830  -21.0080 C   0  0  0  0  0  0  0  0  0  0  0  0
   -4.6343   -2.8338  -21.5967 C   0  0  0  0  0  0  0  0  0  0  0  0
   -4.3091   -1.7512  -20.6105 C   0  0  0  0  0  0  0  0  0  0  0  0
   -5.0379   -2.9146  -22.9375 C   0  0  0  0  0  0  0  0  0  0  0  0
   -5.1938   -4.2089  -23.3382 C   0  0  0  0  0  0  0  0  0  0  0  0
   -4.8538   -5.3626  -22.0959 S   0  0  0  0  0  0  0  0  0  0  0  0
    1.8449   -1.3792   22.0651 H   0  0  0  0  0  0  0  0  0  0  0  0
    2.2026    1.1862   21.7031 H   0  0  0  0  0  0  0  0  0  0  0  0
    3.1108    2.4988   18.8205 H   0  0  0  0  0  0  0  0  0  0  0  0
    1.3687    2.7551   18.9267 H   0  0  0  0  0  0  0  0  0  0  0  0
    2.0995    2.9530   15.7250 H   0  0  0  0  0  0  0  0  0  0  0  0
    1.4067   -0.9878   13.0369 H   0  0  0  0  0  0  0  0  0  0  0  0
    0.2924   -6.1370    9.6390 H   0  0  0  0  0  0  0  0  0  0  0  0
    1.5890   -5.5691    8.5688 H   0  0  0  0  0  0  0  0  0  0  0  0
    1.8885   -6.1577   11.5552 H   0  0  0  0  0  0  0  0  0  0  0  0
    3.1799   -5.5918   10.4909 H   0  0  0  0  0  0  0  0  0  0  0  0
    2.4639   -7.1883   10.2410 H   0  0  0  0  0  0  0  0  0  0  0  0
    0.1762    7.9532    9.3890 H   0  0  0  0  0  0  0  0  0  0  0  0
    1.7485    8.6034    9.8914 H   0  0  0  0  0  0  0  0  0  0  0  0
    1.3080    9.0869    7.4896 H   0  0  0  0  0  0  0  0  0  0  0  0
    2.6973    8.0093    7.6597 H   0  0  0  0  0  0  0  0  0  0  0  0
    1.1302    7.3589    7.1651 H   0  0  0  0  0  0  0  0  0  0  0  0
    1.6190    3.3225    7.3389 H   0  0  0  0  0  0  0  0  0  0  0  0
    1.2130    3.5620    4.9690 H   0  0  0  0  0  0  0  0  0  0  0  0
    1.8066    3.7119    1.7432 H   0  0  0  0  0  0  0  0  0  0  0  0
    0.0547    3.8223    1.9172 H   0  0  0  0  0  0  0  0  0  0  0  0
    0.5628    2.8165   -1.1706 H   0  0  0  0  0  0  0  0  0  0  0  0
    0.2263   -1.9106   -2.0434 H   0  0  0  0  0  0  0  0  0  0  0  0
   -0.0465   -8.0755   -3.0372 H   0  0  0  0  0  0  0  0  0  0  0  0
   -1.4956   -7.7269   -4.0008 H   0  0  0  0  0  0  0  0  0  0  0  0
   -1.1168   -7.0172   -1.0500 H   0  0  0  0  0  0  0  0  0  0  0  0
   -2.5591   -6.6662   -2.0075 H   0  0  0  0  0  0  0  0  0  0  0  0
   -2.1073   -8.3415   -1.6707 H   0  0  0  0  0  0  0  0  0  0  0  0
   -1.3963    5.5845   -8.6211 H   0  0  0  0  0  0  0  0  0  0  0  0
   -2.8617    4.5864   -8.5564 H   0  0  0  0  0  0  0  0  0  0  0  0
   -2.0418    3.2609  -10.5066 H   0  0  0  0  0  0  0  0  0  0  0  0
   -2.1788    4.9763  -10.9086 H   0  0  0  0  0  0  0  0  0  0  0  0
   -0.5934    4.2694  -10.5821 H   0  0  0  0  0  0  0  0  0  0  0  0
   -0.9110   -0.2182   -8.8942 H   0  0  0  0  0  0  0  0  0  0  0  0
   -1.3043   -4.9464   -9.7251 H   0  0  0  0  0  0  0  0  0  0  0  0
   -2.9572   -5.8808  -12.4009 H   0  0  0  0  0  0  0  0  0  0  0  0
   -1.2586   -5.9293  -12.8735 H   0  0  0  0  0  0  0  0  0  0  0  0
   -2.9722   -5.7027  -15.6745 H   0  0  0  0  0  0  0  0  0  0  0  0
   -3.4176   -1.3152  -17.6605 H   0  0  0  0  0  0  0  0  0  0  0  0
   -5.1591   -1.0883  -20.4356 H   0  0  0  0  0  0  0  0  0  0  0  0
   -3.4695   -1.1360  -20.9408 H   0  0  0  0  0  0  0  0  0  0  0  0
   -5.2074   -2.0702  -23.5811 H   0  0  0  0  0  0  0  0  0  0  0  0
   -5.4925   -4.5683  -24.3027 H   0  0  0  0  0  0  0  0  0  0  0  0
  1  2  2  0  0  0  0
  2  3  1  0  0  0  0
  3  4  2  0  0  0  0
  4  5  1  0  0  0  0
  4  6  1  0  0  0  0
  6  7  2  0  0  0  0
  7  8  1  0  0  0  0
  7  9  1  0  0  0  0
  9 10  2  0  0  0  0
 10 11  1  0  0  0  0
 10 12  1  0  0  0  0
 12 13  2  0  0  0  0
 13 14  1  0  0  0  0
 14 15  2  0  0  0  0
 15 16  1  0  0  0  0
 16 17  1  0  0  0  0
 17 18  1  0  0  0  0
 18 19  1  0  0  0  0
 19 20  1  0  0  0  0
 18 21  2  0  0  0  0
 21 22  1  0  0  0  0
 21 23  1  0  0  0  0
 23 24  1  0  0  0  0
 15 25  1  0  0  0  0
 25 26  2  0  0  0  0
 26 27  1  0  0  0  0
 27 28  1  0  0  0  0
 28 29  1  0  0  0  0
 29 30  1  0  0  0  0
 30 31  1  0  0  0  0
 31 32  1  0  0  0  0
 30 33  2  0  0  0  0
 33 34  1  0  0  0  0
 34 35  1  0  0  0  0
 33 36  1  0  0  0  0
 27 37  2  0  0  0  0
 37 38  1  0  0  0  0
 26 39  1  0  0  0  0
 39 40  2  0  0  0  0
 40 41  1  0  0  0  0
 40 42  1  0  0  0  0
 42 43  2  0  0  0  0
 43 44  1  0  0  0  0
 44 45  2  0  0  0  0
 45 46  1  0  0  0  0
 45 47  1  0  0  0  0
 47 48  2  0  0  0  0
 48 49  1  0  0  0  0
 48 50  1  0  0  0  0
 50 51  2  0  0  0  0
 51 52  1  0  0  0  0
 51 53  1  0  0  0  0
 53 54  2  0  0  0  0
 54 55  1  0  0  0  0
 55 56  2  0  0  0  0
 56 57  1  0  0  0  0
 57 58  1  0  0  0  0
 58 59  1  0  0  0  0
 59 60  1  0  0  0  0
 60 61  1  0  0  0  0
 59 62  2  0  0  0  0
 62 63  1  0  0  0  0
 62 64  1  0  0  0  0
 64 65  1  0  0  0  0
 56 66  1  0  0  0  0
 66 67  2  0  0  0  0
 67 68  1  0  0  0  0
 68 69  1  0  0  0  0
 69 70  1  0  0  0  0
 70 71  1  0  0  0  0
 71 72  1  0  0  0  0
 72 73  1  0  0  0  0
 71 74  2  0  0  0  0
 74 75  1  0  0  0  0
 75 76  1  0  0  0  0
 74 77  1  0  0  0  0
 68 78  2  0  0  0  0
 78 79  1  0  0  0  0
 67 80  1  0  0  0  0
 80 81  2  0  0  0  0
 81 82  1  0  0  0  0
 81 83  1  0  0  0  0
 83 84  2  0  0  0  0
 84 85  1  0  0  0  0
 85 86  2  0  0  0  0
 86 87  1  0  0  0  0
 86 88  1  0  0  0  0
 88 89  2  0  0  0  0
 89 90  1  0  0  0  0
 89 91  1  0  0  0  0
 91 92  2  0  0  0  0
 92 93  1  0  0  0  0
 92 94  1  0  0  0  0
 94 95  2  0  0  0  0
 95 96  1  0  0  0  0
 96 97  2  0  0  0  0
 97 98  1  0  0  0  0
 97 99  1  0  0  0  0
 99100  2  0  0  0  0
100101  1  0  0  0  0
100102  1  0  0  0  0
102103  2  0  0  0  0
103104  1  0  0  0  0
  5  1  1  0  0  0  0
 11  6  1  0  0  0  0
 38 12  1  0  0  0  0
 46 42  1  0  0  0  0
 52 47  1  0  0  0  0
 79 53  1  0  0  0  0
 87 83  1  0  0  0  0
 93 88  1  0  0  0  0
 98 94  1  0  0  0  0
104 99  1  0  0  0  0
  8  3  1  0  0  0  0
 37 14  1  0  0  0  0
 49 44  1  0  0  0  0
 78 55  1  0  0  0  0
 90 85  1  0  0  0  0
101 96  1  0  0  0  0
 23 16  2  0  0  0  0
 41 25  1  0  0  0  0
 64 57  2  0  0  0  0
 82 66  1  0  0  0  0
 34 28  2  0  0  0  0
 75 69  2  0  0  0  0
  1105  1  0  0  0  0
  2106  1  0  0  0  0
  8107  1  0  0  0  0
  8108  1  0  0  0  0
  9109  1  0  0  0  0
 13110  1  0  0  0  0
 19111  1  0  0  0  0
 19112  1  0  0  0  0
 20113  1  0  0  0  0
 20114  1  0  0  0  0
 20115  1  0  0  0  0
 31116  1  0  0  0  0
 31117  1  0  0  0  0
 32118  1  0  0  0  0
 32119  1  0  0  0  0
 32120  1  0  0  0  0
 39121  1  0  0  0  0
 43122  1  0  0  0  0
 49123  1  0  0  0  0
 49124  1  0  0  0  0
 50125  1  0  0  0  0
 54126  1  0  0  0  0
 60127  1  0  0  0  0
 60128  1  0  0  0  0
 61129  1  0  0  0  0
 61130  1  0  0  0  0
 61131  1  0  0  0  0
 72132  1  0  0  0  0
 72133  1  0  0  0  0
 73134  1  0  0  0  0
 73135  1  0  0  0  0
 73136  1  0  0  0  0
 80137  1  0  0  0  0
 84138  1  0  0  0  0
 90139  1  0  0  0  0
 90140  1  0  0  0  0
 91141  1  0  0  0  0
 95142  1  0  0  0  0
101143  1  0  0  0  0
101144  1  0  0  0  0
102145  1  0  0  0  0
103146  1  0  0  0  0
M  END
