
  xtb     03012221033D
 energy: -140.817536019101 gnorm: 0.000190660296 xtb: 6.4.1 (unknown)
 82 89  0     0  0            999 V2000
    1.7010   -6.3789   10.7461 C   0  0  0  0  0  0  0  0  0  0  0  0
    1.5926   -5.0456   10.4900 N   0  0  0  0  0  0  0  0  0  0  0  0
    1.5220   -4.8192    9.1531 C   0  0  0  0  0  0  0  0  0  0  0  0
    1.5926   -6.0746    8.5166 C   0  0  0  0  0  0  0  0  0  0  0  0
    1.7070   -7.0408    9.5587 C   0  0  0  0  0  0  0  0  0  0  0  0
    1.5700   -6.3911    7.1039 C   0  0  0  0  0  0  0  0  0  0  0  0
    1.4115   -5.5680    6.2101 O   0  0  0  0  0  0  0  0  0  0  0  0
    1.7588   -7.8469    6.7524 C   0  0  0  0  0  0  0  0  0  0  0  0
    1.4222   -3.4788    8.6622 C   0  0  0  0  0  0  0  0  0  0  0  0
    1.2888   -3.1720    7.3416 N   0  0  0  0  0  0  0  0  0  0  0  0
    1.2487   -1.8343    7.1549 C   0  0  0  0  0  0  0  0  0  0  0  0
    1.3454   -1.2274    8.4319 C   0  0  0  0  0  0  0  0  0  0  0  0
    1.4481   -2.2853    9.3615 C   0  0  0  0  0  0  0  0  0  0  0  0
    1.3202    0.1817    8.7967 C   0  0  0  0  0  0  0  0  0  0  0  0
    1.3967    1.1038    8.0069 O   0  0  0  0  0  0  0  0  0  0  0  0
    1.1954    0.4633   10.2814 C   0  0  0  0  0  0  0  0  0  0  0  0
    1.0850   -1.3107    5.8372 C   0  0  0  0  0  0  0  0  0  0  0  0
    1.2896   -0.0338    5.3564 C   0  0  0  0  0  0  0  0  0  0  0  0
    1.0324    0.0638    3.9926 C   0  0  0  0  0  0  0  0  0  0  0  0
    0.6213   -1.1394    3.4231 C   0  0  0  0  0  0  0  0  0  0  0  0
    0.5627   -2.4156    4.5647 S   0  0  0  0  0  0  0  0  0  0  0  0
    0.3728   -0.9331    2.0438 C   0  0  0  0  0  0  0  0  0  0  0  0
    0.6368    0.3968    1.7304 C   0  0  0  0  0  0  0  0  0  0  0  0
    1.0804    1.1436    2.9525 C   0  0  0  0  0  0  0  0  0  0  0  0
    0.4113    0.6924    0.3873 C   0  0  0  0  0  0  0  0  0  0  0  0
   -0.0350   -0.4053   -0.3223 C   0  0  0  0  0  0  0  0  0  0  0  0
   -0.1694   -1.8315    0.6831 S   0  0  0  0  0  0  0  0  0  0  0  0
   -0.3898   -0.4727   -1.7030 C   0  0  0  0  0  0  0  0  0  0  0  0
   -0.1394    0.5483   -2.5790 N   0  0  0  0  0  0  0  0  0  0  0  0
   -0.5892    0.2241   -3.8224 C   0  0  0  0  0  0  0  0  0  0  0  0
   -1.1490   -1.0516   -3.7463 C   0  0  0  0  0  0  0  0  0  0  0  0
   -1.0293   -1.4756   -2.4097 C   0  0  0  0  0  0  0  0  0  0  0  0
   -1.7138   -1.8432   -4.8526 C   0  0  0  0  0  0  0  0  0  0  0  0
   -2.8182   -2.3365   -4.8189 O   0  0  0  0  0  0  0  0  0  0  0  0
   -0.7782   -2.0447   -6.0263 C   0  0  0  0  0  0  0  0  0  0  0  0
   -0.5702    1.1548   -4.9129 C   0  0  0  0  0  0  0  0  0  0  0  0
   -1.4860    1.0851   -5.9314 N   0  0  0  0  0  0  0  0  0  0  0  0
   -1.2873    2.0863   -6.8327 C   0  0  0  0  0  0  0  0  0  0  0  0
   -0.1745    2.8228   -6.3905 C   0  0  0  0  0  0  0  0  0  0  0  0
    0.2534    2.2219   -5.1786 C   0  0  0  0  0  0  0  0  0  0  0  0
    0.4879    3.9554   -7.0282 C   0  0  0  0  0  0  0  0  0  0  0  0
    0.0813    4.5125   -8.0278 O   0  0  0  0  0  0  0  0  0  0  0  0
    1.7643    4.4172   -6.3553 C   0  0  0  0  0  0  0  0  0  0  0  0
   -2.1490    2.2078   -7.9719 C   0  0  0  0  0  0  0  0  0  0  0  0
   -2.9850    1.1760   -8.3505 N   0  0  0  0  0  0  0  0  0  0  0  0
   -3.7153    1.5478   -9.4176 C   0  0  0  0  0  0  0  0  0  0  0  0
   -3.3774    2.8481   -9.7512 C   0  0  0  0  0  0  0  0  0  0  0  0
   -2.3849    3.2589   -8.8322 C   0  0  0  0  0  0  0  0  0  0  0  0
   -3.9642    3.6090  -10.8559 C   0  0  0  0  0  0  0  0  0  0  0  0
   -4.8217    3.1422  -11.5764 O   0  0  0  0  0  0  0  0  0  0  0  0
   -3.4287    5.0080  -11.0306 C   0  0  0  0  0  0  0  0  0  0  0  0
    1.7652   -6.7506   11.7492 H   0  0  0  0  0  0  0  0  0  0  0  0
    1.5654   -4.3200   11.1864 H   0  0  0  0  0  0  0  0  0  0  0  0
    1.7787   -8.1017    9.4361 H   0  0  0  0  0  0  0  0  0  0  0  0
    1.7618   -7.9529    5.6706 H   0  0  0  0  0  0  0  0  0  0  0  0
    2.6998   -8.2130    7.1559 H   0  0  0  0  0  0  0  0  0  0  0  0
    0.9475   -8.4397    7.1685 H   0  0  0  0  0  0  0  0  0  0  0  0
    1.2628   -3.9081    6.6265 H   0  0  0  0  0  0  0  0  0  0  0  0
    1.5520   -2.1746   10.4224 H   0  0  0  0  0  0  0  0  0  0  0  0
    2.0935    0.1307   10.7974 H   0  0  0  0  0  0  0  0  0  0  0  0
    1.0818    1.5343   10.4279 H   0  0  0  0  0  0  0  0  0  0  0  0
    0.3355   -0.0544   10.6988 H   0  0  0  0  0  0  0  0  0  0  0  0
    1.6040    0.7742    5.9890 H   0  0  0  0  0  0  0  0  0  0  0  0
    0.4076    1.9690    3.1935 H   0  0  0  0  0  0  0  0  0  0  0  0
    2.0855    1.5555    2.8411 H   0  0  0  0  0  0  0  0  0  0  0  0
    0.5485    1.6669   -0.0472 H   0  0  0  0  0  0  0  0  0  0  0  0
    0.2835    1.4282   -2.3383 H   0  0  0  0  0  0  0  0  0  0  0  0
   -1.3556   -2.4177   -2.0178 H   0  0  0  0  0  0  0  0  0  0  0  0
   -1.3327   -2.3490   -6.9112 H   0  0  0  0  0  0  0  0  0  0  0  0
   -0.1767   -1.1634   -6.2279 H   0  0  0  0  0  0  0  0  0  0  0  0
   -0.1008   -2.8549   -5.7570 H   0  0  0  0  0  0  0  0  0  0  0  0
   -2.2549    0.4348   -5.9325 H   0  0  0  0  0  0  0  0  0  0  0  0
    1.0871    2.5272   -4.5799 H   0  0  0  0  0  0  0  0  0  0  0  0
    2.1970    5.2274   -6.9362 H   0  0  0  0  0  0  0  0  0  0  0  0
    2.4765    3.5983   -6.2904 H   0  0  0  0  0  0  0  0  0  0  0  0
    1.5475    4.7749   -5.3513 H   0  0  0  0  0  0  0  0  0  0  0  0
   -3.0146    0.2591   -7.9349 H   0  0  0  0  0  0  0  0  0  0  0  0
   -4.4255    0.8959   -9.8857 H   0  0  0  0  0  0  0  0  0  0  0  0
   -1.8874    4.2040   -8.7973 H   0  0  0  0  0  0  0  0  0  0  0  0
   -2.3516    4.9743  -11.1760 H   0  0  0  0  0  0  0  0  0  0  0  0
   -3.6307    5.5903  -10.1343 H   0  0  0  0  0  0  0  0  0  0  0  0
   -3.9021    5.4807  -11.8869 H   0  0  0  0  0  0  0  0  0  0  0  0
  1  2  1  0  0  0  0
  2  3  1  0  0  0  0
  3  4  2  0  0  0  0
  4  5  1  0  0  0  0
  4  6  1  0  0  0  0
  6  7  2  0  0  0  0
  6  8  1  0  0  0  0
  3  9  1  0  0  0  0
  9 10  1  0  0  0  0
 10 11  1  0  0  0  0
 11 12  2  0  0  0  0
 12 13  1  0  0  0  0
 12 14  1  0  0  0  0
 14 15  2  0  0  0  0
 14 16  1  0  0  0  0
 11 17  1  0  0  0  0
 17 18  2  0  0  0  0
 18 19  1  0  0  0  0
 19 20  2  0  0  0  0
 20 21  1  0  0  0  0
 20 22  1  0  0  0  0
 22 23  2  0  0  0  0
 23 24  1  0  0  0  0
 23 25  1  0  0  0  0
 25 26  2  0  0  0  0
 26 27  1  0  0  0  0
 26 28  1  0  0  0  0
 28 29  1  0  0  0  0
 29 30  1  0  0  0  0
 30 31  2  0  0  0  0
 31 32  1  0  0  0  0
 31 33  1  0  0  0  0
 33 34  2  0  0  0  0
 33 35  1  0  0  0  0
 30 36  1  0  0  0  0
 36 37  1  0  0  0  0
 37 38  1  0  0  0  0
 38 39  2  0  0  0  0
 39 40  1  0  0  0  0
 39 41  1  0  0  0  0
 41 42  2  0  0  0  0
 41 43  1  0  0  0  0
 38 44  1  0  0  0  0
 44 45  1  0  0  0  0
 45 46  1  0  0  0  0
 46 47  2  0  0  0  0
 47 48  1  0  0  0  0
 47 49  1  0  0  0  0
 49 50  2  0  0  0  0
 49 51  1  0  0  0  0
  5  1  2  0  0  0  0
 13  9  2  0  0  0  0
 21 17  1  0  0  0  0
 27 22  1  0  0  0  0
 32 28  2  0  0  0  0
 40 36  2  0  0  0  0
 48 44  2  0  0  0  0
 24 19  1  0  0  0  0
  1 52  1  0  0  0  0
  2 53  1  0  0  0  0
  5 54  1  0  0  0  0
  8 55  1  0  0  0  0
  8 56  1  0  0  0  0
  8 57  1  0  0  0  0
 10 58  1  0  0  0  0
 13 59  1  0  0  0  0
 16 60  1  0  0  0  0
 16 61  1  0  0  0  0
 16 62  1  0  0  0  0
 18 63  1  0  0  0  0
 24 64  1  0  0  0  0
 24 65  1  0  0  0  0
 25 66  1  0  0  0  0
 29 67  1  0  0  0  0
 32 68  1  0  0  0  0
 35 69  1  0  0  0  0
 35 70  1  0  0  0  0
 35 71  1  0  0  0  0
 37 72  1  0  0  0  0
 40 73  1  0  0  0  0
 43 74  1  0  0  0  0
 43 75  1  0  0  0  0
 43 76  1  0  0  0  0
 45 77  1  0  0  0  0
 46 78  1  0  0  0  0
 48 79  1  0  0  0  0
 51 80  1  0  0  0  0
 51 81  1  0  0  0  0
 51 82  1  0  0  0  0
M  END
