
  xtb     03012222093D
 energy: -281.216352187977 gnorm: 0.000233005519 xtb: 6.4.1 (unknown)
146167  0     0  0            999 V2000
   -0.8127   12.2510   16.6262 C   0  0  0  0  0  0  0  0  0  0  0  0
   -0.0724   11.4104   17.4044 C   0  0  0  0  0  0  0  0  0  0  0  0
   -0.1659   10.0821   16.9637 C   0  0  0  0  0  0  0  0  0  0  0  0
   -0.9834    9.9476   15.8500 C   0  0  0  0  0  0  0  0  0  0  0  0
   -1.6421   11.4492   15.3381 S   0  0  0  0  0  0  0  0  0  0  0  0
   -1.0211    8.5824   15.4661 C   0  0  0  0  0  0  0  0  0  0  0  0
   -0.2266    7.8458   16.3398 C   0  0  0  0  0  0  0  0  0  0  0  0
    0.3866    8.7480   17.3710 C   0  0  0  0  0  0  0  0  0  0  0  0
   -0.1970    6.4879   16.0337 C   0  0  0  0  0  0  0  0  0  0  0  0
   -0.9659    6.1832   14.9242 C   0  0  0  0  0  0  0  0  0  0  0  0
   -1.7429    7.6064   14.2549 S   0  0  0  0  0  0  0  0  0  0  0  0
   -1.1428    4.9148   14.3094 C   0  0  0  0  0  0  0  0  0  0  0  0
   -0.6105    3.6989   14.7051 C   0  0  0  0  0  0  0  0  0  0  0  0
   -0.9526    2.6658   13.8386 C   0  0  0  0  0  0  0  0  0  0  0  0
   -1.7518    3.0889   12.7781 C   0  0  0  0  0  0  0  0  0  0  0  0
   -2.0961    4.7688   12.8456 S   0  0  0  0  0  0  0  0  0  0  0  0
   -2.0023    1.9923   11.9225 C   0  0  0  0  0  0  0  0  0  0  0  0
   -1.3640    0.8615   12.4324 C   0  0  0  0  0  0  0  0  0  0  0  0
   -0.6597    1.1987   13.7146 C   0  0  0  0  0  0  0  0  0  0  0  0
   -1.5046   -0.2539   11.6139 C   0  0  0  0  0  0  0  0  0  0  0  0
   -2.2478    0.0202   10.4788 C   0  0  0  0  0  0  0  0  0  0  0  0
   -2.7987    1.6837   10.4370 S   0  0  0  0  0  0  0  0  0  0  0  0
   -2.5008   -0.8321    9.3688 C   0  0  0  0  0  0  0  0  0  0  0  0
   -2.0249   -2.0948    9.1438 C   0  0  0  0  0  0  0  0  0  0  0  0
   -2.3374   -2.5977    7.8586 C   0  0  0  0  0  0  0  0  0  0  0  0
   -1.9660   -3.8304    7.2866 C   0  0  0  0  0  0  0  0  0  0  0  0
   -1.2249   -4.8366    8.0274 C   0  0  0  0  0  0  0  0  0  0  0  0
    0.2611   -4.4687    8.8544 S   0  0  0  0  0  0  0  0  0  0  0  0
    0.4795   -6.1086    9.3647 C   0  0  0  0  0  0  0  0  0  0  0  0
    1.6842   -6.5256   10.1337 C   0  0  0  0  0  0  0  0  0  0  0  0
    2.8575   -6.8159    9.1948 C   0  0  0  0  0  0  0  0  0  0  0  0
   -0.5435   -6.8838    8.9084 C   0  0  0  0  0  0  0  0  0  0  0  0
   -0.6777   -8.5667    9.2150 Cl  0  0  0  0  0  0  0  0  0  0  0  0
   -1.5110   -6.1680    8.1534 C   0  0  0  0  0  0  0  0  0  0  0  0
   -2.9306   -6.9096    7.5434 Cl  0  0  0  0  0  0  0  0  0  0  0  0
   -2.2958   -4.0299    5.9519 C   0  0  0  0  0  0  0  0  0  0  0  0
   -3.0349   -3.0914    5.1923 C   0  0  0  0  0  0  0  0  0  0  0  0
   -3.5167   -1.9176    5.8004 C   0  0  0  0  0  0  0  0  0  0  0  0
   -4.3807   -1.0067    5.0746 C   0  0  0  0  0  0  0  0  0  0  0  0
   -4.1006    0.7086    5.0401 S   0  0  0  0  0  0  0  0  0  0  0  0
   -5.4926    0.9951    4.0527 C   0  0  0  0  0  0  0  0  0  0  0  0
   -5.8918    2.3772    3.6710 C   0  0  0  0  0  0  0  0  0  0  0  0
   -6.6273    3.0663    4.8230 C   0  0  0  0  0  0  0  0  0  0  0  0
   -6.1330   -0.1776    3.7832 C   0  0  0  0  0  0  0  0  0  0  0  0
   -5.5033   -1.3149    4.3540 C   0  0  0  0  0  0  0  0  0  0  0  0
   -6.1577   -2.8953    4.2131 Cl  0  0  0  0  0  0  0  0  0  0  0  0
   -7.5646   -0.2944    2.8436 Cl  0  0  0  0  0  0  0  0  0  0  0  0
   -3.1083   -1.6780    7.1045 C   0  0  0  0  0  0  0  0  0  0  0  0
   -3.4381   -0.2336    8.0139 S   0  0  0  0  0  0  0  0  0  0  0  0
   -3.0821   -3.4353    3.8227 C   0  0  0  0  0  0  0  0  0  0  0  0
   -2.4156   -4.5888    3.5223 C   0  0  0  0  0  0  0  0  0  0  0  0
   -1.7428   -5.3479    4.9539 S   0  0  0  0  0  0  0  0  0  0  0  0
   -2.1455   -5.1049    2.2269 C   0  0  0  0  0  0  0  0  0  0  0  0
   -1.4507   -6.2476    1.8784 C   0  0  0  0  0  0  0  0  0  0  0  0
   -1.2427   -6.3395    0.5048 C   0  0  0  0  0  0  0  0  0  0  0  0
   -1.7804   -5.2593   -0.1934 C   0  0  0  0  0  0  0  0  0  0  0  0
   -2.5804   -4.1391    0.8274 S   0  0  0  0  0  0  0  0  0  0  0  0
   -1.4172   -5.3598   -1.5540 C   0  0  0  0  0  0  0  0  0  0  0  0
   -0.6510   -6.5097   -1.7392 C   0  0  0  0  0  0  0  0  0  0  0  0
   -0.5180   -7.2540   -0.4410 C   0  0  0  0  0  0  0  0  0  0  0  0
   -0.1547   -6.6240   -3.0344 C   0  0  0  0  0  0  0  0  0  0  0  0
   -0.5270   -5.5561   -3.8351 C   0  0  0  0  0  0  0  0  0  0  0  0
   -1.5453   -4.4145   -2.9776 S   0  0  0  0  0  0  0  0  0  0  0  0
   -0.1092   -5.2558   -5.1586 C   0  0  0  0  0  0  0  0  0  0  0  0
    0.7023   -6.0005   -5.9990 C   0  0  0  0  0  0  0  0  0  0  0  0
    0.9981   -5.3257   -7.1798 C   0  0  0  0  0  0  0  0  0  0  0  0
    0.4087   -4.0642   -7.2443 C   0  0  0  0  0  0  0  0  0  0  0  0
   -0.5323   -3.7041   -5.8580 S   0  0  0  0  0  0  0  0  0  0  0  0
    0.8171   -3.4214   -8.4337 C   0  0  0  0  0  0  0  0  0  0  0  0
    1.6699   -4.2688   -9.1409 C   0  0  0  0  0  0  0  0  0  0  0  0
    1.8332   -5.5679   -8.4046 C   0  0  0  0  0  0  0  0  0  0  0  0
    2.1670   -3.6852  -10.3019 C   0  0  0  0  0  0  0  0  0  0  0  0
    1.7000   -2.3943  -10.4795 C   0  0  0  0  0  0  0  0  0  0  0  0
    0.6142   -1.9016   -9.1960 S   0  0  0  0  0  0  0  0  0  0  0  0
    2.0270   -1.4706  -11.5118 C   0  0  0  0  0  0  0  0  0  0  0  0
    2.8910   -1.6322  -12.5587 C   0  0  0  0  0  0  0  0  0  0  0  0
    3.0048   -0.4842  -13.3807 C   0  0  0  0  0  0  0  0  0  0  0  0
    3.7897   -0.3089  -14.5324 C   0  0  0  0  0  0  0  0  0  0  0  0
    4.6343   -1.3721  -15.0528 C   0  0  0  0  0  0  0  0  0  0  0  0
    3.9838   -2.9331  -15.4607 S   0  0  0  0  0  0  0  0  0  0  0  0
    5.5170   -3.5170  -16.0118 C   0  0  0  0  0  0  0  0  0  0  0  0
    5.6658   -4.8774  -16.5984 C   0  0  0  0  0  0  0  0  0  0  0  0
    5.4680   -4.8391  -18.1157 C   0  0  0  0  0  0  0  0  0  0  0  0
    6.4656   -2.5475  -15.8826 C   0  0  0  0  0  0  0  0  0  0  0  0
    8.1105   -2.7577  -16.3228 Cl  0  0  0  0  0  0  0  0  0  0  0  0
    5.9709   -1.3326  -15.3367 C   0  0  0  0  0  0  0  0  0  0  0  0
    6.9881    0.0050  -15.0008 Cl  0  0  0  0  0  0  0  0  0  0  0  0
    3.7120    0.9242  -15.1708 C   0  0  0  0  0  0  0  0  0  0  0  0
    2.9075    1.9885  -14.7002 C   0  0  0  0  0  0  0  0  0  0  0  0
    2.1490    1.8260  -13.5314 C   0  0  0  0  0  0  0  0  0  0  0  0
    1.3222    2.8965  -12.9938 C   0  0  0  0  0  0  0  0  0  0  0  0
    0.0719    3.6476  -13.9400 S   0  0  0  0  0  0  0  0  0  0  0  0
   -0.4043    4.6812  -12.6355 C   0  0  0  0  0  0  0  0  0  0  0  0
   -1.5546    5.6167  -12.7697 C   0  0  0  0  0  0  0  0  0  0  0  0
   -2.8756    4.9019  -12.4751 C   0  0  0  0  0  0  0  0  0  0  0  0
    0.3672    4.4427  -11.5382 C   0  0  0  0  0  0  0  0  0  0  0  0
    1.3484    3.4342  -11.7377 C   0  0  0  0  0  0  0  0  0  0  0  0
    2.4892    3.0093  -10.5317 Cl  0  0  0  0  0  0  0  0  0  0  0  0
    0.1957    5.2765  -10.0485 Cl  0  0  0  0  0  0  0  0  0  0  0  0
    2.2087    0.5880  -12.9064 C   0  0  0  0  0  0  0  0  0  0  0  0
    1.3096    0.1281  -11.4928 S   0  0  0  0  0  0  0  0  0  0  0  0
    3.0053    3.1347  -15.5417 C   0  0  0  0  0  0  0  0  0  0  0  0
    3.8135    2.9363  -16.6027 C   0  0  0  0  0  0  0  0  0  0  0  0
    4.5223    1.3598  -16.6488 S   0  0  0  0  0  0  0  0  0  0  0  0
   -0.9275   13.3118   16.7273 H   0  0  0  0  0  0  0  0  0  0  0  0
    0.5070   11.7397   18.2480 H   0  0  0  0  0  0  0  0  0  0  0  0
    0.0863    8.4730   18.3842 H   0  0  0  0  0  0  0  0  0  0  0  0
    1.4778    8.7288   17.3297 H   0  0  0  0  0  0  0  0  0  0  0  0
    0.3591    5.7493   16.5810 H   0  0  0  0  0  0  0  0  0  0  0  0
    0.0018    3.5864   15.5807 H   0  0  0  0  0  0  0  0  0  0  0  0
   -1.0581    0.6322   14.5589 H   0  0  0  0  0  0  0  0  0  0  0  0
    0.4122    1.0003   13.6554 H   0  0  0  0  0  0  0  0  0  0  0  0
   -1.0813   -1.2210   11.8139 H   0  0  0  0  0  0  0  0  0  0  0  0
   -1.4388   -2.6350    9.8631 H   0  0  0  0  0  0  0  0  0  0  0  0
    1.9638   -5.7327   10.8296 H   0  0  0  0  0  0  0  0  0  0  0  0
    1.4409   -7.4241   10.7039 H   0  0  0  0  0  0  0  0  0  0  0  0
    3.7268   -7.1271    9.7678 H   0  0  0  0  0  0  0  0  0  0  0  0
    3.1136   -5.9257    8.6252 H   0  0  0  0  0  0  0  0  0  0  0  0
    2.5952   -7.6097    8.5000 H   0  0  0  0  0  0  0  0  0  0  0  0
   -6.5429    2.3249    2.7967 H   0  0  0  0  0  0  0  0  0  0  0  0
   -5.0025    2.9546    3.4123 H   0  0  0  0  0  0  0  0  0  0  0  0
   -5.9852    3.1231    5.6988 H   0  0  0  0  0  0  0  0  0  0  0  0
   -6.9152    4.0733    4.5335 H   0  0  0  0  0  0  0  0  0  0  0  0
   -7.5233    2.5090    5.0847 H   0  0  0  0  0  0  0  0  0  0  0  0
   -3.5430   -2.8222    3.0695 H   0  0  0  0  0  0  0  0  0  0  0  0
   -1.1032   -6.9534    2.6119 H   0  0  0  0  0  0  0  0  0  0  0  0
   -0.9868   -8.2395   -0.4884 H   0  0  0  0  0  0  0  0  0  0  0  0
    0.5260   -7.3947   -0.1553 H   0  0  0  0  0  0  0  0  0  0  0  0
    0.4727   -7.4235   -3.3832 H   0  0  0  0  0  0  0  0  0  0  0  0
    1.0630   -6.9801   -5.7444 H   0  0  0  0  0  0  0  0  0  0  0  0
    2.8771   -5.7657   -8.1534 H   0  0  0  0  0  0  0  0  0  0  0  0
    1.4639   -6.4145   -8.9873 H   0  0  0  0  0  0  0  0  0  0  0  0
    2.8432   -4.1598  -10.9890 H   0  0  0  0  0  0  0  0  0  0  0  0
    3.4361   -2.5404  -12.7359 H   0  0  0  0  0  0  0  0  0  0  0  0
    6.6665   -5.2509  -16.3718 H   0  0  0  0  0  0  0  0  0  0  0  0
    4.9304   -5.5478  -16.1509 H   0  0  0  0  0  0  0  0  0  0  0  0
    6.2022   -4.1812  -18.5734 H   0  0  0  0  0  0  0  0  0  0  0  0
    4.4736   -4.4719  -18.3576 H   0  0  0  0  0  0  0  0  0  0  0  0
    5.5843   -5.8356  -18.5331 H   0  0  0  0  0  0  0  0  0  0  0  0
   -1.5782    6.0216  -13.7829 H   0  0  0  0  0  0  0  0  0  0  0  0
   -1.4194    6.4397  -12.0655 H   0  0  0  0  0  0  0  0  0  0  0  0
   -3.7053    5.5975  -12.5673 H   0  0  0  0  0  0  0  0  0  0  0  0
   -3.0256    4.0832  -13.1750 H   0  0  0  0  0  0  0  0  0  0  0  0
   -2.8683    4.4991  -11.4656 H   0  0  0  0  0  0  0  0  0  0  0  0
    2.4868    4.0559  -15.3498 H   0  0  0  0  0  0  0  0  0  0  0  0
    4.0564    3.6286  -17.3848 H   0  0  0  0  0  0  0  0  0  0  0  0
  1  2  2  0  0  0  0
  2  3  1  0  0  0  0
  3  4  2  0  0  0  0
  4  5  1  0  0  0  0
  4  6  1  0  0  0  0
  6  7  2  0  0  0  0
  7  8  1  0  0  0  0
  7  9  1  0  0  0  0
  9 10  2  0  0  0  0
 10 11  1  0  0  0  0
 10 12  1  0  0  0  0
 12 13  2  0  0  0  0
 13 14  1  0  0  0  0
 14 15  2  0  0  0  0
 15 16  1  0  0  0  0
 15 17  1  0  0  0  0
 17 18  2  0  0  0  0
 18 19  1  0  0  0  0
 18 20  1  0  0  0  0
 20 21  2  0  0  0  0
 21 22  1  0  0  0  0
 21 23  1  0  0  0  0
 23 24  2  0  0  0  0
 24 25  1  0  0  0  0
 25 26  2  0  0  0  0
 26 27  1  0  0  0  0
 27 28  1  0  0  0  0
 28 29  1  0  0  0  0
 29 30  1  0  0  0  0
 30 31  1  0  0  0  0
 29 32  2  0  0  0  0
 32 33  1  0  0  0  0
 32 34  1  0  0  0  0
 34 35  1  0  0  0  0
 26 36  1  0  0  0  0
 36 37  2  0  0  0  0
 37 38  1  0  0  0  0
 38 39  1  0  0  0  0
 39 40  1  0  0  0  0
 40 41  1  0  0  0  0
 41 42  1  0  0  0  0
 42 43  1  0  0  0  0
 41 44  2  0  0  0  0
 44 45  1  0  0  0  0
 45 46  1  0  0  0  0
 44 47  1  0  0  0  0
 38 48  2  0  0  0  0
 48 49  1  0  0  0  0
 37 50  1  0  0  0  0
 50 51  2  0  0  0  0
 51 52  1  0  0  0  0
 51 53  1  0  0  0  0
 53 54  2  0  0  0  0
 54 55  1  0  0  0  0
 55 56  2  0  0  0  0
 56 57  1  0  0  0  0
 56 58  1  0  0  0  0
 58 59  2  0  0  0  0
 59 60  1  0  0  0  0
 59 61  1  0  0  0  0
 61 62  2  0  0  0  0
 62 63  1  0  0  0  0
 62 64  1  0  0  0  0
 64 65  2  0  0  0  0
 65 66  1  0  0  0  0
 66 67  2  0  0  0  0
 67 68  1  0  0  0  0
 67 69  1  0  0  0  0
 69 70  2  0  0  0  0
 70 71  1  0  0  0  0
 70 72  1  0  0  0  0
 72 73  2  0  0  0  0
 73 74  1  0  0  0  0
 73 75  1  0  0  0  0
 75 76  2  0  0  0  0
 76 77  1  0  0  0  0
 77 78  2  0  0  0  0
 78 79  1  0  0  0  0
 79 80  1  0  0  0  0
 80 81  1  0  0  0  0
 81 82  1  0  0  0  0
 82 83  1  0  0  0  0
 81 84  2  0  0  0  0
 84 85  1  0  0  0  0
 84 86  1  0  0  0  0
 86 87  1  0  0  0  0
 78 88  1  0  0  0  0
 88 89  2  0  0  0  0
 89 90  1  0  0  0  0
 90 91  1  0  0  0  0
 91 92  1  0  0  0  0
 92 93  1  0  0  0  0
 93 94  1  0  0  0  0
 94 95  1  0  0  0  0
 93 96  2  0  0  0  0
 96 97  1  0  0  0  0
 97 98  1  0  0  0  0
 96 99  1  0  0  0  0
 90100  2  0  0  0  0
100101  1  0  0  0  0
 89102  1  0  0  0  0
102103  2  0  0  0  0
103104  1  0  0  0  0
  5  1  1  0  0  0  0
 11  6  1  0  0  0  0
 16 12  1  0  0  0  0
 22 17  1  0  0  0  0
 49 23  1  0  0  0  0
 57 53  1  0  0  0  0
 63 58  1  0  0  0  0
 68 64  1  0  0  0  0
 74 69  1  0  0  0  0
101 75  1  0  0  0  0
  8  3  1  0  0  0  0
 19 14  1  0  0  0  0
 48 25  1  0  0  0  0
 60 55  1  0  0  0  0
 71 66  1  0  0  0  0
100 77  1  0  0  0  0
 34 27  2  0  0  0  0
 52 36  1  0  0  0  0
 86 79  2  0  0  0  0
104 88  1  0  0  0  0
 45 39  2  0  0  0  0
 97 91  2  0  0  0  0
  1105  1  0  0  0  0
  2106  1  0  0  0  0
  8107  1  0  0  0  0
  8108  1  0  0  0  0
  9109  1  0  0  0  0
 13110  1  0  0  0  0
 19111  1  0  0  0  0
 19112  1  0  0  0  0
 20113  1  0  0  0  0
 24114  1  0  0  0  0
 30115  1  0  0  0  0
 30116  1  0  0  0  0
 31117  1  0  0  0  0
 31118  1  0  0  0  0
 31119  1  0  0  0  0
 42120  1  0  0  0  0
 42121  1  0  0  0  0
 43122  1  0  0  0  0
 43123  1  0  0  0  0
 43124  1  0  0  0  0
 50125  1  0  0  0  0
 54126  1  0  0  0  0
 60127  1  0  0  0  0
 60128  1  0  0  0  0
 61129  1  0  0  0  0
 65130  1  0  0  0  0
 71131  1  0  0  0  0
 71132  1  0  0  0  0
 72133  1  0  0  0  0
 76134  1  0  0  0  0
 82135  1  0  0  0  0
 82136  1  0  0  0  0
 83137  1  0  0  0  0
 83138  1  0  0  0  0
 83139  1  0  0  0  0
 94140  1  0  0  0  0
 94141  1  0  0  0  0
 95142  1  0  0  0  0
 95143  1  0  0  0  0
 95144  1  0  0  0  0
102145  1  0  0  0  0
103146  1  0  0  0  0
M  END
