
  xtb     03022202353D
 energy: -394.559119343135 gnorm: 0.000393300188 xtb: 6.4.1 (unknown)
200225  0     0  0            999 V2000
    3.6261    2.3468   12.3657 C   0  0  0  0  0  0  0  0  0  0  0  0
    4.7798    2.6521   11.7388 C   0  0  0  0  0  0  0  0  0  0  0  0
    4.9423    1.9526   10.5069 C   0  0  0  0  0  0  0  0  0  0  0  0
    5.9795    2.0714    9.5686 C   0  0  0  0  0  0  0  0  0  0  0  0
    7.0958    2.9828    9.7687 C   0  0  0  0  0  0  0  0  0  0  0  0
    8.0964    2.9000   11.1884 S   0  0  0  0  0  0  0  0  0  0  0  0
    9.1180    4.1855   10.6409 C   0  0  0  0  0  0  0  0  0  0  0  0
   10.2426    4.6900   11.4761 C   0  0  0  0  0  0  0  0  0  0  0  0
    9.7537    5.7411   12.4755 C   0  0  0  0  0  0  0  0  0  0  0  0
    8.6875    4.6491    9.4343 C   0  0  0  0  0  0  0  0  0  0  0  0
    9.4406    5.9316    8.5790 Cl  0  0  0  0  0  0  0  0  0  0  0  0
    7.5466    3.9658    8.9327 C   0  0  0  0  0  0  0  0  0  0  0  0
    6.7841    4.4057    7.4622 Cl  0  0  0  0  0  0  0  0  0  0  0  0
    5.8962    1.2774    8.4322 C   0  0  0  0  0  0  0  0  0  0  0  0
    4.8175    0.3927    8.1863 C   0  0  0  0  0  0  0  0  0  0  0  0
    3.7344    0.3448    9.0802 C   0  0  0  0  0  0  0  0  0  0  0  0
    2.5256   -0.3965    8.7635 C   0  0  0  0  0  0  0  0  0  0  0  0
    1.7744   -1.4873    9.8891 S   0  0  0  0  0  0  0  0  0  0  0  0
    0.4456   -1.7961    8.8254 C   0  0  0  0  0  0  0  0  0  0  0  0
   -0.6488   -2.7376    9.1913 C   0  0  0  0  0  0  0  0  0  0  0  0
   -0.4407   -4.1086    8.5436 C   0  0  0  0  0  0  0  0  0  0  0  0
    0.5962   -1.0980    7.6642 C   0  0  0  0  0  0  0  0  0  0  0  0
    1.7717   -0.3030    7.6243 C   0  0  0  0  0  0  0  0  0  0  0  0
    2.1385    0.7330    6.3040 Cl  0  0  0  0  0  0  0  0  0  0  0  0
   -0.5348   -1.1355    6.3755 Cl  0  0  0  0  0  0  0  0  0  0  0  0
    3.8425    1.1041   10.2403 C   0  0  0  0  0  0  0  0  0  0  0  0
    2.6524    1.2023   11.5083 S   0  0  0  0  0  0  0  0  0  0  0  0
    5.0131   -0.3630    7.0036 C   0  0  0  0  0  0  0  0  0  0  0  0
    6.1635   -0.0483    6.3408 C   0  0  0  0  0  0  0  0  0  0  0  0
    7.0848    1.1909    7.1660 S   0  0  0  0  0  0  0  0  0  0  0  0
    6.6114   -0.5726    5.0901 C   0  0  0  0  0  0  0  0  0  0  0  0
    6.3170   -1.8046    4.5408 C   0  0  0  0  0  0  0  0  0  0  0  0
    6.8307   -1.9414    3.2536 C   0  0  0  0  0  0  0  0  0  0  0  0
    7.5003   -0.8003    2.8151 C   0  0  0  0  0  0  0  0  0  0  0  0
    7.5541    0.4302    4.0079 S   0  0  0  0  0  0  0  0  0  0  0  0
    7.8460   -0.9656    1.4522 C   0  0  0  0  0  0  0  0  0  0  0  0
    7.4258   -2.2257    1.0276 C   0  0  0  0  0  0  0  0  0  0  0  0
    6.7897   -2.9721    2.1638 C   0  0  0  0  0  0  0  0  0  0  0  0
    7.5823   -2.4161   -0.3408 C   0  0  0  0  0  0  0  0  0  0  0  0
    8.0954   -1.2941   -0.9702 C   0  0  0  0  0  0  0  0  0  0  0  0
    8.4535   -0.0089    0.1652 S   0  0  0  0  0  0  0  0  0  0  0  0
    8.0857   -1.0353   -2.3707 C   0  0  0  0  0  0  0  0  0  0  0  0
    7.7782   -1.9094   -3.3783 C   0  0  0  0  0  0  0  0  0  0  0  0
    7.4471   -1.2742   -4.5982 C   0  0  0  0  0  0  0  0  0  0  0  0
    6.9430   -1.8546   -5.7794 C   0  0  0  0  0  0  0  0  0  0  0  0
    6.8754   -3.2903   -5.9844 C   0  0  0  0  0  0  0  0  0  0  0  0
    6.2061   -4.3805   -4.8049 S   0  0  0  0  0  0  0  0  0  0  0  0
    6.4386   -5.7611   -5.8224 C   0  0  0  0  0  0  0  0  0  0  0  0
    6.0004   -7.1185   -5.3964 C   0  0  0  0  0  0  0  0  0  0  0  0
    4.5259   -7.3490   -5.7365 C   0  0  0  0  0  0  0  0  0  0  0  0
    6.9961   -5.3834   -7.0065 C   0  0  0  0  0  0  0  0  0  0  0  0
    7.3811   -6.4757   -8.2725 Cl  0  0  0  0  0  0  0  0  0  0  0  0
    7.2449   -3.9881   -7.1024 C   0  0  0  0  0  0  0  0  0  0  0  0
    8.0116   -3.2874   -8.4654 Cl  0  0  0  0  0  0  0  0  0  0  0  0
    6.4088   -0.9847   -6.7237 C   0  0  0  0  0  0  0  0  0  0  0  0
    6.4480    0.4222   -6.5837 C   0  0  0  0  0  0  0  0  0  0  0  0
    7.1018    1.0027   -5.4835 C   0  0  0  0  0  0  0  0  0  0  0  0
    7.1871    2.4500   -5.3571 C   0  0  0  0  0  0  0  0  0  0  0  0
    8.0148    3.3887   -6.5645 S   0  0  0  0  0  0  0  0  0  0  0  0
    7.6820    4.8774   -5.7466 C   0  0  0  0  0  0  0  0  0  0  0  0
    8.2008    6.1749   -6.2603 C   0  0  0  0  0  0  0  0  0  0  0  0
    9.6268    6.4282   -5.7656 C   0  0  0  0  0  0  0  0  0  0  0  0
    6.9709    4.6423   -4.6085 C   0  0  0  0  0  0  0  0  0  0  0  0
    6.6810    3.2682   -4.3874 C   0  0  0  0  0  0  0  0  0  0  0  0
    5.7153    2.7323   -3.0773 Cl  0  0  0  0  0  0  0  0  0  0  0  0
    6.4500    5.8752   -3.5348 Cl  0  0  0  0  0  0  0  0  0  0  0  0
    7.5500    0.1380   -4.4981 C   0  0  0  0  0  0  0  0  0  0  0  0
    8.1527    0.6209   -2.9405 S   0  0  0  0  0  0  0  0  0  0  0  0
    5.5731    1.0755   -7.4834 C   0  0  0  0  0  0  0  0  0  0  0  0
    4.8486    0.2172   -8.2598 C   0  0  0  0  0  0  0  0  0  0  0  0
    5.3707   -1.4497   -8.0469 S   0  0  0  0  0  0  0  0  0  0  0  0
    3.5980    0.4861   -8.8866 C   0  0  0  0  0  0  0  0  0  0  0  0
    2.7873   -0.3787   -9.5968 C   0  0  0  0  0  0  0  0  0  0  0  0
    1.4637    0.0552   -9.6463 C   0  0  0  0  0  0  0  0  0  0  0  0
    1.2681    1.2564   -8.9668 C   0  0  0  0  0  0  0  0  0  0  0  0
    2.7239    1.9136   -8.3447 S   0  0  0  0  0  0  0  0  0  0  0  0
   -0.1154    1.4456   -8.7504 C   0  0  0  0  0  0  0  0  0  0  0  0
   -0.8152    0.3780   -9.3128 C   0  0  0  0  0  0  0  0  0  0  0  0
    0.1367   -0.5327  -10.0380 C   0  0  0  0  0  0  0  0  0  0  0  0
   -2.1384    0.3180   -8.8840 C   0  0  0  0  0  0  0  0  0  0  0  0
   -2.4377    1.3138   -7.9691 C   0  0  0  0  0  0  0  0  0  0  0  0
   -1.0900    2.4061   -7.7187 S   0  0  0  0  0  0  0  0  0  0  0  0
   -3.5269    1.3382   -7.0497 C   0  0  0  0  0  0  0  0  0  0  0  0
   -4.6742    0.5947   -7.0564 C   0  0  0  0  0  0  0  0  0  0  0  0
   -5.3569    0.5947   -5.8140 C   0  0  0  0  0  0  0  0  0  0  0  0
   -6.4847   -0.1552   -5.4276 C   0  0  0  0  0  0  0  0  0  0  0  0
   -7.2257   -0.9836   -6.3637 C   0  0  0  0  0  0  0  0  0  0  0  0
   -6.4366   -2.1497   -7.3868 S   0  0  0  0  0  0  0  0  0  0  0  0
   -7.9345   -2.7080   -8.0501 C   0  0  0  0  0  0  0  0  0  0  0  0
   -7.9715   -3.7505   -9.1124 C   0  0  0  0  0  0  0  0  0  0  0  0
   -7.8158   -3.1222  -10.4995 C   0  0  0  0  0  0  0  0  0  0  0  0
   -8.9748   -2.0137   -7.5105 C   0  0  0  0  0  0  0  0  0  0  0  0
  -10.6185   -2.2799   -7.9243 Cl  0  0  0  0  0  0  0  0  0  0  0  0
   -8.5794   -1.0414   -6.5528 C   0  0  0  0  0  0  0  0  0  0  0  0
   -9.7084    0.0024   -5.7967 Cl  0  0  0  0  0  0  0  0  0  0  0  0
   -6.8285   -0.1287   -4.0793 C   0  0  0  0  0  0  0  0  0  0  0  0
   -6.1259    0.6374   -3.1170 C   0  0  0  0  0  0  0  0  0  0  0  0
   -5.0528    1.4485   -3.5164 C   0  0  0  0  0  0  0  0  0  0  0  0
   -4.2793    2.2170   -2.5526 C   0  0  0  0  0  0  0  0  0  0  0  0
   -4.0490    3.9296   -2.7347 S   0  0  0  0  0  0  0  0  0  0  0  0
   -3.0755    4.0285   -1.3079 C   0  0  0  0  0  0  0  0  0  0  0  0
   -2.5485    5.3320   -0.8184 C   0  0  0  0  0  0  0  0  0  0  0  0
   -3.5552    6.0163    0.1096 C   0  0  0  0  0  0  0  0  0  0  0  0
   -2.9489    2.7987   -0.7336 C   0  0  0  0  0  0  0  0  0  0  0  0
   -3.6245    1.7677   -1.4400 C   0  0  0  0  0  0  0  0  0  0  0  0
   -3.5410    0.1189   -0.9672 Cl  0  0  0  0  0  0  0  0  0  0  0  0
   -2.0544    2.4982    0.6998 Cl  0  0  0  0  0  0  0  0  0  0  0  0
   -4.7005    1.4073   -4.8559 C   0  0  0  0  0  0  0  0  0  0  0  0
   -3.2992    2.1827   -5.5277 S   0  0  0  0  0  0  0  0  0  0  0  0
   -6.5890    0.3967   -1.8013 C   0  0  0  0  0  0  0  0  0  0  0  0
   -7.5723   -0.5422   -1.7365 C   0  0  0  0  0  0  0  0  0  0  0  0
   -8.0418   -1.1230   -3.3212 S   0  0  0  0  0  0  0  0  0  0  0  0
   -8.1364   -1.1181   -0.5582 C   0  0  0  0  0  0  0  0  0  0  0  0
   -9.2934   -1.8224   -0.4285 C   0  0  0  0  0  0  0  0  0  0  0  0
   -9.4998   -2.3310    0.8792 C   0  0  0  0  0  0  0  0  0  0  0  0
  -10.5682   -3.1140    1.3448 C   0  0  0  0  0  0  0  0  0  0  0  0
  -11.6568   -3.4998    0.4611 C   0  0  0  0  0  0  0  0  0  0  0  0
  -11.3425   -4.3066   -1.0479 S   0  0  0  0  0  0  0  0  0  0  0  0
  -13.0253   -4.4042   -1.4394 C   0  0  0  0  0  0  0  0  0  0  0  0
  -13.4764   -4.9787   -2.7366 C   0  0  0  0  0  0  0  0  0  0  0  0
  -13.2533   -3.9858   -3.8800 C   0  0  0  0  0  0  0  0  0  0  0  0
  -13.7729   -3.8370   -0.4516 C   0  0  0  0  0  0  0  0  0  0  0  0
  -15.4854   -3.7334   -0.4842 Cl  0  0  0  0  0  0  0  0  0  0  0  0
  -13.0023   -3.3299    0.6302 C   0  0  0  0  0  0  0  0  0  0  0  0
  -13.7119   -2.5113    1.9577 Cl  0  0  0  0  0  0  0  0  0  0  0  0
  -10.5160   -3.5262    2.6714 C   0  0  0  0  0  0  0  0  0  0  0  0
   -9.4399   -3.2082    3.5346 C   0  0  0  0  0  0  0  0  0  0  0  0
   -8.3754   -2.4188    3.0728 C   0  0  0  0  0  0  0  0  0  0  0  0
   -7.2084   -2.1483    3.8989 C   0  0  0  0  0  0  0  0  0  0  0  0
   -6.3197   -3.4627    4.6156 S   0  0  0  0  0  0  0  0  0  0  0  0
   -5.1165   -2.4023    5.2684 C   0  0  0  0  0  0  0  0  0  0  0  0
   -3.9944   -2.9309    6.0919 C   0  0  0  0  0  0  0  0  0  0  0  0
   -4.4579   -3.2460    7.5155 C   0  0  0  0  0  0  0  0  0  0  0  0
   -5.4089   -1.1093    4.9547 C   0  0  0  0  0  0  0  0  0  0  0  0
   -6.5880   -0.9619    4.1727 C   0  0  0  0  0  0  0  0  0  0  0  0
   -7.1905    0.5722    3.7062 Cl  0  0  0  0  0  0  0  0  0  0  0  0
   -4.4484    0.2301    5.4326 Cl  0  0  0  0  0  0  0  0  0  0  0  0
   -8.4429   -1.9800    1.7553 C   0  0  0  0  0  0  0  0  0  0  0  0
   -7.2351   -1.0310    0.9409 S   0  0  0  0  0  0  0  0  0  0  0  0
   -9.6173   -3.7833    4.8268 C   0  0  0  0  0  0  0  0  0  0  0  0
  -10.7477   -4.5121    4.9244 C   0  0  0  0  0  0  0  0  0  0  0  0
  -11.6786   -4.5468    3.4685 S   0  0  0  0  0  0  0  0  0  0  0  0
    3.2632    2.7270   13.3004 H   0  0  0  0  0  0  0  0  0  0  0  0
    5.5009    3.3498   12.1226 H   0  0  0  0  0  0  0  0  0  0  0  0
   10.9936    5.1325   10.8193 H   0  0  0  0  0  0  0  0  0  0  0  0
   10.6957    3.8572   12.0166 H   0  0  0  0  0  0  0  0  0  0  0  0
    9.3089    6.5821   11.9497 H   0  0  0  0  0  0  0  0  0  0  0  0
   10.5858    6.1040   13.0725 H   0  0  0  0  0  0  0  0  0  0  0  0
    9.0078    5.3118   13.1404 H   0  0  0  0  0  0  0  0  0  0  0  0
   -0.6813   -2.8443   10.2763 H   0  0  0  0  0  0  0  0  0  0  0  0
   -1.5980   -2.3169    8.8516 H   0  0  0  0  0  0  0  0  0  0  0  0
   -1.2438   -4.7835    8.8282 H   0  0  0  0  0  0  0  0  0  0  0  0
    0.5042   -4.5387    8.8665 H   0  0  0  0  0  0  0  0  0  0  0  0
   -0.4298   -4.0154    7.4609 H   0  0  0  0  0  0  0  0  0  0  0  0
    4.3174   -1.1013    6.6503 H   0  0  0  0  0  0  0  0  0  0  0  0
    5.7566   -2.5564    5.0661 H   0  0  0  0  0  0  0  0  0  0  0  0
    5.7702   -3.2809    1.9262 H   0  0  0  0  0  0  0  0  0  0  0  0
    7.3557   -3.8665    2.4339 H   0  0  0  0  0  0  0  0  0  0  0  0
    7.2846   -3.2987   -0.8765 H   0  0  0  0  0  0  0  0  0  0  0  0
    7.7257   -2.9711   -3.2296 H   0  0  0  0  0  0  0  0  0  0  0  0
    6.1461   -7.2257   -4.3201 H   0  0  0  0  0  0  0  0  0  0  0  0
    6.6140   -7.8613   -5.9095 H   0  0  0  0  0  0  0  0  0  0  0  0
    4.2200   -8.3418   -5.4180 H   0  0  0  0  0  0  0  0  0  0  0  0
    3.9032   -6.6126   -5.2340 H   0  0  0  0  0  0  0  0  0  0  0  0
    4.3696   -7.2628   -6.8087 H   0  0  0  0  0  0  0  0  0  0  0  0
    7.5457    6.9757   -5.9121 H   0  0  0  0  0  0  0  0  0  0  0  0
    8.1913    6.1627   -7.3516 H   0  0  0  0  0  0  0  0  0  0  0  0
    9.9908    7.3786   -6.1464 H   0  0  0  0  0  0  0  0  0  0  0  0
    9.6488    6.4561   -4.6792 H   0  0  0  0  0  0  0  0  0  0  0  0
   10.2906    5.6373   -6.1066 H   0  0  0  0  0  0  0  0  0  0  0  0
    5.4026    2.1374   -7.4735 H   0  0  0  0  0  0  0  0  0  0  0  0
    3.1510   -1.3098   -9.9939 H   0  0  0  0  0  0  0  0  0  0  0  0
   -0.0137   -0.4989  -11.1196 H   0  0  0  0  0  0  0  0  0  0  0  0
    0.0349   -1.5703   -9.7175 H   0  0  0  0  0  0  0  0  0  0  0  0
   -2.8369   -0.4549   -9.1481 H   0  0  0  0  0  0  0  0  0  0  0  0
   -4.9950    0.0274   -7.9098 H   0  0  0  0  0  0  0  0  0  0  0  0
   -7.1671   -4.4686   -8.9452 H   0  0  0  0  0  0  0  0  0  0  0  0
   -8.9275   -4.2741   -9.0546 H   0  0  0  0  0  0  0  0  0  0  0  0
   -7.8506   -3.8928  -11.2648 H   0  0  0  0  0  0  0  0  0  0  0  0
   -6.8651   -2.5994  -10.5728 H   0  0  0  0  0  0  0  0  0  0  0  0
   -8.6181   -2.4122  -10.6830 H   0  0  0  0  0  0  0  0  0  0  0  0
   -2.3384    5.9801   -1.6706 H   0  0  0  0  0  0  0  0  0  0  0  0
   -1.6179    5.1519   -0.2767 H   0  0  0  0  0  0  0  0  0  0  0  0
   -3.1541    6.9627    0.4621 H   0  0  0  0  0  0  0  0  0  0  0  0
   -4.4868    6.2060   -0.4181 H   0  0  0  0  0  0  0  0  0  0  0  0
   -3.7644    5.3848    0.9692 H   0  0  0  0  0  0  0  0  0  0  0  0
   -6.2003    0.8882   -0.9285 H   0  0  0  0  0  0  0  0  0  0  0  0
   -9.9748   -1.9678   -1.2467 H   0  0  0  0  0  0  0  0  0  0  0  0
  -14.5373   -5.2220   -2.6605 H   0  0  0  0  0  0  0  0  0  0  0  0
  -12.9205   -5.8958   -2.9413 H   0  0  0  0  0  0  0  0  0  0  0  0
  -13.8122   -3.0709   -3.6996 H   0  0  0  0  0  0  0  0  0  0  0  0
  -13.5865   -4.4172   -4.8200 H   0  0  0  0  0  0  0  0  0  0  0  0
  -12.1978   -3.7376   -3.9646 H   0  0  0  0  0  0  0  0  0  0  0  0
   -3.1988   -2.1848    6.1190 H   0  0  0  0  0  0  0  0  0  0  0  0
   -3.6038   -3.8401    5.6304 H   0  0  0  0  0  0  0  0  0  0  0  0
   -4.8184   -2.3438    8.0033 H   0  0  0  0  0  0  0  0  0  0  0  0
   -3.6338   -3.6524    8.0953 H   0  0  0  0  0  0  0  0  0  0  0  0
   -5.2635   -3.9765    7.4958 H   0  0  0  0  0  0  0  0  0  0  0  0
   -8.9252   -3.6448    5.6368 H   0  0  0  0  0  0  0  0  0  0  0  0
  -11.1161   -5.0441    5.7796 H   0  0  0  0  0  0  0  0  0  0  0  0
  1  2  2  0  0  0  0
  2  3  1  0  0  0  0
  3  4  2  0  0  0  0
  4  5  1  0  0  0  0
  5  6  1  0  0  0  0
  6  7  1  0  0  0  0
  7  8  1  0  0  0  0
  8  9  1  0  0  0  0
  7 10  2  0  0  0  0
 10 11  1  0  0  0  0
 10 12  1  0  0  0  0
 12 13  1  0  0  0  0
  4 14  1  0  0  0  0
 14 15  2  0  0  0  0
 15 16  1  0  0  0  0
 16 17  1  0  0  0  0
 17 18  1  0  0  0  0
 18 19  1  0  0  0  0
 19 20  1  0  0  0  0
 20 21  1  0  0  0  0
 19 22  2  0  0  0  0
 22 23  1  0  0  0  0
 23 24  1  0  0  0  0
 22 25  1  0  0  0  0
 16 26  2  0  0  0  0
 26 27  1  0  0  0  0
 15 28  1  0  0  0  0
 28 29  2  0  0  0  0
 29 30  1  0  0  0  0
 29 31  1  0  0  0  0
 31 32  2  0  0  0  0
 32 33  1  0  0  0  0
 33 34  2  0  0  0  0
 34 35  1  0  0  0  0
 34 36  1  0  0  0  0
 36 37  2  0  0  0  0
 37 38  1  0  0  0  0
 37 39  1  0  0  0  0
 39 40  2  0  0  0  0
 40 41  1  0  0  0  0
 40 42  1  0  0  0  0
 42 43  2  0  0  0  0
 43 44  1  0  0  0  0
 44 45  2  0  0  0  0
 45 46  1  0  0  0  0
 46 47  1  0  0  0  0
 47 48  1  0  0  0  0
 48 49  1  0  0  0  0
 49 50  1  0  0  0  0
 48 51  2  0  0  0  0
 51 52  1  0  0  0  0
 51 53  1  0  0  0  0
 53 54  1  0  0  0  0
 45 55  1  0  0  0  0
 55 56  2  0  0  0  0
 56 57  1  0  0  0  0
 57 58  1  0  0  0  0
 58 59  1  0  0  0  0
 59 60  1  0  0  0  0
 60 61  1  0  0  0  0
 61 62  1  0  0  0  0
 60 63  2  0  0  0  0
 63 64  1  0  0  0  0
 64 65  1  0  0  0  0
 63 66  1  0  0  0  0
 57 67  2  0  0  0  0
 67 68  1  0  0  0  0
 56 69  1  0  0  0  0
 69 70  2  0  0  0  0
 70 71  1  0  0  0  0
 70 72  1  0  0  0  0
 72 73  2  0  0  0  0
 73 74  1  0  0  0  0
 74 75  2  0  0  0  0
 75 76  1  0  0  0  0
 75 77  1  0  0  0  0
 77 78  2  0  0  0  0
 78 79  1  0  0  0  0
 78 80  1  0  0  0  0
 80 81  2  0  0  0  0
 81 82  1  0  0  0  0
 81 83  1  0  0  0  0
 83 84  2  0  0  0  0
 84 85  1  0  0  0  0
 85 86  2  0  0  0  0
 86 87  1  0  0  0  0
 87 88  1  0  0  0  0
 88 89  1  0  0  0  0
 89 90  1  0  0  0  0
 90 91  1  0  0  0  0
 89 92  2  0  0  0  0
 92 93  1  0  0  0  0
 92 94  1  0  0  0  0
 94 95  1  0  0  0  0
 86 96  1  0  0  0  0
 96 97  2  0  0  0  0
 97 98  1  0  0  0  0
 98 99  1  0  0  0  0
 99100  1  0  0  0  0
100101  1  0  0  0  0
101102  1  0  0  0  0
102103  1  0  0  0  0
101104  2  0  0  0  0
104105  1  0  0  0  0
105106  1  0  0  0  0
104107  1  0  0  0  0
 98108  2  0  0  0  0
108109  1  0  0  0  0
 97110  1  0  0  0  0
110111  2  0  0  0  0
111112  1  0  0  0  0
111113  1  0  0  0  0
113114  2  0  0  0  0
114115  1  0  0  0  0
115116  2  0  0  0  0
116117  1  0  0  0  0
117118  1  0  0  0  0
118119  1  0  0  0  0
119120  1  0  0  0  0
120121  1  0  0  0  0
119122  2  0  0  0  0
122123  1  0  0  0  0
122124  1  0  0  0  0
124125  1  0  0  0  0
116126  1  0  0  0  0
126127  2  0  0  0  0
127128  1  0  0  0  0
128129  1  0  0  0  0
129130  1  0  0  0  0
130131  1  0  0  0  0
131132  1  0  0  0  0
132133  1  0  0  0  0
131134  2  0  0  0  0
134135  1  0  0  0  0
135136  1  0  0  0  0
134137  1  0  0  0  0
128138  2  0  0  0  0
138139  1  0  0  0  0
127140  1  0  0  0  0
140141  2  0  0  0  0
141142  1  0  0  0  0
 27  1  1  0  0  0  0
 35 31  1  0  0  0  0
 41 36  1  0  0  0  0
 68 42  1  0  0  0  0
 76 72  1  0  0  0  0
 82 77  1  0  0  0  0
109 83  1  0  0  0  0
139113  1  0  0  0  0
 26  3  1  0  0  0  0
 38 33  1  0  0  0  0
 67 44  1  0  0  0  0
 79 74  1  0  0  0  0
108 85  1  0  0  0  0
138115  1  0  0  0  0
 12  5  2  0  0  0  0
 30 14  1  0  0  0  0
 53 46  2  0  0  0  0
 71 55  1  0  0  0  0
 94 87  2  0  0  0  0
112 96  1  0  0  0  0
124117  2  0  0  0  0
142126  1  0  0  0  0
 23 17  2  0  0  0  0
 64 58  2  0  0  0  0
105 99  2  0  0  0  0
135129  2  0  0  0  0
  1143  1  0  0  0  0
  2144  1  0  0  0  0
  8145  1  0  0  0  0
  8146  1  0  0  0  0
  9147  1  0  0  0  0
  9148  1  0  0  0  0
  9149  1  0  0  0  0
 20150  1  0  0  0  0
 20151  1  0  0  0  0
 21152  1  0  0  0  0
 21153  1  0  0  0  0
 21154  1  0  0  0  0
 28155  1  0  0  0  0
 32156  1  0  0  0  0
 38157  1  0  0  0  0
 38158  1  0  0  0  0
 39159  1  0  0  0  0
 43160  1  0  0  0  0
 49161  1  0  0  0  0
 49162  1  0  0  0  0
 50163  1  0  0  0  0
 50164  1  0  0  0  0
 50165  1  0  0  0  0
 61166  1  0  0  0  0
 61167  1  0  0  0  0
 62168  1  0  0  0  0
 62169  1  0  0  0  0
 62170  1  0  0  0  0
 69171  1  0  0  0  0
 73172  1  0  0  0  0
 79173  1  0  0  0  0
 79174  1  0  0  0  0
 80175  1  0  0  0  0
 84176  1  0  0  0  0
 90177  1  0  0  0  0
 90178  1  0  0  0  0
 91179  1  0  0  0  0
 91180  1  0  0  0  0
 91181  1  0  0  0  0
102182  1  0  0  0  0
102183  1  0  0  0  0
103184  1  0  0  0  0
103185  1  0  0  0  0
103186  1  0  0  0  0
110187  1  0  0  0  0
114188  1  0  0  0  0
120189  1  0  0  0  0
120190  1  0  0  0  0
121191  1  0  0  0  0
121192  1  0  0  0  0
121193  1  0  0  0  0
132194  1  0  0  0  0
132195  1  0  0  0  0
133196  1  0  0  0  0
133197  1  0  0  0  0
133198  1  0  0  0  0
140199  1  0  0  0  0
141200  1  0  0  0  0
M  END
