173

C         15.24110      -10.32660       12.57970
C         15.73750      -10.56200       11.33120
C         14.77640      -10.31780       10.33930
C         13.56270       -9.89880       10.86730
S         13.59400       -9.80270       12.58200
C         12.65170       -9.66790        9.80440
C         13.28850       -9.94180        8.59710
C         14.70140      -10.38260        8.84270
C         12.46640       -9.73160        7.49290
C         11.20650       -9.29820        7.85450
S         11.03060       -9.15000        9.59390
C         10.12370       -8.95870        6.99940
C          8.88420       -8.50900        7.35340
C          8.04750       -8.21990        6.24990
C          6.71680       -7.76760        6.26480
C          6.02050       -7.49080        7.51010
S          6.69200       -6.41740        8.70340
C          5.32530       -6.59500        9.74940
C          5.22840       -5.84460       11.03150
C          4.61150       -4.46130       10.81070
C          4.40890       -7.43430        9.19030
Cl         2.92160       -7.85640        9.93420
C          4.79940       -7.94650        7.92400
Cl         3.85380       -9.09000        7.06670
C          6.10170       -7.57400        5.03400
C          6.75010       -7.82500        3.79980
C          8.08090       -8.28150        3.78500
C          8.77490       -8.52320        2.53050
S          8.10630       -9.57850        1.32010
C          9.44020       -9.32490        0.24670
C          9.46570       -9.93820       -1.10960
C          8.64340       -9.10450       -2.09540
C         10.33770       -8.46520        0.80470
C          9.96800       -8.01310        2.10050
Cl        10.89970       -6.86880        2.97110
Cl        11.78530       -7.96020        0.03410
C          8.69650       -8.46930        5.01380
S         10.31290       -9.06510        5.25950
C          5.93530       -7.48320        2.69460
C          4.71710       -6.98100        3.05210
S          4.50990       -6.92040        4.78720
C          3.69530       -6.48920        2.18500
C          3.63670       -6.59090        0.82440
C          2.53440       -5.90940        0.25480
C          2.20300       -5.76410       -1.10600
C          2.99400       -6.38860       -2.15420
S          4.71390       -6.15070       -2.27030
C          4.83640       -7.13100       -3.69110
C          6.13310       -7.31590       -4.39920
C          6.30980       -6.26480       -5.49780
C          3.60870       -7.60470       -4.04410
Cl         3.33270       -8.62050       -5.39890
C          2.56370       -7.18950       -3.17570
Cl         0.94740       -7.72560       -3.36590
C          1.10170       -4.97410       -1.40560
C          0.29930       -4.35640       -0.41240
C          0.61550       -4.52250        0.94570
C         -0.15180       -3.86900        1.99350
S         -0.81570       -4.77570        3.31960
C         -1.49160       -3.36100        4.04950
C         -2.20950       -3.43320        5.35180
C         -1.22990       -3.29050        6.51950
C         -1.20040       -2.25730        3.30470
C         -0.44450       -2.54110        2.13590
Cl         0.10710       -1.31070        1.07320
Cl        -1.69410       -0.66670        3.71870
C          1.72540       -5.30000        1.24430
S          2.35390       -5.57790        2.84110
C         -0.73980       -3.58120       -0.97580
C         -0.71250       -3.53590       -2.34030
S          0.57250       -4.52920       -3.00420
C         -1.52620       -2.74160       -3.19090
C         -1.50630       -2.66740       -4.57080
C         -2.36380       -1.68610       -5.05780
C         -3.04020       -1.00840       -4.04360
S         -2.64100       -1.58760       -2.48000
C         -3.82290        0.01890       -4.61650
C         -3.65120        0.00420       -6.00020
C         -2.72750       -1.11100       -6.39570
C         -4.33240        1.03370       -6.64060
C         -5.02280        1.84060       -5.75040
S         -4.84010        1.29690       -4.09350
C         -5.75730        3.02230       -6.03280
C         -5.89220        3.66830       -7.25090
C         -6.61810        4.84970       -7.14370
C         -7.04980        5.10630       -5.84300
S         -6.56470        3.88680       -4.73830
C         -7.73470        6.34270       -5.81990
C         -7.73680        6.88550       -7.10430
C         -7.03720        5.96290       -8.05870
C         -8.35650        8.12970       -7.16270
C         -8.83340        8.53550       -5.93120
S         -8.51360        7.35480       -4.67400
C         -9.48710        9.75530       -5.60850
C        -10.02460       10.12660       -4.41040
C        -10.57300       11.43240       -4.41290
C        -11.22410       12.10460       -3.36520
C        -11.40150       11.48990       -2.06000
S        -10.05100       10.85920       -1.16280
C        -11.05120       10.39320        0.17020
C        -10.46870        9.78570        1.39820
C         -9.98190       10.86720        2.36570
C        -12.35080       10.71890       -0.07810
Cl       -13.63890       10.40970        1.01240
C        -12.55430       11.33730       -1.34100
Cl       -14.11210       11.75970       -1.91650
C        -11.67410       13.39460       -3.62520
C        -11.51790       14.02700       -4.88100
C        -10.90930       13.33700       -5.94180
C        -10.77450       13.94330       -7.25650
S         -9.23330       14.05170       -8.05220
C         -9.91430       14.84580       -9.43130
C         -9.07000       15.21120      -10.60180
C         -8.83190       13.99770      -11.50330
C        -11.25950       14.99720       -9.27480
C        -11.75010       14.49300       -8.04010
Cl       -13.41620       14.51500       -7.62680
Cl       -12.28380       15.73090      -10.44040
C        -10.43680       12.06010       -5.67510
S         -9.64690       11.01410       -6.82160
C        -11.98500       15.37330       -4.85370
C        -12.47350       15.73250       -3.64920
S        -12.40380       14.47140       -2.46860
H         15.74740      -10.42870       13.51890
H         16.74330      -10.89280       11.14560
H         14.88430      -11.39160        8.46750
H         15.42360       -9.71520        8.36790
H         12.75180       -9.87620        6.46610
H          8.58580       -8.38970        8.37910
H          6.22470       -5.73450       11.46300
H          4.60660       -6.41470       11.72440
H          5.22380       -3.88000       10.12540
H          3.61390       -4.55690       10.38980
H          4.54230       -3.92880       11.75530
H         10.50120       -9.99290       -1.44990
H          9.05790      -10.94920       -1.06090
H          8.67640       -9.55420       -3.08410
H          7.60700       -9.05110       -1.76930
H          9.04420       -8.09540       -2.15580
H          6.25230       -7.57610        1.67300
H          4.36230       -7.13240        0.24710
H          6.95150       -7.23560       -3.68300
H          6.15150       -8.31290       -4.84400
H          7.25830       -6.41350       -6.00660
H          5.50690       -6.34260       -6.22620
H          6.29540       -5.26550       -5.06960
H         -2.72770       -4.39050        5.42650
H         -2.94730       -2.62950        5.39310
H         -1.76370       -3.35450        7.46390
H         -0.72230       -2.33060        6.46980
H         -0.48380       -4.08080        6.48440
H         -1.47860       -3.05910       -0.39600
H         -0.87610       -3.30020       -5.17030
H         -3.22810       -1.84610       -7.02980
H         -1.85180       -0.74630       -6.93580
H         -4.32610        1.20580       -7.70110
H         -5.46300        3.29350       -8.16170
H         -7.70550        5.61300       -8.84830
H         -6.18010        6.44230       -8.53570
H         -8.46410        8.73250       -8.04680
H        -10.02690        9.47800       -3.55330
H         -9.63210        9.14160        1.12210
H        -11.23420        9.17820        1.88460
H         -9.21700       11.47910        1.89360
H        -10.80850       11.50910        2.65960
H         -9.56220       10.40880        3.25710
H         -8.11040       15.59510      -10.25090
H         -9.57600       15.99580      -11.16710
H         -8.33180       13.20860      -10.94670
H         -8.21090       14.27740      -12.35000
H         -9.77810       13.61400      -11.87630
H        -11.93570       16.03510       -5.69840
H        -12.88340       16.68070       -3.36090
