
  xtb     03012204343D
 energy: -394.588741705782 gnorm: 0.000209503655 xtb: 6.4.1 (unknown)
200225  0     0  0            999 V2000
   15.4676    4.8209   11.1243 C   0  0  0  0  0  0  0  0  0  0  0  0
   14.5937    5.5986   10.4542 C   0  0  0  0  0  0  0  0  0  0  0  0
   14.1989    5.0376    9.2043 C   0  0  0  0  0  0  0  0  0  0  0  0
   13.2744    5.5414    8.2755 C   0  0  0  0  0  0  0  0  0  0  0  0
   12.5803    6.8016    8.4911 C   0  0  0  0  0  0  0  0  0  0  0  0
   13.4486    8.2814    8.7736 S   0  0  0  0  0  0  0  0  0  0  0  0
   11.9923    9.2119    8.8663 C   0  0  0  0  0  0  0  0  0  0  0  0
   12.0220   10.6703    9.1642 C   0  0  0  0  0  0  0  0  0  0  0  0
   12.0386   10.9190   10.6745 C   0  0  0  0  0  0  0  0  0  0  0  0
   10.9061    8.4065    8.6993 C   0  0  0  0  0  0  0  0  0  0  0  0
    9.2853    8.9675    8.7406 Cl  0  0  0  0  0  0  0  0  0  0  0  0
   11.2346    7.0415    8.4791 C   0  0  0  0  0  0  0  0  0  0  0  0
   10.0399    5.8258    8.3026 Cl  0  0  0  0  0  0  0  0  0  0  0  0
   13.0505    4.7846    7.1330 C   0  0  0  0  0  0  0  0  0  0  0  0
   13.6920    3.5447    6.8903 C   0  0  0  0  0  0  0  0  0  0  0  0
   14.5724    3.0135    7.8480 C   0  0  0  0  0  0  0  0  0  0  0  0
   15.1636    1.6979    7.6756 C   0  0  0  0  0  0  0  0  0  0  0  0
   16.8754    1.4327    7.8187 S   0  0  0  0  0  0  0  0  0  0  0  0
   16.7174   -0.2631    7.5130 C   0  0  0  0  0  0  0  0  0  0  0  0
   17.8988   -1.1683    7.5476 C   0  0  0  0  0  0  0  0  0  0  0  0
   18.1696   -1.6521    8.9744 C   0  0  0  0  0  0  0  0  0  0  0  0
   15.4078   -0.5912    7.3255 C   0  0  0  0  0  0  0  0  0  0  0  0
   14.5245    0.5174    7.4111 C   0  0  0  0  0  0  0  0  0  0  0  0
   12.8203    0.3518    7.2765 Cl  0  0  0  0  0  0  0  0  0  0  0  0
   14.8570   -2.1861    7.0101 Cl  0  0  0  0  0  0  0  0  0  0  0  0
   14.8229    3.7897    8.9734 C   0  0  0  0  0  0  0  0  0  0  0  0
   15.8687    3.3554   10.2967 S   0  0  0  0  0  0  0  0  0  0  0  0
   13.3455    3.0071    5.6274 C   0  0  0  0  0  0  0  0  0  0  0  0
   12.4550    3.7754    4.9316 C   0  0  0  0  0  0  0  0  0  0  0  0
   12.0200    5.2302    5.8055 S   0  0  0  0  0  0  0  0  0  0  0  0
   11.8580    3.4898    3.6710 C   0  0  0  0  0  0  0  0  0  0  0  0
   12.1189    2.4152    2.8391 C   0  0  0  0  0  0  0  0  0  0  0  0
   11.2942    2.4051    1.7197 C   0  0  0  0  0  0  0  0  0  0  0  0
   10.3995    3.4750    1.6958 C   0  0  0  0  0  0  0  0  0  0  0  0
   10.5815    4.5135    3.0476 S   0  0  0  0  0  0  0  0  0  0  0  0
    9.5504    3.3394    0.5727 C   0  0  0  0  0  0  0  0  0  0  0  0
    9.9031    2.1847   -0.1262 C   0  0  0  0  0  0  0  0  0  0  0  0
   11.0684    1.5110    0.5363 C   0  0  0  0  0  0  0  0  0  0  0  0
    9.0593    1.9233   -1.1996 C   0  0  0  0  0  0  0  0  0  0  0  0
    8.0582    2.8716   -1.3215 C   0  0  0  0  0  0  0  0  0  0  0  0
    8.1851    4.1246   -0.1038 S   0  0  0  0  0  0  0  0  0  0  0  0
    6.9370    2.8359   -2.1968 C   0  0  0  0  0  0  0  0  0  0  0  0
    6.6031    1.8487   -3.0821 C   0  0  0  0  0  0  0  0  0  0  0  0
    5.3146    2.0043   -3.6453 C   0  0  0  0  0  0  0  0  0  0  0  0
    4.6070    1.0959   -4.4533 C   0  0  0  0  0  0  0  0  0  0  0  0
    5.1762   -0.1837   -4.8451 C   0  0  0  0  0  0  0  0  0  0  0  0
    5.2352   -0.6591   -6.5160 S   0  0  0  0  0  0  0  0  0  0  0  0
    5.9651   -2.1824   -6.1379 C   0  0  0  0  0  0  0  0  0  0  0  0
    6.2606   -3.1765   -7.2058 C   0  0  0  0  0  0  0  0  0  0  0  0
    4.9761   -3.8523   -7.6908 C   0  0  0  0  0  0  0  0  0  0  0  0
    6.1364   -2.3036   -4.7915 C   0  0  0  0  0  0  0  0  0  0  0  0
    6.8226   -3.6809   -4.0303 Cl  0  0  0  0  0  0  0  0  0  0  0  0
    5.6940   -1.1713   -4.0551 C   0  0  0  0  0  0  0  0  0  0  0  0
    5.7374   -1.1126   -2.3389 Cl  0  0  0  0  0  0  0  0  0  0  0  0
    3.3110    1.4423   -4.8081 C   0  0  0  0  0  0  0  0  0  0  0  0
    2.7101    2.6628   -4.4173 C   0  0  0  0  0  0  0  0  0  0  0  0
    3.4041    3.5607   -3.5871 C   0  0  0  0  0  0  0  0  0  0  0  0
    2.7523    4.7602   -3.0852 C   0  0  0  0  0  0  0  0  0  0  0  0
    3.4821    6.3274   -3.2665 S   0  0  0  0  0  0  0  0  0  0  0  0
    2.1461    7.1258   -2.5112 C   0  0  0  0  0  0  0  0  0  0  0  0
    2.1511    8.5970   -2.2836 C   0  0  0  0  0  0  0  0  0  0  0  0
    2.8094    8.9353   -0.9436 C   0  0  0  0  0  0  0  0  0  0  0  0
    1.2052    6.2160   -2.1314 C   0  0  0  0  0  0  0  0  0  0  0  0
    1.5439    4.8747   -2.4528 C   0  0  0  0  0  0  0  0  0  0  0  0
    0.5458    3.5519   -1.9906 Cl  0  0  0  0  0  0  0  0  0  0  0  0
   -0.2692    6.6254   -1.3542 Cl  0  0  0  0  0  0  0  0  0  0  0  0
    4.6919    3.2047   -3.2178 C   0  0  0  0  0  0  0  0  0  0  0  0
    5.6995    4.0753   -2.0989 S   0  0  0  0  0  0  0  0  0  0  0  0
    1.3664    2.7501   -4.8442 C   0  0  0  0  0  0  0  0  0  0  0  0
    0.9040    1.6057   -5.4288 C   0  0  0  0  0  0  0  0  0  0  0  0
    2.1721    0.4147   -5.6361 S   0  0  0  0  0  0  0  0  0  0  0  0
   -0.4746    1.2885   -5.6220 C   0  0  0  0  0  0  0  0  0  0  0  0
   -1.5039    1.9727   -5.0405 C   0  0  0  0  0  0  0  0  0  0  0  0
   -2.7512    1.3202   -5.1463 C   0  0  0  0  0  0  0  0  0  0  0  0
   -3.9522    1.6805   -4.5082 C   0  0  0  0  0  0  0  0  0  0  0  0
   -4.0229    2.9098   -3.7331 C   0  0  0  0  0  0  0  0  0  0  0  0
   -3.6083    4.4429   -4.4447 S   0  0  0  0  0  0  0  0  0  0  0  0
   -3.8462    5.2915   -2.9555 C   0  0  0  0  0  0  0  0  0  0  0  0
   -3.6804    6.7684   -2.8716 C   0  0  0  0  0  0  0  0  0  0  0  0
   -4.9772    7.4886   -3.2471 C   0  0  0  0  0  0  0  0  0  0  0  0
   -4.2365    4.4265   -1.9780 C   0  0  0  0  0  0  0  0  0  0  0  0
   -4.5630    4.8987   -0.3616 Cl  0  0  0  0  0  0  0  0  0  0  0  0
   -4.3321    3.0761   -2.4121 C   0  0  0  0  0  0  0  0  0  0  0  0
   -4.7091    1.7938   -1.3401 Cl  0  0  0  0  0  0  0  0  0  0  0  0
   -5.0031    0.7825   -4.6025 C   0  0  0  0  0  0  0  0  0  0  0  0
   -4.9099   -0.4412   -5.3166 C   0  0  0  0  0  0  0  0  0  0  0  0
   -3.7097   -0.7924   -5.9603 C   0  0  0  0  0  0  0  0  0  0  0  0
   -3.5610   -2.0621   -6.6528 C   0  0  0  0  0  0  0  0  0  0  0  0
   -3.0133   -2.1246   -8.3014 S   0  0  0  0  0  0  0  0  0  0  0  0
   -3.0881   -3.8528   -8.3424 C   0  0  0  0  0  0  0  0  0  0  0  0
   -2.7688   -4.6092   -9.5843 C   0  0  0  0  0  0  0  0  0  0  0  0
   -3.9774   -4.6600  -10.5219 C   0  0  0  0  0  0  0  0  0  0  0  0
   -3.5173   -4.3370   -7.1430 C   0  0  0  0  0  0  0  0  0  0  0  0
   -3.7801   -3.3258   -6.1798 C   0  0  0  0  0  0  0  0  0  0  0  0
   -4.2416   -3.6874   -4.5657 Cl  0  0  0  0  0  0  0  0  0  0  0  0
   -3.7168   -6.0065   -6.8002 Cl  0  0  0  0  0  0  0  0  0  0  0  0
   -2.6521    0.1008   -5.8562 C   0  0  0  0  0  0  0  0  0  0  0  0
   -1.0198   -0.1800   -6.4029 S   0  0  0  0  0  0  0  0  0  0  0  0
   -6.1033   -1.1952   -5.2247 C   0  0  0  0  0  0  0  0  0  0  0  0
   -7.0625   -0.6116   -4.4470 C   0  0  0  0  0  0  0  0  0  0  0  0
   -6.5663    0.9666   -3.8628 S   0  0  0  0  0  0  0  0  0  0  0  0
   -8.2773   -1.1844   -3.9832 C   0  0  0  0  0  0  0  0  0  0  0  0
   -9.2227   -0.6022   -3.1604 C   0  0  0  0  0  0  0  0  0  0  0  0
  -10.1950   -1.5087   -2.7512 C   0  0  0  0  0  0  0  0  0  0  0  0
   -9.9900   -2.7894   -3.2639 C   0  0  0  0  0  0  0  0  0  0  0  0
   -8.6107   -2.8808   -4.2801 S   0  0  0  0  0  0  0  0  0  0  0  0
  -10.9573   -3.6641   -2.7163 C   0  0  0  0  0  0  0  0  0  0  0  0
  -11.7836   -2.9442   -1.8541 C   0  0  0  0  0  0  0  0  0  0  0  0
  -11.3829   -1.4990   -1.8356 C   0  0  0  0  0  0  0  0  0  0  0  0
  -12.7153   -3.7475   -1.2044 C   0  0  0  0  0  0  0  0  0  0  0  0
  -12.6003   -5.0766   -1.5632 C   0  0  0  0  0  0  0  0  0  0  0  0
  -11.3317   -5.3383   -2.7448 S   0  0  0  0  0  0  0  0  0  0  0  0
  -13.3343   -6.1809   -1.0515 C   0  0  0  0  0  0  0  0  0  0  0  0
  -13.2009   -7.4991   -1.3780 C   0  0  0  0  0  0  0  0  0  0  0  0
  -14.0593   -8.3552   -0.6466 C   0  0  0  0  0  0  0  0  0  0  0  0
  -14.1405   -9.7566   -0.7035 C   0  0  0  0  0  0  0  0  0  0  0  0
  -13.3737  -10.5101   -1.6801 C   0  0  0  0  0  0  0  0  0  0  0  0
  -12.3499  -11.8350   -1.2126 S   0  0  0  0  0  0  0  0  0  0  0  0
  -11.8557  -12.1305   -2.8440 C   0  0  0  0  0  0  0  0  0  0  0  0
  -10.8566  -13.1851   -3.1696 C   0  0  0  0  0  0  0  0  0  0  0  0
   -9.4300  -12.6445   -3.0432 C   0  0  0  0  0  0  0  0  0  0  0  0
  -12.4545  -11.2444   -3.6893 C   0  0  0  0  0  0  0  0  0  0  0  0
  -12.2121  -11.2296   -5.3882 Cl  0  0  0  0  0  0  0  0  0  0  0  0
  -13.3178  -10.3263   -3.0344 C   0  0  0  0  0  0  0  0  0  0  0  0
  -14.2489   -9.1637   -3.8876 Cl  0  0  0  0  0  0  0  0  0  0  0  0
  -14.9816  -10.3774    0.2125 C   0  0  0  0  0  0  0  0  0  0  0  0
  -15.7615   -9.6627    1.1507 C   0  0  0  0  0  0  0  0  0  0  0  0
  -15.7108   -8.2598    1.1814 C   0  0  0  0  0  0  0  0  0  0  0  0
  -16.4886   -7.4862    2.1369 C   0  0  0  0  0  0  0  0  0  0  0  0
  -16.3509   -7.7682    3.8474 S   0  0  0  0  0  0  0  0  0  0  0  0
  -17.4539   -6.4888    4.2280 C   0  0  0  0  0  0  0  0  0  0  0  0
  -17.8359   -6.1955    5.6369 C   0  0  0  0  0  0  0  0  0  0  0  0
  -18.8733   -7.1981    6.1470 C   0  0  0  0  0  0  0  0  0  0  0  0
  -17.9030   -5.8982    3.0855 C   0  0  0  0  0  0  0  0  0  0  0  0
  -17.3524   -6.4547    1.8989 C   0  0  0  0  0  0  0  0  0  0  0  0
  -17.8030   -5.9184    0.3349 Cl  0  0  0  0  0  0  0  0  0  0  0  0
  -19.0216   -4.5972    3.0549 Cl  0  0  0  0  0  0  0  0  0  0  0  0
  -14.8565   -7.6389    0.2802 C   0  0  0  0  0  0  0  0  0  0  0  0
  -14.5462   -5.9289    0.1914 S   0  0  0  0  0  0  0  0  0  0  0  0
  -16.5596  -10.5369    1.9449 C   0  0  0  0  0  0  0  0  0  0  0  0
  -16.3884  -11.8357    1.6257 C   0  0  0  0  0  0  0  0  0  0  0  0
  -15.2562  -12.0920    0.3429 S   0  0  0  0  0  0  0  0  0  0  0  0
   15.9185    5.0081   12.0791 H   0  0  0  0  0  0  0  0  0  0  0  0
   14.2292    6.5398   10.8222 H   0  0  0  0  0  0  0  0  0  0  0  0
   11.1354   11.1341    8.7280 H   0  0  0  0  0  0  0  0  0  0  0  0
   12.9098   11.1156    8.7121 H   0  0  0  0  0  0  0  0  0  0  0  0
   12.0489   11.9864   10.8772 H   0  0  0  0  0  0  0  0  0  0  0  0
   11.1556   10.4849   11.1367 H   0  0  0  0  0  0  0  0  0  0  0  0
   12.9224   10.4699   11.1215 H   0  0  0  0  0  0  0  0  0  0  0  0
   17.7037   -2.0265    6.9016 H   0  0  0  0  0  0  0  0  0  0  0  0
   18.7741   -0.6367    7.1713 H   0  0  0  0  0  0  0  0  0  0  0  0
   18.3583   -0.8052    9.6297 H   0  0  0  0  0  0  0  0  0  0  0  0
   17.3123   -2.2016    9.3546 H   0  0  0  0  0  0  0  0  0  0  0  0
   19.0372   -2.3063    8.9885 H   0  0  0  0  0  0  0  0  0  0  0  0
   13.7470    2.0858    5.2499 H   0  0  0  0  0  0  0  0  0  0  0  0
   12.8691    1.6772    3.0556 H   0  0  0  0  0  0  0  0  0  0  0  0
   10.8306    0.4886    0.8364 H   0  0  0  0  0  0  0  0  0  0  0  0
   11.9427    1.4717   -0.1169 H   0  0  0  0  0  0  0  0  0  0  0  0
    9.1435    1.0750   -1.8534 H   0  0  0  0  0  0  0  0  0  0  0  0
    7.2448    1.0170   -3.3027 H   0  0  0  0  0  0  0  0  0  0  0  0
    6.7443   -2.6750   -8.0465 H   0  0  0  0  0  0  0  0  0  0  0  0
    6.9452   -3.9259   -6.8052 H   0  0  0  0  0  0  0  0  0  0  0  0
    4.2925   -3.1118   -8.0994 H   0  0  0  0  0  0  0  0  0  0  0  0
    4.4831   -4.3612   -6.8664 H   0  0  0  0  0  0  0  0  0  0  0  0
    5.2063   -4.5814   -8.4630 H   0  0  0  0  0  0  0  0  0  0  0  0
    1.1205    8.9572   -2.2856 H   0  0  0  0  0  0  0  0  0  0  0  0
    2.6967    9.0868   -3.0916 H   0  0  0  0  0  0  0  0  0  0  0  0
    3.8352    8.5752   -0.9258 H   0  0  0  0  0  0  0  0  0  0  0  0
    2.2634    8.4687   -0.1276 H   0  0  0  0  0  0  0  0  0  0  0  0
    2.8131   10.0110   -0.7904 H   0  0  0  0  0  0  0  0  0  0  0  0
    0.7563    3.6203   -4.6977 H   0  0  0  0  0  0  0  0  0  0  0  0
   -1.3624    2.8792   -4.4839 H   0  0  0  0  0  0  0  0  0  0  0  0
   -2.8806    7.0814   -3.5451 H   0  0  0  0  0  0  0  0  0  0  0  0
   -3.3990    7.0308   -1.8500 H   0  0  0  0  0  0  0  0  0  0  0  0
   -5.2683    7.2360   -4.2640 H   0  0  0  0  0  0  0  0  0  0  0  0
   -5.7784    7.1967   -2.5730 H   0  0  0  0  0  0  0  0  0  0  0  0
   -4.8394    8.5644   -3.1798 H   0  0  0  0  0  0  0  0  0  0  0  0
   -1.9328   -4.1286  -10.0954 H   0  0  0  0  0  0  0  0  0  0  0  0
   -2.4757   -5.6241   -9.3095 H   0  0  0  0  0  0  0  0  0  0  0  0
   -3.7289   -5.2164  -11.4216 H   0  0  0  0  0  0  0  0  0  0  0  0
   -4.8152   -5.1480  -10.0305 H   0  0  0  0  0  0  0  0  0  0  0  0
   -4.2774   -3.6537  -10.8044 H   0  0  0  0  0  0  0  0  0  0  0  0
   -6.2462   -2.1509   -5.6946 H   0  0  0  0  0  0  0  0  0  0  0  0
   -9.1701    0.4311   -2.8666 H   0  0  0  0  0  0  0  0  0  0  0  0
  -11.1220   -1.1598   -0.8314 H   0  0  0  0  0  0  0  0  0  0  0  0
  -12.1792   -0.8515   -2.2092 H   0  0  0  0  0  0  0  0  0  0  0  0
  -13.4425   -3.4061   -0.4893 H   0  0  0  0  0  0  0  0  0  0  0  0
  -12.4877   -7.8447   -2.1041 H   0  0  0  0  0  0  0  0  0  0  0  0
  -11.0280  -13.5268   -4.1920 H   0  0  0  0  0  0  0  0  0  0  0  0
  -10.9874  -14.0290   -2.4904 H   0  0  0  0  0  0  0  0  0  0  0  0
   -9.2455  -12.3013   -2.0280 H   0  0  0  0  0  0  0  0  0  0  0  0
   -8.7127  -13.4241   -3.2846 H   0  0  0  0  0  0  0  0  0  0  0  0
   -9.2813  -11.8108   -3.7246 H   0  0  0  0  0  0  0  0  0  0  0  0
  -18.2471   -5.1857    5.6821 H   0  0  0  0  0  0  0  0  0  0  0  0
  -16.9480   -6.2405    6.2705 H   0  0  0  0  0  0  0  0  0  0  0  0
  -18.4702   -8.2076    6.1127 H   0  0  0  0  0  0  0  0  0  0  0  0
  -19.7693   -7.1593    5.5327 H   0  0  0  0  0  0  0  0  0  0  0  0
  -19.1442   -6.9651    7.1732 H   0  0  0  0  0  0  0  0  0  0  0  0
  -17.2294  -10.1943    2.7120 H   0  0  0  0  0  0  0  0  0  0  0  0
  -16.8641  -12.6902    2.0656 H   0  0  0  0  0  0  0  0  0  0  0  0
  1  2  2  0  0  0  0
  2  3  1  0  0  0  0
  3  4  2  0  0  0  0
  4  5  1  0  0  0  0
  5  6  1  0  0  0  0
  6  7  1  0  0  0  0
  7  8  1  0  0  0  0
  8  9  1  0  0  0  0
  7 10  2  0  0  0  0
 10 11  1  0  0  0  0
 10 12  1  0  0  0  0
 12 13  1  0  0  0  0
  4 14  1  0  0  0  0
 14 15  2  0  0  0  0
 15 16  1  0  0  0  0
 16 17  1  0  0  0  0
 17 18  1  0  0  0  0
 18 19  1  0  0  0  0
 19 20  1  0  0  0  0
 20 21  1  0  0  0  0
 19 22  2  0  0  0  0
 22 23  1  0  0  0  0
 23 24  1  0  0  0  0
 22 25  1  0  0  0  0
 16 26  2  0  0  0  0
 26 27  1  0  0  0  0
 15 28  1  0  0  0  0
 28 29  2  0  0  0  0
 29 30  1  0  0  0  0
 29 31  1  0  0  0  0
 31 32  2  0  0  0  0
 32 33  1  0  0  0  0
 33 34  2  0  0  0  0
 34 35  1  0  0  0  0
 34 36  1  0  0  0  0
 36 37  2  0  0  0  0
 37 38  1  0  0  0  0
 37 39  1  0  0  0  0
 39 40  2  0  0  0  0
 40 41  1  0  0  0  0
 40 42  1  0  0  0  0
 42 43  2  0  0  0  0
 43 44  1  0  0  0  0
 44 45  2  0  0  0  0
 45 46  1  0  0  0  0
 46 47  1  0  0  0  0
 47 48  1  0  0  0  0
 48 49  1  0  0  0  0
 49 50  1  0  0  0  0
 48 51  2  0  0  0  0
 51 52  1  0  0  0  0
 51 53  1  0  0  0  0
 53 54  1  0  0  0  0
 45 55  1  0  0  0  0
 55 56  2  0  0  0  0
 56 57  1  0  0  0  0
 57 58  1  0  0  0  0
 58 59  1  0  0  0  0
 59 60  1  0  0  0  0
 60 61  1  0  0  0  0
 61 62  1  0  0  0  0
 60 63  2  0  0  0  0
 63 64  1  0  0  0  0
 64 65  1  0  0  0  0
 63 66  1  0  0  0  0
 57 67  2  0  0  0  0
 67 68  1  0  0  0  0
 56 69  1  0  0  0  0
 69 70  2  0  0  0  0
 70 71  1  0  0  0  0
 70 72  1  0  0  0  0
 72 73  2  0  0  0  0
 73 74  1  0  0  0  0
 74 75  2  0  0  0  0
 75 76  1  0  0  0  0
 76 77  1  0  0  0  0
 77 78  1  0  0  0  0
 78 79  1  0  0  0  0
 79 80  1  0  0  0  0
 78 81  2  0  0  0  0
 81 82  1  0  0  0  0
 81 83  1  0  0  0  0
 83 84  1  0  0  0  0
 75 85  1  0  0  0  0
 85 86  2  0  0  0  0
 86 87  1  0  0  0  0
 87 88  1  0  0  0  0
 88 89  1  0  0  0  0
 89 90  1  0  0  0  0
 90 91  1  0  0  0  0
 91 92  1  0  0  0  0
 90 93  2  0  0  0  0
 93 94  1  0  0  0  0
 94 95  1  0  0  0  0
 93 96  1  0  0  0  0
 87 97  2  0  0  0  0
 97 98  1  0  0  0  0
 86 99  1  0  0  0  0
 99100  2  0  0  0  0
100101  1  0  0  0  0
100102  1  0  0  0  0
102103  2  0  0  0  0
103104  1  0  0  0  0
104105  2  0  0  0  0
105106  1  0  0  0  0
105107  1  0  0  0  0
107108  2  0  0  0  0
108109  1  0  0  0  0
108110  1  0  0  0  0
110111  2  0  0  0  0
111112  1  0  0  0  0
111113  1  0  0  0  0
113114  2  0  0  0  0
114115  1  0  0  0  0
115116  2  0  0  0  0
116117  1  0  0  0  0
117118  1  0  0  0  0
118119  1  0  0  0  0
119120  1  0  0  0  0
120121  1  0  0  0  0
119122  2  0  0  0  0
122123  1  0  0  0  0
122124  1  0  0  0  0
124125  1  0  0  0  0
116126  1  0  0  0  0
126127  2  0  0  0  0
127128  1  0  0  0  0
128129  1  0  0  0  0
129130  1  0  0  0  0
130131  1  0  0  0  0
131132  1  0  0  0  0
132133  1  0  0  0  0
131134  2  0  0  0  0
134135  1  0  0  0  0
135136  1  0  0  0  0
134137  1  0  0  0  0
128138  2  0  0  0  0
138139  1  0  0  0  0
127140  1  0  0  0  0
140141  2  0  0  0  0
141142  1  0  0  0  0
 27  1  1  0  0  0  0
 35 31  1  0  0  0  0
 41 36  1  0  0  0  0
 68 42  1  0  0  0  0
 98 72  1  0  0  0  0
106102  1  0  0  0  0
112107  1  0  0  0  0
139113  1  0  0  0  0
 26  3  1  0  0  0  0
 38 33  1  0  0  0  0
 67 44  1  0  0  0  0
 97 74  1  0  0  0  0
109104  1  0  0  0  0
138115  1  0  0  0  0
 12  5  2  0  0  0  0
 30 14  1  0  0  0  0
 53 46  2  0  0  0  0
 71 55  1  0  0  0  0
 83 76  2  0  0  0  0
101 85  1  0  0  0  0
124117  2  0  0  0  0
142126  1  0  0  0  0
 23 17  2  0  0  0  0
 64 58  2  0  0  0  0
 94 88  2  0  0  0  0
135129  2  0  0  0  0
  1143  1  0  0  0  0
  2144  1  0  0  0  0
  8145  1  0  0  0  0
  8146  1  0  0  0  0
  9147  1  0  0  0  0
  9148  1  0  0  0  0
  9149  1  0  0  0  0
 20150  1  0  0  0  0
 20151  1  0  0  0  0
 21152  1  0  0  0  0
 21153  1  0  0  0  0
 21154  1  0  0  0  0
 28155  1  0  0  0  0
 32156  1  0  0  0  0
 38157  1  0  0  0  0
 38158  1  0  0  0  0
 39159  1  0  0  0  0
 43160  1  0  0  0  0
 49161  1  0  0  0  0
 49162  1  0  0  0  0
 50163  1  0  0  0  0
 50164  1  0  0  0  0
 50165  1  0  0  0  0
 61166  1  0  0  0  0
 61167  1  0  0  0  0
 62168  1  0  0  0  0
 62169  1  0  0  0  0
 62170  1  0  0  0  0
 69171  1  0  0  0  0
 73172  1  0  0  0  0
 79173  1  0  0  0  0
 79174  1  0  0  0  0
 80175  1  0  0  0  0
 80176  1  0  0  0  0
 80177  1  0  0  0  0
 91178  1  0  0  0  0
 91179  1  0  0  0  0
 92180  1  0  0  0  0
 92181  1  0  0  0  0
 92182  1  0  0  0  0
 99183  1  0  0  0  0
103184  1  0  0  0  0
109185  1  0  0  0  0
109186  1  0  0  0  0
110187  1  0  0  0  0
114188  1  0  0  0  0
120189  1  0  0  0  0
120190  1  0  0  0  0
121191  1  0  0  0  0
121192  1  0  0  0  0
121193  1  0  0  0  0
132194  1  0  0  0  0
132195  1  0  0  0  0
133196  1  0  0  0  0
133197  1  0  0  0  0
133198  1  0  0  0  0
140199  1  0  0  0  0
141200  1  0  0  0  0
M  END
