
  xtb     03022210543D
 energy: -281.208349585496 gnorm: 0.000182450873 xtb: 6.4.1 (unknown)
146167  0     0  0            999 V2000
    8.4251   15.2261   -0.1051 C   0  0  0  0  0  0  0  0  0  0  0  0
    8.3815   15.5343   -1.4330 C   0  0  0  0  0  0  0  0  0  0  0  0
    7.1995   15.0742   -2.0316 C   0  0  0  0  0  0  0  0  0  0  0  0
    6.3675   14.4213   -1.1327 C   0  0  0  0  0  0  0  0  0  0  0  0
    7.0301   14.3689    0.4513 S   0  0  0  0  0  0  0  0  0  0  0  0
    5.2040   13.9816   -1.8147 C   0  0  0  0  0  0  0  0  0  0  0  0
    5.2949   14.3574   -3.1515 C   0  0  0  0  0  0  0  0  0  0  0  0
    6.5813   15.0907   -3.3987 C   0  0  0  0  0  0  0  0  0  0  0  0
    4.1961   13.9536   -3.9057 C   0  0  0  0  0  0  0  0  0  0  0  0
    3.2640   13.2661   -3.1483 C   0  0  0  0  0  0  0  0  0  0  0  0
    3.7579   13.1266   -1.4707 S   0  0  0  0  0  0  0  0  0  0  0  0
    2.0501   12.6724   -3.5862 C   0  0  0  0  0  0  0  0  0  0  0  0
    1.5230   12.6579   -4.8671 C   0  0  0  0  0  0  0  0  0  0  0  0
    0.3435   11.9244   -4.9448 C   0  0  0  0  0  0  0  0  0  0  0  0
   -0.0381   11.3800   -3.7198 C   0  0  0  0  0  0  0  0  0  0  0  0
    1.0523   11.7772   -2.4560 S   0  0  0  0  0  0  0  0  0  0  0  0
   -1.1964   10.5932   -3.9051 C   0  0  0  0  0  0  0  0  0  0  0  0
   -1.5632   10.6285   -5.2501 C   0  0  0  0  0  0  0  0  0  0  0  0
   -0.6223   11.5117   -6.0182 C   0  0  0  0  0  0  0  0  0  0  0  0
   -2.6479    9.8065   -5.5376 C   0  0  0  0  0  0  0  0  0  0  0  0
   -3.1119    9.1370   -4.4170 C   0  0  0  0  0  0  0  0  0  0  0  0
   -2.2040    9.5635   -2.9762 S   0  0  0  0  0  0  0  0  0  0  0  0
   -4.0902    8.1108   -4.3452 C   0  0  0  0  0  0  0  0  0  0  0  0
   -4.7287    7.4614   -5.3901 C   0  0  0  0  0  0  0  0  0  0  0  0
   -5.4740    6.3695   -4.9560 C   0  0  0  0  0  0  0  0  0  0  0  0
   -5.4246    6.1965   -3.5735 C   0  0  0  0  0  0  0  0  0  0  0  0
   -4.4731    7.3910   -2.7926 S   0  0  0  0  0  0  0  0  0  0  0  0
   -6.0490    4.9759   -3.2379 C   0  0  0  0  0  0  0  0  0  0  0  0
   -6.4950    4.3532   -4.4032 C   0  0  0  0  0  0  0  0  0  0  0  0
   -6.2275    5.2345   -5.5901 C   0  0  0  0  0  0  0  0  0  0  0  0
   -6.9466    3.0554   -4.1798 C   0  0  0  0  0  0  0  0  0  0  0  0
   -6.8498    2.6880   -2.8508 C   0  0  0  0  0  0  0  0  0  0  0  0
   -6.2365    3.9936   -1.8462 S   0  0  0  0  0  0  0  0  0  0  0  0
   -6.9426    1.3914   -2.2780 C   0  0  0  0  0  0  0  0  0  0  0  0
   -6.7440    1.0660   -0.9664 C   0  0  0  0  0  0  0  0  0  0  0  0
   -6.5347   -0.3139   -0.7473 C   0  0  0  0  0  0  0  0  0  0  0  0
   -6.1700   -0.9518    0.4522 C   0  0  0  0  0  0  0  0  0  0  0  0
   -6.1359   -0.2642    1.7304 C   0  0  0  0  0  0  0  0  0  0  0  0
   -5.3162    1.2525    1.9606 S   0  0  0  0  0  0  0  0  0  0  0  0
   -5.6986    1.2977    3.6474 C   0  0  0  0  0  0  0  0  0  0  0  0
   -5.3074    2.4578    4.4941 C   0  0  0  0  0  0  0  0  0  0  0  0
   -6.3004    3.6112    4.3310 C   0  0  0  0  0  0  0  0  0  0  0  0
   -6.4266    0.1999    3.9959 C   0  0  0  0  0  0  0  0  0  0  0  0
   -7.0044   -0.1012    5.5833 Cl  0  0  0  0  0  0  0  0  0  0  0  0
   -6.6670   -0.6918    2.9170 C   0  0  0  0  0  0  0  0  0  0  0  0
   -7.6064   -2.1141    3.0943 Cl  0  0  0  0  0  0  0  0  0  0  0  0
   -5.7537   -2.2729    0.3500 C   0  0  0  0  0  0  0  0  0  0  0  0
   -5.7982   -3.0100   -0.8567 C   0  0  0  0  0  0  0  0  0  0  0  0
   -6.3435   -2.4207   -2.0172 C   0  0  0  0  0  0  0  0  0  0  0  0
   -6.5274   -3.2045   -3.2217 C   0  0  0  0  0  0  0  0  0  0  0  0
   -6.0536   -2.6315   -4.7941 S   0  0  0  0  0  0  0  0  0  0  0  0
   -6.6008   -4.0762   -5.5737 C   0  0  0  0  0  0  0  0  0  0  0  0
   -6.4340   -4.2768   -7.0395 C   0  0  0  0  0  0  0  0  0  0  0  0
   -5.0902   -4.9394   -7.3527 C   0  0  0  0  0  0  0  0  0  0  0  0
   -7.1141   -4.9446   -4.6568 C   0  0  0  0  0  0  0  0  0  0  0  0
   -7.0783   -4.4549   -3.3252 C   0  0  0  0  0  0  0  0  0  0  0  0
   -7.7476   -5.3295   -2.0082 Cl  0  0  0  0  0  0  0  0  0  0  0  0
   -7.7616   -6.4831   -5.0571 Cl  0  0  0  0  0  0  0  0  0  0  0  0
   -6.6282   -1.0631   -1.9474 C   0  0  0  0  0  0  0  0  0  0  0  0
   -7.0355   -0.0364   -3.2977 S   0  0  0  0  0  0  0  0  0  0  0  0
   -5.0857   -4.2293   -0.7581 C   0  0  0  0  0  0  0  0  0  0  0  0
   -4.4943   -4.4173    0.4608 C   0  0  0  0  0  0  0  0  0  0  0  0
   -4.9070   -3.1451    1.5929 S   0  0  0  0  0  0  0  0  0  0  0  0
   -3.4928   -5.3664    0.8127 C   0  0  0  0  0  0  0  0  0  0  0  0
   -3.0264   -6.4396    0.0744 C   0  0  0  0  0  0  0  0  0  0  0  0
   -1.8678   -6.9874    0.6182 C   0  0  0  0  0  0  0  0  0  0  0  0
   -1.4537   -6.3314    1.7769 C   0  0  0  0  0  0  0  0  0  0  0  0
   -2.5086   -5.0605    2.2301 S   0  0  0  0  0  0  0  0  0  0  0  0
   -0.2001   -6.8469    2.1765 C   0  0  0  0  0  0  0  0  0  0  0  0
    0.1936   -7.8376    1.2789 C   0  0  0  0  0  0  0  0  0  0  0  0
   -0.8694   -8.0433    0.2386 C   0  0  0  0  0  0  0  0  0  0  0  0
    1.4777   -8.3126    1.5326 C   0  0  0  0  0  0  0  0  0  0  0  0
    2.0649   -7.6815    2.6123 C   0  0  0  0  0  0  0  0  0  0  0  0
    0.9986   -6.5017    3.3525 S   0  0  0  0  0  0  0  0  0  0  0  0
    3.3918   -7.8228    3.1012 C   0  0  0  0  0  0  0  0  0  0  0  0
    3.9740   -7.1297    4.1226 C   0  0  0  0  0  0  0  0  0  0  0  0
    5.3386   -7.4486    4.3231 C   0  0  0  0  0  0  0  0  0  0  0  0
    6.2356   -6.8792    5.2423 C   0  0  0  0  0  0  0  0  0  0  0  0
    5.8114   -5.8446    6.1709 C   0  0  0  0  0  0  0  0  0  0  0  0
    4.4526   -6.0764    7.2319 S   0  0  0  0  0  0  0  0  0  0  0  0
    4.6342   -4.5076    7.9390 C   0  0  0  0  0  0  0  0  0  0  0  0
    3.6760   -4.0058    8.9620 C   0  0  0  0  0  0  0  0  0  0  0  0
    2.4458   -3.3841    8.2960 C   0  0  0  0  0  0  0  0  0  0  0  0
    5.6841   -3.8518    7.3695 C   0  0  0  0  0  0  0  0  0  0  0  0
    6.1671   -2.2632    7.8023 Cl  0  0  0  0  0  0  0  0  0  0  0  0
    6.3578   -4.6075    6.3725 C   0  0  0  0  0  0  0  0  0  0  0  0
    7.6643   -3.9702    5.4651 Cl  0  0  0  0  0  0  0  0  0  0  0  0
    7.5442   -7.3486    5.2202 C   0  0  0  0  0  0  0  0  0  0  0  0
    7.9953   -8.3266    4.3028 C   0  0  0  0  0  0  0  0  0  0  0  0
    7.1113   -8.8542    3.3475 C   0  0  0  0  0  0  0  0  0  0  0  0
    7.5714   -9.7855    2.3306 C   0  0  0  0  0  0  0  0  0  0  0  0
    6.7889  -11.3123    2.0564 S   0  0  0  0  0  0  0  0  0  0  0  0
    7.8673  -11.7205    0.7661 C   0  0  0  0  0  0  0  0  0  0  0  0
    7.7777  -13.0314    0.0658 C   0  0  0  0  0  0  0  0  0  0  0  0
    8.6363  -14.0861    0.7679 C   0  0  0  0  0  0  0  0  0  0  0  0
    8.7775  -10.7241    0.5749 C   0  0  0  0  0  0  0  0  0  0  0  0
    8.6109   -9.6236    1.4569 C   0  0  0  0  0  0  0  0  0  0  0  0
    9.5786   -8.2085    1.3651 Cl  0  0  0  0  0  0  0  0  0  0  0  0
   10.0065  -10.7690   -0.6222 Cl  0  0  0  0  0  0  0  0  0  0  0  0
    5.7938   -8.4221    3.4007 C   0  0  0  0  0  0  0  0  0  0  0  0
    4.5169   -8.9249    2.3271 S   0  0  0  0  0  0  0  0  0  0  0  0
    9.3568   -8.6775    4.5360 C   0  0  0  0  0  0  0  0  0  0  0  0
    9.9024   -7.9987    5.5657 C   0  0  0  0  0  0  0  0  0  0  0  0
    8.8120   -6.8897    6.3206 S   0  0  0  0  0  0  0  0  0  0  0  0
    9.2022   15.4508    0.5980 H   0  0  0  0  0  0  0  0  0  0  0  0
    9.1649   16.0642   -1.9445 H   0  0  0  0  0  0  0  0  0  0  0  0
    6.4086   16.1078   -3.7565 H   0  0  0  0  0  0  0  0  0  0  0  0
    7.2054   14.5796   -4.1349 H   0  0  0  0  0  0  0  0  0  0  0  0
    4.0734   14.1398   -4.9568 H   0  0  0  0  0  0  0  0  0  0  0  0
    1.9932   13.1519   -5.6974 H   0  0  0  0  0  0  0  0  0  0  0  0
   -1.1361   12.3711   -6.4543 H   0  0  0  0  0  0  0  0  0  0  0  0
   -0.1264   10.9728   -6.8279 H   0  0  0  0  0  0  0  0  0  0  0  0
   -3.0793    9.6788   -6.5135 H   0  0  0  0  0  0  0  0  0  0  0  0
   -4.6118    7.7551   -6.4171 H   0  0  0  0  0  0  0  0  0  0  0  0
   -5.6352    4.7259   -6.3526 H   0  0  0  0  0  0  0  0  0  0  0  0
   -7.1543    5.5743   -6.0581 H   0  0  0  0  0  0  0  0  0  0  0  0
   -7.2936    2.3761   -4.9381 H   0  0  0  0  0  0  0  0  0  0  0  0
   -6.6782    1.8107   -0.1947 H   0  0  0  0  0  0  0  0  0  0  0  0
   -4.3096    2.7960    4.2092 H   0  0  0  0  0  0  0  0  0  0  0  0
   -5.2851    2.1370    5.5370 H   0  0  0  0  0  0  0  0  0  0  0  0
   -7.2987    3.2925    4.6203 H   0  0  0  0  0  0  0  0  0  0  0  0
   -6.3264    3.9427    3.2956 H   0  0  0  0  0  0  0  0  0  0  0  0
   -6.0063    4.4484    4.9582 H   0  0  0  0  0  0  0  0  0  0  0  0
   -6.4908   -3.3111   -7.5440 H   0  0  0  0  0  0  0  0  0  0  0  0
   -7.2453   -4.9113   -7.4019 H   0  0  0  0  0  0  0  0  0  0  0  0
   -4.9836   -5.0788   -8.4250 H   0  0  0  0  0  0  0  0  0  0  0  0
   -5.0273   -5.9099   -6.8672 H   0  0  0  0  0  0  0  0  0  0  0  0
   -4.2717   -4.3181   -6.9973 H   0  0  0  0  0  0  0  0  0  0  0  0
   -4.9357   -4.8926   -1.5896 H   0  0  0  0  0  0  0  0  0  0  0  0
   -3.5058   -6.7804   -0.8250 H   0  0  0  0  0  0  0  0  0  0  0  0
   -1.2994   -9.0459    0.2920 H   0  0  0  0  0  0  0  0  0  0  0  0
   -0.4853   -7.8988   -0.7727 H   0  0  0  0  0  0  0  0  0  0  0  0
    1.9905   -9.0640    0.9590 H   0  0  0  0  0  0  0  0  0  0  0  0
    3.4391   -6.3992    4.7017 H   0  0  0  0  0  0  0  0  0  0  0  0
    3.3639   -4.8314    9.6037 H   0  0  0  0  0  0  0  0  0  0  0  0
    4.1788   -3.2552    9.5745 H   0  0  0  0  0  0  0  0  0  0  0  0
    1.9335   -4.1226    7.6838 H   0  0  0  0  0  0  0  0  0  0  0  0
    2.7410   -2.5516    7.6623 H   0  0  0  0  0  0  0  0  0  0  0  0
    1.7565   -3.0188    9.0523 H   0  0  0  0  0  0  0  0  0  0  0  0
    8.1250  -12.9047   -0.9615 H   0  0  0  0  0  0  0  0  0  0  0  0
    6.7377  -13.3605    0.0472 H   0  0  0  0  0  0  0  0  0  0  0  0
    9.6778  -13.7754    0.7806 H   0  0  0  0  0  0  0  0  0  0  0  0
    8.5624  -15.0360    0.2454 H   0  0  0  0  0  0  0  0  0  0  0  0
    8.3011  -14.2235    1.7931 H   0  0  0  0  0  0  0  0  0  0  0  0
    9.8844   -9.4176    3.9633 H   0  0  0  0  0  0  0  0  0  0  0  0
   10.9016   -8.0735    5.9481 H   0  0  0  0  0  0  0  0  0  0  0  0
  1  2  2  0  0  0  0
  2  3  1  0  0  0  0
  3  4  2  0  0  0  0
  4  5  1  0  0  0  0
  4  6  1  0  0  0  0
  6  7  2  0  0  0  0
  7  8  1  0  0  0  0
  7  9  1  0  0  0  0
  9 10  2  0  0  0  0
 10 11  1  0  0  0  0
 10 12  1  0  0  0  0
 12 13  2  0  0  0  0
 13 14  1  0  0  0  0
 14 15  2  0  0  0  0
 15 16  1  0  0  0  0
 15 17  1  0  0  0  0
 17 18  2  0  0  0  0
 18 19  1  0  0  0  0
 18 20  1  0  0  0  0
 20 21  2  0  0  0  0
 21 22  1  0  0  0  0
 21 23  1  0  0  0  0
 23 24  2  0  0  0  0
 24 25  1  0  0  0  0
 25 26  2  0  0  0  0
 26 27  1  0  0  0  0
 26 28  1  0  0  0  0
 28 29  2  0  0  0  0
 29 30  1  0  0  0  0
 29 31  1  0  0  0  0
 31 32  2  0  0  0  0
 32 33  1  0  0  0  0
 32 34  1  0  0  0  0
 34 35  2  0  0  0  0
 35 36  1  0  0  0  0
 36 37  2  0  0  0  0
 37 38  1  0  0  0  0
 38 39  1  0  0  0  0
 39 40  1  0  0  0  0
 40 41  1  0  0  0  0
 41 42  1  0  0  0  0
 40 43  2  0  0  0  0
 43 44  1  0  0  0  0
 43 45  1  0  0  0  0
 45 46  1  0  0  0  0
 37 47  1  0  0  0  0
 47 48  2  0  0  0  0
 48 49  1  0  0  0  0
 49 50  1  0  0  0  0
 50 51  1  0  0  0  0
 51 52  1  0  0  0  0
 52 53  1  0  0  0  0
 53 54  1  0  0  0  0
 52 55  2  0  0  0  0
 55 56  1  0  0  0  0
 56 57  1  0  0  0  0
 55 58  1  0  0  0  0
 49 59  2  0  0  0  0
 59 60  1  0  0  0  0
 48 61  1  0  0  0  0
 61 62  2  0  0  0  0
 62 63  1  0  0  0  0
 62 64  1  0  0  0  0
 64 65  2  0  0  0  0
 65 66  1  0  0  0  0
 66 67  2  0  0  0  0
 67 68  1  0  0  0  0
 67 69  1  0  0  0  0
 69 70  2  0  0  0  0
 70 71  1  0  0  0  0
 70 72  1  0  0  0  0
 72 73  2  0  0  0  0
 73 74  1  0  0  0  0
 73 75  1  0  0  0  0
 75 76  2  0  0  0  0
 76 77  1  0  0  0  0
 77 78  2  0  0  0  0
 78 79  1  0  0  0  0
 79 80  1  0  0  0  0
 80 81  1  0  0  0  0
 81 82  1  0  0  0  0
 82 83  1  0  0  0  0
 81 84  2  0  0  0  0
 84 85  1  0  0  0  0
 84 86  1  0  0  0  0
 86 87  1  0  0  0  0
 78 88  1  0  0  0  0
 88 89  2  0  0  0  0
 89 90  1  0  0  0  0
 90 91  1  0  0  0  0
 91 92  1  0  0  0  0
 92 93  1  0  0  0  0
 93 94  1  0  0  0  0
 94 95  1  0  0  0  0
 93 96  2  0  0  0  0
 96 97  1  0  0  0  0
 97 98  1  0  0  0  0
 96 99  1  0  0  0  0
 90100  2  0  0  0  0
100101  1  0  0  0  0
 89102  1  0  0  0  0
102103  2  0  0  0  0
103104  1  0  0  0  0
  5  1  1  0  0  0  0
 11  6  1  0  0  0  0
 16 12  1  0  0  0  0
 22 17  1  0  0  0  0
 27 23  1  0  0  0  0
 33 28  1  0  0  0  0
 60 34  1  0  0  0  0
 68 64  1  0  0  0  0
 74 69  1  0  0  0  0
101 75  1  0  0  0  0
  8  3  1  0  0  0  0
 19 14  1  0  0  0  0
 30 25  1  0  0  0  0
 59 36  1  0  0  0  0
 71 66  1  0  0  0  0
100 77  1  0  0  0  0
 45 38  2  0  0  0  0
 63 47  1  0  0  0  0
 86 79  2  0  0  0  0
104 88  1  0  0  0  0
 56 50  2  0  0  0  0
 97 91  2  0  0  0  0
  1105  1  0  0  0  0
  2106  1  0  0  0  0
  8107  1  0  0  0  0
  8108  1  0  0  0  0
  9109  1  0  0  0  0
 13110  1  0  0  0  0
 19111  1  0  0  0  0
 19112  1  0  0  0  0
 20113  1  0  0  0  0
 24114  1  0  0  0  0
 30115  1  0  0  0  0
 30116  1  0  0  0  0
 31117  1  0  0  0  0
 35118  1  0  0  0  0
 41119  1  0  0  0  0
 41120  1  0  0  0  0
 42121  1  0  0  0  0
 42122  1  0  0  0  0
 42123  1  0  0  0  0
 53124  1  0  0  0  0
 53125  1  0  0  0  0
 54126  1  0  0  0  0
 54127  1  0  0  0  0
 54128  1  0  0  0  0
 61129  1  0  0  0  0
 65130  1  0  0  0  0
 71131  1  0  0  0  0
 71132  1  0  0  0  0
 72133  1  0  0  0  0
 76134  1  0  0  0  0
 82135  1  0  0  0  0
 82136  1  0  0  0  0
 83137  1  0  0  0  0
 83138  1  0  0  0  0
 83139  1  0  0  0  0
 94140  1  0  0  0  0
 94141  1  0  0  0  0
 95142  1  0  0  0  0
 95143  1  0  0  0  0
 95144  1  0  0  0  0
102145  1  0  0  0  0
103146  1  0  0  0  0
M  END
