
  xtb     03012206173D
 energy: -451.261529789249 gnorm: 0.000200690923 xtb: 6.4.1 (unknown)
227254  0     0  0            999 V2000
    1.9860   -9.1784   14.5752 C   0  0  0  0  0  0  0  0  0  0  0  0
    2.6020   -9.1074   13.3778 C   0  0  0  0  0  0  0  0  0  0  0  0
    1.6994   -9.2441   12.2832 C   0  0  0  0  0  0  0  0  0  0  0  0
    1.9895   -9.2569   10.9097 C   0  0  0  0  0  0  0  0  0  0  0  0
    3.3259   -8.9709   10.4151 C   0  0  0  0  0  0  0  0  0  0  0  0
    4.1332  -10.0243    9.2935 S   0  0  0  0  0  0  0  0  0  0  0  0
    5.5263   -9.0012    9.2157 C   0  0  0  0  0  0  0  0  0  0  0  0
    6.6672   -9.3209    8.3146 C   0  0  0  0  0  0  0  0  0  0  0  0
    6.3915   -8.8204    6.8945 C   0  0  0  0  0  0  0  0  0  0  0  0
    5.3558   -7.9059   10.0088 C   0  0  0  0  0  0  0  0  0  0  0  0
    6.5205   -6.6569   10.1802 Cl  0  0  0  0  0  0  0  0  0  0  0  0
    4.1122   -7.8873   10.6949 C   0  0  0  0  0  0  0  0  0  0  0  0
    3.6321   -6.5825   11.7018 Cl  0  0  0  0  0  0  0  0  0  0  0  0
    0.9374   -9.5279   10.0455 C   0  0  0  0  0  0  0  0  0  0  0  0
   -0.3940   -9.7281   10.4852 C   0  0  0  0  0  0  0  0  0  0  0  0
   -0.6940   -9.6546   11.8559 C   0  0  0  0  0  0  0  0  0  0  0  0
   -2.0527   -9.8058   12.3501 C   0  0  0  0  0  0  0  0  0  0  0  0
   -3.0086  -11.2110   11.9802 S   0  0  0  0  0  0  0  0  0  0  0  0
   -4.3494  -10.6448   12.9178 C   0  0  0  0  0  0  0  0  0  0  0  0
   -5.6205  -11.4162   12.9952 C   0  0  0  0  0  0  0  0  0  0  0  0
   -6.5207  -11.1106   11.7957 C   0  0  0  0  0  0  0  0  0  0  0  0
   -4.0626   -9.4309   13.4659 C   0  0  0  0  0  0  0  0  0  0  0  0
   -2.7606   -8.9553   13.1527 C   0  0  0  0  0  0  0  0  0  0  0  0
   -2.1914   -7.4249   13.6729 Cl  0  0  0  0  0  0  0  0  0  0  0  0
   -5.1531   -8.5441   14.4498 Cl  0  0  0  0  0  0  0  0  0  0  0  0
    0.3684   -9.4311   12.7247 C   0  0  0  0  0  0  0  0  0  0  0  0
    0.2765   -9.4125   14.4629 S   0  0  0  0  0  0  0  0  0  0  0  0
   -1.2855   -9.9260    9.4023 C   0  0  0  0  0  0  0  0  0  0  0  0
   -0.6780   -9.8859    8.1791 C   0  0  0  0  0  0  0  0  0  0  0  0
    1.0469   -9.6002    8.3111 S   0  0  0  0  0  0  0  0  0  0  0  0
   -1.2837   -9.9969    6.8952 C   0  0  0  0  0  0  0  0  0  0  0  0
   -2.6250  -10.1714    6.6027 C   0  0  0  0  0  0  0  0  0  0  0  0
   -2.8724  -10.1455    5.2339 C   0  0  0  0  0  0  0  0  0  0  0  0
   -1.7148   -9.9604    4.4788 C   0  0  0  0  0  0  0  0  0  0  0  0
   -0.3093   -9.8269    5.4504 S   0  0  0  0  0  0  0  0  0  0  0  0
   -2.0680   -9.8463    3.1141 C   0  0  0  0  0  0  0  0  0  0  0  0
   -3.4534   -9.9515    2.9923 C   0  0  0  0  0  0  0  0  0  0  0  0
   -4.0745  -10.1976    4.3365 C   0  0  0  0  0  0  0  0  0  0  0  0
   -3.8994   -9.7286    1.6931 C   0  0  0  0  0  0  0  0  0  0  0  0
   -2.8586   -9.4559    0.8239 C   0  0  0  0  0  0  0  0  0  0  0  0
   -1.2986   -9.5115    1.6205 S   0  0  0  0  0  0  0  0  0  0  0  0
   -2.9360   -8.9851   -0.5181 C   0  0  0  0  0  0  0  0  0  0  0  0
   -4.0209   -8.4414   -1.1479 C   0  0  0  0  0  0  0  0  0  0  0  0
   -3.7076   -7.8219   -2.3810 C   0  0  0  0  0  0  0  0  0  0  0  0
   -4.5618   -7.0627   -3.2036 C   0  0  0  0  0  0  0  0  0  0  0  0
   -5.9940   -7.0439   -2.9760 C   0  0  0  0  0  0  0  0  0  0  0  0
   -6.9040   -5.5630   -2.9309 S   0  0  0  0  0  0  0  0  0  0  0  0
   -8.3963   -6.3963   -2.6584 C   0  0  0  0  0  0  0  0  0  0  0  0
   -9.6835   -5.6540   -2.5697 C   0  0  0  0  0  0  0  0  0  0  0  0
  -10.1790   -5.2572   -3.9623 C   0  0  0  0  0  0  0  0  0  0  0  0
   -8.1877   -7.7428   -2.6181 C   0  0  0  0  0  0  0  0  0  0  0  0
   -9.4331   -8.9003   -2.3807 Cl  0  0  0  0  0  0  0  0  0  0  0  0
   -6.8280   -8.1140   -2.7908 C   0  0  0  0  0  0  0  0  0  0  0  0
   -6.3236   -9.7539   -2.8465 Cl  0  0  0  0  0  0  0  0  0  0  0  0
   -3.9590   -6.3101   -4.2046 C   0  0  0  0  0  0  0  0  0  0  0  0
   -2.5773   -6.3968   -4.4965 C   0  0  0  0  0  0  0  0  0  0  0  0
   -1.7423   -7.2476   -3.7494 C   0  0  0  0  0  0  0  0  0  0  0  0
   -0.3263   -7.3449   -4.0698 C   0  0  0  0  0  0  0  0  0  0  0  0
    0.1819   -7.8210   -5.6647 S   0  0  0  0  0  0  0  0  0  0  0  0
    1.8582   -7.6520   -5.2678 C   0  0  0  0  0  0  0  0  0  0  0  0
    2.9215   -7.9709   -6.2600 C   0  0  0  0  0  0  0  0  0  0  0  0
    3.1749   -9.4786   -6.3282 C   0  0  0  0  0  0  0  0  0  0  0  0
    1.9980   -7.2580   -3.9710 C   0  0  0  0  0  0  0  0  0  0  0  0
    0.7630   -7.0762   -3.2899 C   0  0  0  0  0  0  0  0  0  0  0  0
    0.6826   -6.4859   -1.6830 Cl  0  0  0  0  0  0  0  0  0  0  0  0
    3.5122   -6.9780   -3.2135 Cl  0  0  0  0  0  0  0  0  0  0  0  0
   -2.3228   -7.9081   -2.6784 C   0  0  0  0  0  0  0  0  0  0  0  0
   -1.4800   -8.8466   -1.4820 S   0  0  0  0  0  0  0  0  0  0  0  0
   -2.1744   -5.4384   -5.4550 C   0  0  0  0  0  0  0  0  0  0  0  0
   -3.1885   -4.6224   -5.8679 C   0  0  0  0  0  0  0  0  0  0  0  0
   -4.7290   -5.0868   -5.1769 S   0  0  0  0  0  0  0  0  0  0  0  0
   -3.0279   -3.3779   -6.5503 C   0  0  0  0  0  0  0  0  0  0  0  0
   -1.8756   -2.8945   -7.1006 C   0  0  0  0  0  0  0  0  0  0  0  0
   -1.9088   -1.5019   -7.3495 C   0  0  0  0  0  0  0  0  0  0  0  0
   -0.8311   -0.6825   -7.7424 C   0  0  0  0  0  0  0  0  0  0  0  0
    0.3967   -1.2766   -8.2316 C   0  0  0  0  0  0  0  0  0  0  0  0
    1.9615   -0.8013   -7.6392 S   0  0  0  0  0  0  0  0  0  0  0  0
    2.7764   -1.9537   -8.6385 C   0  0  0  0  0  0  0  0  0  0  0  0
    4.2529   -2.1334   -8.5720 C   0  0  0  0  0  0  0  0  0  0  0  0
    4.6227   -3.2366   -7.5769 C   0  0  0  0  0  0  0  0  0  0  0  0
    1.8773   -2.6566   -9.3850 C   0  0  0  0  0  0  0  0  0  0  0  0
    2.3160   -3.8868  -10.4985 Cl  0  0  0  0  0  0  0  0  0  0  0  0
    0.5291   -2.2749   -9.1614 C   0  0  0  0  0  0  0  0  0  0  0  0
   -0.7771   -2.9559  -10.0430 Cl  0  0  0  0  0  0  0  0  0  0  0  0
   -0.9904    0.6838   -7.5469 C   0  0  0  0  0  0  0  0  0  0  0  0
   -2.2146    1.2501   -7.1169 C   0  0  0  0  0  0  0  0  0  0  0  0
   -3.3480    0.4418   -6.9047 C   0  0  0  0  0  0  0  0  0  0  0  0
   -4.6061    1.0531   -6.5215 C   0  0  0  0  0  0  0  0  0  0  0  0
   -5.4972    0.5383   -5.1193 S   0  0  0  0  0  0  0  0  0  0  0  0
   -6.6813    1.7842   -5.3201 C   0  0  0  0  0  0  0  0  0  0  0  0
   -7.7730    1.9800   -4.3273 C   0  0  0  0  0  0  0  0  0  0  0  0
   -7.3043    2.8813   -3.1816 C   0  0  0  0  0  0  0  0  0  0  0  0
   -6.3974    2.5400   -6.4191 C   0  0  0  0  0  0  0  0  0  0  0  0
   -5.2240    2.1278   -7.1038 C   0  0  0  0  0  0  0  0  0  0  0  0
   -4.6906    2.8772   -8.5528 Cl  0  0  0  0  0  0  0  0  0  0  0  0
   -7.3478    3.8715   -6.9368 Cl  0  0  0  0  0  0  0  0  0  0  0  0
   -3.1462   -0.9293   -6.9648 C   0  0  0  0  0  0  0  0  0  0  0  0
   -4.2707   -2.1477   -6.4343 S   0  0  0  0  0  0  0  0  0  0  0  0
   -2.0746    2.6154   -6.7792 C   0  0  0  0  0  0  0  0  0  0  0  0
   -0.8044    3.0889   -6.9338 C   0  0  0  0  0  0  0  0  0  0  0  0
    0.2658    1.8900   -7.6308 S   0  0  0  0  0  0  0  0  0  0  0  0
   -0.3155    4.3186   -6.3955 C   0  0  0  0  0  0  0  0  0  0  0  0
   -0.9417    5.0235   -5.4086 C   0  0  0  0  0  0  0  0  0  0  0  0
   -0.1734    6.0935   -4.8989 C   0  0  0  0  0  0  0  0  0  0  0  0
   -0.5073    6.9460   -3.8299 C   0  0  0  0  0  0  0  0  0  0  0  0
   -1.8350    6.8990   -3.2472 C   0  0  0  0  0  0  0  0  0  0  0  0
   -2.0821    6.7778   -1.5294 S   0  0  0  0  0  0  0  0  0  0  0  0
   -3.8012    6.6944   -1.7013 C   0  0  0  0  0  0  0  0  0  0  0  0
   -4.6933    6.5058   -0.5243 C   0  0  0  0  0  0  0  0  0  0  0  0
   -4.9954    5.0217   -0.3006 C   0  0  0  0  0  0  0  0  0  0  0  0
   -4.1495    6.7610   -3.0178 C   0  0  0  0  0  0  0  0  0  0  0  0
   -5.7686    6.6946   -3.5823 Cl  0  0  0  0  0  0  0  0  0  0  0  0
   -3.0418    6.8862   -3.8964 C   0  0  0  0  0  0  0  0  0  0  0  0
   -3.2397    7.0859   -5.5913 Cl  0  0  0  0  0  0  0  0  0  0  0  0
    0.5048    7.7682   -3.3549 C   0  0  0  0  0  0  0  0  0  0  0  0
    1.7801    7.8457   -3.9679 C   0  0  0  0  0  0  0  0  0  0  0  0
    2.0685    7.0789   -5.1132 C   0  0  0  0  0  0  0  0  0  0  0  0
    3.3443    7.2092   -5.7918 C   0  0  0  0  0  0  0  0  0  0  0  0
    4.3033    5.8194   -6.2072 S   0  0  0  0  0  0  0  0  0  0  0  0
    5.5567    6.7926   -6.8958 C   0  0  0  0  0  0  0  0  0  0  0  0
    6.7514    6.1712   -7.5301 C   0  0  0  0  0  0  0  0  0  0  0  0
    6.4401    5.7366   -8.9644 C   0  0  0  0  0  0  0  0  0  0  0  0
    5.2305    8.1138   -6.8157 C   0  0  0  0  0  0  0  0  0  0  0  0
    3.9800    8.3556   -6.1875 C   0  0  0  0  0  0  0  0  0  0  0  0
    3.3191    9.9329   -6.0371 Cl  0  0  0  0  0  0  0  0  0  0  0  0
    6.2265    9.3838   -7.3991 Cl  0  0  0  0  0  0  0  0  0  0  0  0
    1.0949    6.1761   -5.5219 C   0  0  0  0  0  0  0  0  0  0  0  0
    1.2586    4.9775   -6.7780 S   0  0  0  0  0  0  0  0  0  0  0  0
    2.6606    8.6837   -3.2406 C   0  0  0  0  0  0  0  0  0  0  0  0
    2.0950    9.2342   -2.1300 C   0  0  0  0  0  0  0  0  0  0  0  0
    0.4148    8.7771   -1.9399 S   0  0  0  0  0  0  0  0  0  0  0  0
    2.7302   10.0504   -1.1480 C   0  0  0  0  0  0  0  0  0  0  0  0
    2.2724   10.3600    0.0969 C   0  0  0  0  0  0  0  0  0  0  0  0
    3.1755   11.1521    0.8496 C   0  0  0  0  0  0  0  0  0  0  0  0
    3.0261   11.6331    2.1613 C   0  0  0  0  0  0  0  0  0  0  0  0
    1.8025   11.3988    2.9087 C   0  0  0  0  0  0  0  0  0  0  0  0
    1.8344   10.6858    4.4943 S   0  0  0  0  0  0  0  0  0  0  0  0
    0.1109   10.7316    4.6351 C   0  0  0  0  0  0  0  0  0  0  0  0
   -0.5804   10.1756    5.8308 C   0  0  0  0  0  0  0  0  0  0  0  0
   -0.7948    8.6668    5.6870 C   0  0  0  0  0  0  0  0  0  0  0  0
   -0.4425   11.2677    3.5107 C   0  0  0  0  0  0  0  0  0  0  0  0
   -2.1303   11.4764    3.2811 Cl  0  0  0  0  0  0  0  0  0  0  0  0
    0.5122   11.6510    2.5312 C   0  0  0  0  0  0  0  0  0  0  0  0
    0.0682   12.4265    1.0650 Cl  0  0  0  0  0  0  0  0  0  0  0  0
    4.1038   12.3215    2.7056 C   0  0  0  0  0  0  0  0  0  0  0  0
    5.2946   12.5838    1.9875 C   0  0  0  0  0  0  0  0  0  0  0  0
    5.4225   12.1486    0.6593 C   0  0  0  0  0  0  0  0  0  0  0  0
    6.6022   12.4514   -0.1345 C   0  0  0  0  0  0  0  0  0  0  0  0
    7.4775   11.2028   -0.9687 S   0  0  0  0  0  0  0  0  0  0  0  0
    8.6038   12.3324   -1.6401 C   0  0  0  0  0  0  0  0  0  0  0  0
    9.6705   11.8828   -2.5759 C   0  0  0  0  0  0  0  0  0  0  0  0
    9.0920   11.6062   -3.9657 C   0  0  0  0  0  0  0  0  0  0  0  0
    8.3013   13.5989   -1.2381 C   0  0  0  0  0  0  0  0  0  0  0  0
    7.1706   13.6702   -0.3799 C   0  0  0  0  0  0  0  0  0  0  0  0
    6.5488   15.1588    0.2064 Cl  0  0  0  0  0  0  0  0  0  0  0  0
    9.1867   14.9926   -1.7066 Cl  0  0  0  0  0  0  0  0  0  0  0  0
    4.3655   11.4194    0.1307 C   0  0  0  0  0  0  0  0  0  0  0  0
    4.3135   10.7287   -1.4663 S   0  0  0  0  0  0  0  0  0  0  0  0
    6.2492   13.2758    2.7889 C   0  0  0  0  0  0  0  0  0  0  0  0
    5.7919   13.5489    4.0274 C   0  0  0  0  0  0  0  0  0  0  0  0
    4.1825   12.9828    4.3145 S   0  0  0  0  0  0  0  0  0  0  0  0
    2.4292   -9.1080   15.5493 H   0  0  0  0  0  0  0  0  0  0  0  0
    3.6622   -8.9815   13.2594 H   0  0  0  0  0  0  0  0  0  0  0  0
    7.5677   -8.8423    8.7039 H   0  0  0  0  0  0  0  0  0  0  0  0
    6.8234  -10.4007    8.2953 H   0  0  0  0  0  0  0  0  0  0  0  0
    7.2283   -9.0615    6.2445 H   0  0  0  0  0  0  0  0  0  0  0  0
    5.4933   -9.2878    6.4980 H   0  0  0  0  0  0  0  0  0  0  0  0
    6.2503   -7.7426    6.8959 H   0  0  0  0  0  0  0  0  0  0  0  0
   -6.1369  -11.1455   13.9178 H   0  0  0  0  0  0  0  0  0  0  0  0
   -5.3967  -12.4841   13.0187 H   0  0  0  0  0  0  0  0  0  0  0  0
   -7.4463  -11.6749   11.8700 H   0  0  0  0  0  0  0  0  0  0  0  0
   -6.7600  -10.0506   11.7652 H   0  0  0  0  0  0  0  0  0  0  0  0
   -6.0194  -11.3822   10.8696 H   0  0  0  0  0  0  0  0  0  0  0  0
   -2.3403  -10.0807    9.5304 H   0  0  0  0  0  0  0  0  0  0  0  0
   -3.3767  -10.2933    7.3605 H   0  0  0  0  0  0  0  0  0  0  0  0
   -4.5727  -11.1685    4.3812 H   0  0  0  0  0  0  0  0  0  0  0  0
   -4.8101   -9.4333    4.5934 H   0  0  0  0  0  0  0  0  0  0  0  0
   -4.9278   -9.7491    1.3823 H   0  0  0  0  0  0  0  0  0  0  0  0
   -4.9977   -8.4060   -0.7030 H   0  0  0  0  0  0  0  0  0  0  0  0
  -10.4230   -6.2920   -2.0828 H   0  0  0  0  0  0  0  0  0  0  0  0
   -9.5438   -4.7552   -1.9662 H   0  0  0  0  0  0  0  0  0  0  0  0
  -11.1198   -4.7190   -3.8848 H   0  0  0  0  0  0  0  0  0  0  0  0
  -10.3335   -6.1425   -4.5738 H   0  0  0  0  0  0  0  0  0  0  0  0
   -9.4486   -4.6186   -4.4534 H   0  0  0  0  0  0  0  0  0  0  0  0
    3.8383   -7.4573   -5.9647 H   0  0  0  0  0  0  0  0  0  0  0  0
    2.6186   -7.6102   -7.2448 H   0  0  0  0  0  0  0  0  0  0  0  0
    3.4875   -9.8525   -5.3565 H   0  0  0  0  0  0  0  0  0  0  0  0
    3.9559   -9.6933   -7.0525 H   0  0  0  0  0  0  0  0  0  0  0  0
    2.2684   -9.9998   -6.6265 H   0  0  0  0  0  0  0  0  0  0  0  0
   -1.1524   -5.3051   -5.7568 H   0  0  0  0  0  0  0  0  0  0  0  0
   -1.0003   -3.4980   -7.2509 H   0  0  0  0  0  0  0  0  0  0  0  0
    4.6208   -2.4022   -9.5643 H   0  0  0  0  0  0  0  0  0  0  0  0
    4.7171   -1.1946   -8.2672 H   0  0  0  0  0  0  0  0  0  0  0  0
    5.7016   -3.3600   -7.5413 H   0  0  0  0  0  0  0  0  0  0  0  0
    4.2668   -2.9826   -6.5814 H   0  0  0  0  0  0  0  0  0  0  0  0
    4.1735   -4.1799   -7.8769 H   0  0  0  0  0  0  0  0  0  0  0  0
   -8.0792    1.0118   -3.9282 H   0  0  0  0  0  0  0  0  0  0  0  0
   -8.6262    2.4410   -4.8283 H   0  0  0  0  0  0  0  0  0  0  0  0
   -7.0043    3.8530   -3.5661 H   0  0  0  0  0  0  0  0  0  0  0  0
   -8.1086    3.0238   -2.4648 H   0  0  0  0  0  0  0  0  0  0  0  0
   -6.4563    2.4294   -2.6717 H   0  0  0  0  0  0  0  0  0  0  0  0
   -2.8751    3.2065   -6.3767 H   0  0  0  0  0  0  0  0  0  0  0  0
   -1.8924    4.7375   -5.0013 H   0  0  0  0  0  0  0  0  0  0  0  0
   -4.2122    6.9202    0.3625 H   0  0  0  0  0  0  0  0  0  0  0  0
   -5.6279    7.0424   -0.7002 H   0  0  0  0  0  0  0  0  0  0  0  0
   -5.6458    4.8998    0.5612 H   0  0  0  0  0  0  0  0  0  0  0  0
   -4.0745    4.4712   -0.1243 H   0  0  0  0  0  0  0  0  0  0  0  0
   -5.4908    4.6032   -1.1728 H   0  0  0  0  0  0  0  0  0  0  0  0
    7.0608    5.3020   -6.9472 H   0  0  0  0  0  0  0  0  0  0  0  0
    7.5646    6.8991   -7.5348 H   0  0  0  0  0  0  0  0  0  0  0  0
    6.1478    6.5955   -9.5631 H   0  0  0  0  0  0  0  0  0  0  0  0
    5.6266    5.0151   -8.9707 H   0  0  0  0  0  0  0  0  0  0  0  0
    7.3172    5.2801   -9.4150 H   0  0  0  0  0  0  0  0  0  0  0  0
    3.6929    8.8374   -3.4968 H   0  0  0  0  0  0  0  0  0  0  0  0
    1.3298   10.0031    0.4702 H   0  0  0  0  0  0  0  0  0  0  0  0
    0.0198   10.3738    6.7202 H   0  0  0  0  0  0  0  0  0  0  0  0
   -1.5458   10.6732    5.9404 H   0  0  0  0  0  0  0  0  0  0  0  0
    0.1607    8.1588    5.5815 H   0  0  0  0  0  0  0  0  0  0  0  0
   -1.3030    8.2770    6.5647 H   0  0  0  0  0  0  0  0  0  0  0  0
   -1.4005    8.4542    4.8098 H   0  0  0  0  0  0  0  0  0  0  0  0
   10.4311   12.6626   -2.6404 H   0  0  0  0  0  0  0  0  0  0  0  0
   10.1337   10.9727   -2.1896 H   0  0  0  0  0  0  0  0  0  0  0  0
    8.6390   12.5070   -4.3719 H   0  0  0  0  0  0  0  0  0  0  0  0
    9.8787   11.2778   -4.6396 H   0  0  0  0  0  0  0  0  0  0  0  0
    8.3318   10.8306   -3.9101 H   0  0  0  0  0  0  0  0  0  0  0  0
    7.2324   13.5379    2.4447 H   0  0  0  0  0  0  0  0  0  0  0  0
    6.3042   14.0559    4.8214 H   0  0  0  0  0  0  0  0  0  0  0  0
  1  2  2  0  0  0  0
  2  3  1  0  0  0  0
  3  4  2  0  0  0  0
  4  5  1  0  0  0  0
  5  6  1  0  0  0  0
  6  7  1  0  0  0  0
  7  8  1  0  0  0  0
  8  9  1  0  0  0  0
  7 10  2  0  0  0  0
 10 11  1  0  0  0  0
 10 12  1  0  0  0  0
 12 13  1  0  0  0  0
  4 14  1  0  0  0  0
 14 15  2  0  0  0  0
 15 16  1  0  0  0  0
 16 17  1  0  0  0  0
 17 18  1  0  0  0  0
 18 19  1  0  0  0  0
 19 20  1  0  0  0  0
 20 21  1  0  0  0  0
 19 22  2  0  0  0  0
 22 23  1  0  0  0  0
 23 24  1  0  0  0  0
 22 25  1  0  0  0  0
 16 26  2  0  0  0  0
 26 27  1  0  0  0  0
 15 28  1  0  0  0  0
 28 29  2  0  0  0  0
 29 30  1  0  0  0  0
 29 31  1  0  0  0  0
 31 32  2  0  0  0  0
 32 33  1  0  0  0  0
 33 34  2  0  0  0  0
 34 35  1  0  0  0  0
 34 36  1  0  0  0  0
 36 37  2  0  0  0  0
 37 38  1  0  0  0  0
 37 39  1  0  0  0  0
 39 40  2  0  0  0  0
 40 41  1  0  0  0  0
 40 42  1  0  0  0  0
 42 43  2  0  0  0  0
 43 44  1  0  0  0  0
 44 45  2  0  0  0  0
 45 46  1  0  0  0  0
 46 47  1  0  0  0  0
 47 48  1  0  0  0  0
 48 49  1  0  0  0  0
 49 50  1  0  0  0  0
 48 51  2  0  0  0  0
 51 52  1  0  0  0  0
 51 53  1  0  0  0  0
 53 54  1  0  0  0  0
 45 55  1  0  0  0  0
 55 56  2  0  0  0  0
 56 57  1  0  0  0  0
 57 58  1  0  0  0  0
 58 59  1  0  0  0  0
 59 60  1  0  0  0  0
 60 61  1  0  0  0  0
 61 62  1  0  0  0  0
 60 63  2  0  0  0  0
 63 64  1  0  0  0  0
 64 65  1  0  0  0  0
 63 66  1  0  0  0  0
 57 67  2  0  0  0  0
 67 68  1  0  0  0  0
 56 69  1  0  0  0  0
 69 70  2  0  0  0  0
 70 71  1  0  0  0  0
 70 72  1  0  0  0  0
 72 73  2  0  0  0  0
 73 74  1  0  0  0  0
 74 75  2  0  0  0  0
 75 76  1  0  0  0  0
 76 77  1  0  0  0  0
 77 78  1  0  0  0  0
 78 79  1  0  0  0  0
 79 80  1  0  0  0  0
 78 81  2  0  0  0  0
 81 82  1  0  0  0  0
 81 83  1  0  0  0  0
 83 84  1  0  0  0  0
 75 85  1  0  0  0  0
 85 86  2  0  0  0  0
 86 87  1  0  0  0  0
 87 88  1  0  0  0  0
 88 89  1  0  0  0  0
 89 90  1  0  0  0  0
 90 91  1  0  0  0  0
 91 92  1  0  0  0  0
 90 93  2  0  0  0  0
 93 94  1  0  0  0  0
 94 95  1  0  0  0  0
 93 96  1  0  0  0  0
 87 97  2  0  0  0  0
 97 98  1  0  0  0  0
 86 99  1  0  0  0  0
 99100  2  0  0  0  0
100101  1  0  0  0  0
100102  1  0  0  0  0
102103  2  0  0  0  0
103104  1  0  0  0  0
104105  2  0  0  0  0
105106  1  0  0  0  0
106107  1  0  0  0  0
107108  1  0  0  0  0
108109  1  0  0  0  0
109110  1  0  0  0  0
108111  2  0  0  0  0
111112  1  0  0  0  0
111113  1  0  0  0  0
113114  1  0  0  0  0
105115  1  0  0  0  0
115116  2  0  0  0  0
116117  1  0  0  0  0
117118  1  0  0  0  0
118119  1  0  0  0  0
119120  1  0  0  0  0
120121  1  0  0  0  0
121122  1  0  0  0  0
120123  2  0  0  0  0
123124  1  0  0  0  0
124125  1  0  0  0  0
123126  1  0  0  0  0
117127  2  0  0  0  0
127128  1  0  0  0  0
116129  1  0  0  0  0
129130  2  0  0  0  0
130131  1  0  0  0  0
130132  1  0  0  0  0
132133  2  0  0  0  0
133134  1  0  0  0  0
134135  2  0  0  0  0
135136  1  0  0  0  0
136137  1  0  0  0  0
137138  1  0  0  0  0
138139  1  0  0  0  0
139140  1  0  0  0  0
138141  2  0  0  0  0
141142  1  0  0  0  0
141143  1  0  0  0  0
143144  1  0  0  0  0
135145  1  0  0  0  0
145146  2  0  0  0  0
146147  1  0  0  0  0
147148  1  0  0  0  0
148149  1  0  0  0  0
149150  1  0  0  0  0
150151  1  0  0  0  0
151152  1  0  0  0  0
150153  2  0  0  0  0
153154  1  0  0  0  0
154155  1  0  0  0  0
153156  1  0  0  0  0
147157  2  0  0  0  0
157158  1  0  0  0  0
146159  1  0  0  0  0
159160  2  0  0  0  0
160161  1  0  0  0  0
 27  1  1  0  0  0  0
 35 31  1  0  0  0  0
 41 36  1  0  0  0  0
 68 42  1  0  0  0  0
 98 72  1  0  0  0  0
128102  1  0  0  0  0
158132  1  0  0  0  0
 26  3  1  0  0  0  0
 38 33  1  0  0  0  0
 67 44  1  0  0  0  0
 97 74  1  0  0  0  0
127104  1  0  0  0  0
157134  1  0  0  0  0
 12  5  2  0  0  0  0
 30 14  1  0  0  0  0
 53 46  2  0  0  0  0
 71 55  1  0  0  0  0
 83 76  2  0  0  0  0
101 85  1  0  0  0  0
113106  2  0  0  0  0
131115  1  0  0  0  0
143136  2  0  0  0  0
161145  1  0  0  0  0
 23 17  2  0  0  0  0
 64 58  2  0  0  0  0
 94 88  2  0  0  0  0
124118  2  0  0  0  0
154148  2  0  0  0  0
  1162  1  0  0  0  0
  2163  1  0  0  0  0
  8164  1  0  0  0  0
  8165  1  0  0  0  0
  9166  1  0  0  0  0
  9167  1  0  0  0  0
  9168  1  0  0  0  0
 20169  1  0  0  0  0
 20170  1  0  0  0  0
 21171  1  0  0  0  0
 21172  1  0  0  0  0
 21173  1  0  0  0  0
 28174  1  0  0  0  0
 32175  1  0  0  0  0
 38176  1  0  0  0  0
 38177  1  0  0  0  0
 39178  1  0  0  0  0
 43179  1  0  0  0  0
 49180  1  0  0  0  0
 49181  1  0  0  0  0
 50182  1  0  0  0  0
 50183  1  0  0  0  0
 50184  1  0  0  0  0
 61185  1  0  0  0  0
 61186  1  0  0  0  0
 62187  1  0  0  0  0
 62188  1  0  0  0  0
 62189  1  0  0  0  0
 69190  1  0  0  0  0
 73191  1  0  0  0  0
 79192  1  0  0  0  0
 79193  1  0  0  0  0
 80194  1  0  0  0  0
 80195  1  0  0  0  0
 80196  1  0  0  0  0
 91197  1  0  0  0  0
 91198  1  0  0  0  0
 92199  1  0  0  0  0
 92200  1  0  0  0  0
 92201  1  0  0  0  0
 99202  1  0  0  0  0
103203  1  0  0  0  0
109204  1  0  0  0  0
109205  1  0  0  0  0
110206  1  0  0  0  0
110207  1  0  0  0  0
110208  1  0  0  0  0
121209  1  0  0  0  0
121210  1  0  0  0  0
122211  1  0  0  0  0
122212  1  0  0  0  0
122213  1  0  0  0  0
129214  1  0  0  0  0
133215  1  0  0  0  0
139216  1  0  0  0  0
139217  1  0  0  0  0
140218  1  0  0  0  0
140219  1  0  0  0  0
140220  1  0  0  0  0
151221  1  0  0  0  0
151222  1  0  0  0  0
152223  1  0  0  0  0
152224  1  0  0  0  0
152225  1  0  0  0  0
159226  1  0  0  0  0
160227  1  0  0  0  0
M  END
