200

C         10.50920       -2.87200       11.58690
C         10.81940       -3.11480       10.29750
C         10.43310       -2.05470        9.42580
C         10.54800       -1.99230        8.02800
C         11.13260       -3.07780        7.25560
S         12.73680       -3.66600        7.57760
C         12.65800       -4.82050        6.29090
C         13.81850       -5.69140        5.95750
C         14.74790       -5.00140        4.95590
C         11.45560       -4.73790        5.65530
Cl        11.00730       -5.72760        4.32760
C         10.58690       -3.75410        6.20010
Cl         8.98980       -3.51870        5.62500
C         10.07090       -0.84550        7.40580
C          9.47090        0.22080        8.11950
C          9.29470        0.12930        9.51050
C          8.56940        1.15860       10.23510
S          9.21650        1.91500       11.66000
C          7.81970        2.91750       11.85810
C          7.73720        3.92410       12.95160
C          8.43770        5.22530       12.55300
C          6.91600        2.67110       10.86800
C          7.33320        1.67250        9.94850
Cl         6.32620        1.12940        8.66590
Cl         5.40120        3.46610       10.73310
C          9.80890       -1.00050       10.13460
S          9.72310       -1.35160       11.83790
C          9.11750        1.29360        7.26780
C          9.39170        1.05770        5.95160
S         10.15120       -0.49760        5.70320
C          9.02250        1.88690        4.84950
C          8.43360        3.11670        4.92190
C          8.00920        3.61630        3.66890
C          7.27490        4.78860        3.40400
C          6.89630        5.69770        4.47300
S          6.11070        5.12150        5.91580
C          6.00560        6.71010        6.59300
C          5.44840        6.92540        7.95650
C          6.47970        6.57020        9.03030
C          6.55320        7.62210        5.74160
Cl         6.64540        9.30420        6.06960
C          7.05080        7.05480        4.53720
Cl         7.84440        7.99290        3.34300
C          6.87450        4.99450        2.09120
C          7.20260        4.10510        1.03560
C          7.95810        2.95060        1.29790
C          8.25400        1.97920        0.25620
S          9.88650        1.48400       -0.07470
C          9.38380        0.38490       -1.31350
C         10.37130       -0.46940       -2.02830
C         10.78930       -1.65850       -1.16020
C          8.02730        0.40400       -1.44210
C          7.38280        1.30950       -0.55630
Cl         5.67440        1.46400       -0.47700
Cl         7.15500       -0.56050       -2.56200
C          8.34240        2.73390        2.61320
S          9.15540        1.31260        3.20230
C          6.60090        4.48660       -0.18550
C          5.77960        5.57210       -0.07610
S          5.80790        6.25600        1.53970
C          4.84300        6.03560       -1.03930
C          3.93500        7.07130       -0.92190
C          2.99230        7.06420       -1.94620
C          3.18850        6.02000       -2.84920
S          4.56040        5.06430       -2.47350
C          2.08010        5.94940       -3.72250
C          1.16910        6.95050       -3.38500
C          1.72170        7.79560       -2.27260
C         -0.04410        6.82080       -4.05430
C         -0.06580        5.71620       -4.88900
S          1.46630        4.86500       -4.89710
C         -1.19150        5.10260       -5.50830
C         -2.51450        5.41900       -5.36220
C         -3.39090        4.41870       -5.84850
C         -4.78660        4.33850       -5.68190
C         -5.53470        5.45960       -5.13470
S         -5.47030        7.01910       -5.90370
C         -6.56070        7.71910       -4.75500
C         -6.92810        9.16060       -4.81900
C         -5.83570       10.03330       -4.19670
C         -6.92990        6.79020       -3.82940
Cl        -7.99280        7.11240       -2.52120
C         -6.35440        5.50760       -4.04290
Cl        -6.61140        4.19720       -2.96880
C         -5.39610        3.14050       -6.02640
C         -4.68420        2.04250       -6.57410
C         -3.29970        2.14160       -6.78820
C         -2.52290        1.02610       -7.30620
S         -1.51200        1.21130       -8.70780
C         -0.96540       -0.42870       -8.62590
C         -0.03690       -0.98320       -9.64900
C         -0.79390       -1.39230      -10.91450
C         -1.54500       -1.06900       -7.57180
C         -2.42370       -0.24580       -6.81670
Cl        -3.20420       -0.79450       -5.38900
Cl        -1.24770       -2.70940       -7.16510
C         -2.68740        3.32560       -6.40820
S         -0.96980        3.59140       -6.37220
C         -5.51550        0.91800       -6.77660
C         -6.80340        1.10670       -6.36340
S         -7.08010        2.74940       -5.81100
C         -7.80160        0.10880       -6.19850
C         -9.08410        0.25190       -5.70450
C         -9.70260       -0.97530       -5.48200
C         -8.88610       -2.05730       -5.80780
S         -7.36040       -1.57510       -6.42210
C         -9.54020       -3.25680       -5.44500
C        -10.78130       -2.94730       -4.88920
C        -10.99930       -1.46200       -4.90350
C        -11.45620       -4.07020       -4.42100
C        -10.73020       -5.23330       -4.60970
S         -9.19840       -4.93510       -5.40340
C        -11.06620       -6.55230       -4.19190
C        -12.18590       -6.96770       -3.52820
C        -12.18210       -8.35020       -3.21950
C        -13.14450       -9.08510       -2.50660
C        -14.35160       -8.46170       -1.98980
S        -15.43390       -7.57560       -3.02400
C        -16.52890       -7.23980       -1.72560
C        -17.74530       -6.40740       -1.93560
C        -17.40700       -4.91660       -1.86030
C        -16.06230       -7.77800       -0.56430
Cl       -16.86850       -7.64270        0.94420
C        -14.83320       -8.47640       -0.71040
Cl       -14.01470       -9.18160        0.61970
C        -12.89430      -10.44030       -2.31920
C        -11.71760      -11.07770       -2.77810
C        -10.72950      -10.33140       -3.43960
C         -9.46800      -10.93300       -3.83910
S         -8.85660      -10.79610       -5.46000
C         -7.42160      -11.68300       -5.07630
C         -6.40200      -11.99450       -6.11560
C         -6.72450      -13.31350       -6.82190
C         -7.43310      -12.06140       -3.76680
C         -8.58910      -11.63460       -3.06070
Cl        -8.80080      -11.91170       -1.37980
Cl        -6.17360      -12.95560       -3.01890
C        -11.00110       -8.98970       -3.66960
S         -9.94040       -7.86760       -4.46960
C        -11.74350      -12.47920       -2.52010
C        -12.87160      -12.87500       -1.89640
S        -13.97620      -11.58370       -1.57610
H         10.68940       -3.50040       12.43700
H         11.30320       -4.01260        9.95960
H         13.44520       -6.62230        5.52610
H         14.37200       -5.92340        6.86870
H         14.21030       -4.77490        4.03880
H         15.58700       -5.64940        4.71790
H         15.13010       -4.07290        5.37330
H          6.68520        4.12480       13.16270
H          8.20470        3.52070       13.85120
H          9.48910        5.03900       12.34840
H          7.97830        5.64310       11.66080
H          8.36170        5.95120       13.35790
H          8.67010        2.20320        7.62000
H          8.28700        3.63840        5.84800
H          4.56240        6.30200        8.09070
H          5.15900        7.97290        8.05540
H          6.76640        5.52470        8.94380
H          6.05730        6.73470       10.01800
H          7.36840        7.18750        8.92090
H         11.25300        0.12390       -2.27820
H          9.91720       -0.82890       -2.95320
H         11.50720       -2.27620       -1.69310
H          9.92300       -2.26630       -0.91150
H         11.24430       -1.30880       -0.23640
H          6.73540        3.95460       -1.10940
H          3.95490        7.76090       -0.09680
H          1.91740        8.81940       -2.59950
H          1.04480        7.84160       -1.41800
H         -0.89260        7.46610       -3.91920
H         -2.85540        6.30240       -4.85490
H         -7.07440        9.45210       -5.86070
H         -7.86540        9.30560       -4.27930
H         -6.12040       11.08070       -4.24740
H         -4.89770        9.90000       -4.73060
H         -5.68590        9.76310       -3.15430
H          0.71290       -0.23150       -9.90200
H          0.46800       -1.85340       -9.22600
H         -1.29910       -0.53140      -11.34590
H         -0.10240       -1.79640      -11.64890
H         -1.53670       -2.15080      -10.68070
H         -5.16920       -0.01690       -7.17750
H         -9.51530        1.21520       -5.49730
H        -11.17290       -1.06490       -3.90160
H        -11.85220       -1.18170       -5.52550
H        -12.42100       -4.05460       -3.94850
H        -12.98730       -6.30640       -3.25730
H        -18.47550       -6.65610       -1.16360
H        -18.17640       -6.63310       -2.91250
H        -16.98280       -4.67560       -0.88880
H        -18.30470       -4.32180       -2.00580
H        -16.68560       -4.65460       -2.63080
H         -5.42390      -12.06820       -5.63610
H         -6.37410      -11.18580       -6.84740
H         -6.73970      -14.13040       -6.10500
H         -5.97210      -13.52630       -7.57650
H         -7.69720      -13.25500       -7.30440
H        -10.95580      -13.14940       -2.81010
H        -13.14270      -13.86680       -1.59140
