119

C          7.92780      -13.98040       -8.61140
C          8.67530      -14.12670       -7.48010
C          7.89430      -13.98930       -6.32330
C          6.55930      -13.73940       -6.60940
S          6.25500      -13.67220       -8.29870
C          5.84290      -13.60310       -5.39250
C          6.72470      -13.76820       -4.32880
C          8.11140      -14.03300       -4.83930
C          6.11000      -13.63320       -3.08680
C          4.75740      -13.36210       -3.19730
S          4.24020      -13.28340       -4.87180
C          3.83190      -13.11150       -2.14960
C          4.08350      -13.06970       -0.78820
C          2.95760      -12.71430       -0.05310
C          1.83610      -12.49100       -0.85070
S          2.16080      -12.72870       -2.51930
C          0.77170      -12.04790       -0.03450
C          1.20720      -11.98100        1.28810
C          2.63230      -12.44170        1.38690
C          0.25270      -11.44660        2.14700
C         -0.91390      -11.10170        1.48820
S         -0.83860      -11.48330       -0.22610
C         -2.02120      -10.37620        1.99310
C         -3.15110       -9.97500        1.30270
C         -3.92970       -9.08430        2.03220
C         -3.40340       -8.80710        3.29380
S         -1.95580       -9.68040        3.60590
C         -4.13730       -7.74960        3.87600
C         -5.13290       -7.34500        2.98690
C         -5.13070       -8.22390        1.77100
C         -5.76830       -6.17330        3.38060
C         -5.26410       -5.67180        4.56720
S         -4.01950       -6.71440        5.24330
C         -5.46900       -4.37700        5.10760
C         -4.95390       -3.84070        6.27430
C         -5.10610       -2.45870        6.33430
C         -5.74060       -1.93530        5.20870
S         -6.21740       -3.15020        4.09370
C         -5.63900       -0.52780        5.23280
C         -4.95290       -0.13920        6.38350
C         -4.63340       -1.34370        7.22310
C         -4.61860        1.21060        6.38320
C         -5.02280        1.85290        5.22310
S         -5.90560        0.77760        4.15280
C         -4.63620        3.13740        4.75850
C         -3.84770        4.07810        5.40200
C         -3.45880        5.10950        4.55320
C         -3.96140        4.96760        3.26070
S         -4.94770        3.57500        3.08800
C         -3.39790        5.96320        2.43240
C         -2.52870        6.74790        3.19080
C         -2.54300        6.29780        4.62350
C         -1.82930        7.67260        2.42300
C         -2.15980        7.59620        1.08100
S         -3.38110        6.37870        0.77030
C         -1.57110        8.29970       -0.00670
C         -0.48140        9.12440        0.01620
C         -0.09710        9.59140       -1.26430
C          0.99600       10.40780       -1.60060
C          1.94100       10.86110       -0.59270
S          2.76730        9.72280        0.43250
C          3.66830       10.96950        1.22680
C          4.68370       10.64370        2.26590
C          6.01870       10.25820        1.62430
C          3.33990       12.18810        0.71400
Cl         4.02340       13.66740        1.25110
C          2.35970       12.13150       -0.31400
Cl         1.72300       13.53980       -1.05420
C          1.15860       10.72600       -2.94440
C          0.28870       10.25800       -3.95770
C         -0.78310        9.41510       -3.62570
C         -1.64070        8.83640       -4.64820
S         -3.37070        8.98240       -4.58080
C         -3.58320        8.05000       -6.02260
C         -4.93570        7.81110       -6.59740
C         -5.34300        8.95020       -7.53490
C         -2.37470        7.66160       -6.51890
C         -1.27120        8.10110       -5.73990
Cl         0.34970        7.67010       -6.10640
Cl        -2.18240        6.71720       -7.93900
C         -0.96110        9.11880       -2.28180
S         -2.19800        8.08400       -1.63010
C          0.67210       10.73850       -5.24380
C          1.79190       11.48850       -5.20900
S          2.44830       11.68000       -3.62040
H          8.25690      -14.03390       -9.63000
H          9.73260      -14.32180       -7.48940
H          8.48830      -15.00370       -4.51020
H          8.81910      -13.27040       -4.50750
H          6.61400      -13.71950       -2.14190
H          5.05040      -13.27340       -0.36650
H          2.72680      -13.33920        2.00220
H          3.28030      -11.67420        1.81430
H          0.38680      -11.28100        3.20120
H         -3.35490      -10.29930        0.29770
H         -6.04550       -8.81650        1.69790
H         -5.03080       -7.64880        0.84900
H         -6.53420       -5.66500        2.82210
H         -4.45430       -4.44410        7.01130
H         -3.56740       -1.41820        7.44340
H         -5.17190       -1.33070        8.17360
H         -4.06040        1.70360        7.15790
H         -3.55230        3.98610        6.43100
H         -1.54710        6.02550        4.97740
H         -2.93360        7.07240        5.28720
H         -1.10020        8.36320        2.80530
H          0.04270        9.37890        0.91810
H          4.82310       11.51770        2.90470
H          4.32350        9.81480        2.87810
H          6.39710       11.07910        1.02060
H          5.89240        9.38670        0.98630
H          6.74970       10.02530        2.39390
H         -5.66220        7.72830       -5.78750
H         -4.91940        6.87080       -7.15180
H         -6.33090        8.76020       -7.94570
H         -5.36420        9.89370       -6.99480
H         -4.63470        9.03420       -8.35530
H          0.12040       10.53090       -6.14190
H          2.29260       11.96440       -6.02930
