92

C          8.20190       -0.46360        2.46180
S          8.74500        1.02930        3.11510
C          7.70590        1.97260        2.07190
C          7.00500        1.12580        1.25000
C          7.28540       -0.25150        1.48250
C          6.47170       -1.05940        0.55940
O          6.37740       -2.24930        0.42210
N          5.77160       -0.11160       -0.18360
C          6.04070        1.21190        0.14670
O          5.54730        2.16380       -0.40690
C          7.74090        3.40410        2.16370
C          6.71640        4.24930        1.95440
C          5.33940        3.89710        1.76200
S          4.34630        4.86230        0.71000
C          2.92150        3.90880        1.00100
C          3.22650        2.89110        1.87400
C          4.57810        2.89270        2.30990
C          4.75330        1.79820        3.26950
O          5.70730        1.45790        3.92590
N          3.51580        1.16490        3.29850
C          2.55010        1.73970        2.47800
O          1.42960        1.31090        2.34500
C          1.70150        4.22960        0.32080
C          0.45340        4.06560        0.79680
C          0.09050        3.71920        2.13790
S         -1.35160        2.76820        2.40280
C         -1.17110        2.76540        4.14060
C         -0.05230        3.51280        4.45690
C          0.65690        4.03530        3.34970
C          1.78920        4.81900        3.86460
O          2.63910        5.45730        3.29170
N          1.70040        4.68900        5.24330
C          0.62070        3.92530        5.68850
O          0.36350        3.70460        6.84530
C         -2.03320        2.20860        5.12330
C         -3.05540        1.31750        5.07950
C         -3.58630        0.47800        4.06500
C         -4.70480       -0.32850        4.26690
C         -4.99870       -1.12840        3.17520
C         -4.09170       -0.94770        2.12580
S         -2.88630        0.21630        2.48190
C         -4.44600       -1.80410        1.06240
C         -5.58390       -2.53620        1.42230
C         -6.02600       -2.15650        2.80440
C         -6.00150       -3.41210        0.43200
C         -5.18380       -3.35390       -0.68840
S         -3.88060       -2.19010       -0.50600
C         -5.29580       -4.10470       -1.87920
S         -4.12960       -3.88850       -3.16940
C         -4.88540       -5.08570       -4.20490
C         -5.98250       -5.59660       -3.53890
C         -6.22050       -5.06080       -2.25390
C         -7.41080       -5.71410       -1.69710
O         -7.97320       -5.57130       -0.63870
N         -7.80990       -6.60360       -2.68770
C         -7.01350       -6.60250       -3.82790
O         -7.18640       -7.29580       -4.79730
C         -4.47870       -5.52910       -5.48990
C         -3.46770       -5.19270       -6.32960
C         -2.42770       -4.22560       -6.29400
S         -2.14350       -2.96060       -5.11180
C         -0.73470       -2.34440       -5.94760
C         -0.51730       -3.09350       -7.07680
C         -1.45530       -4.13080       -7.27120
C         -1.11170       -4.84480       -8.50790
O         -1.64010       -5.78250       -9.04790
N          0.02150       -4.18420       -8.97650
C          0.45030       -3.12320       -8.18570
O          1.40400       -2.42600       -8.41420
C          0.02940       -1.22980       -5.47040
C         -0.23750       -0.55950       -4.35130
H          8.58380       -1.39180        2.83760
H          5.13590       -0.36510       -0.92670
H          8.70550        3.81990        2.42390
H          6.92250        5.31130        1.93150
H          3.33340        0.34970        3.86650
H          1.82550        4.62910       -0.67710
H         -0.37950        4.21260        0.12130
H          2.35200        5.13320        5.87440
H         -1.79440        2.59770        6.10750
H         -3.56470        1.16870        6.02560
H         -5.26520       -0.31210        5.18450
H         -7.03730       -1.74540        2.80890
H         -6.01380       -3.01140        3.48330
H         -6.84870       -4.07170        0.48990
H         -8.61620       -7.20310       -2.58470
H         -5.13120       -6.32100       -5.84340
H         -3.41170       -5.77610       -7.24300
H          0.49570       -4.45560       -9.82620
H          0.86720       -0.96490       -6.10250
H          0.36870        0.26990       -4.03330
H         -1.06970       -0.82700       -3.71960
