
  xtb     03012212143D
 energy: -136.108830469184 gnorm: 0.000163652134 xtb: 6.4.1 (unknown)
 62 74  0     0  0            999 V2000
    9.6602    6.6843    2.4970 C   0  0  0  0  0  0  0  0  0  0  0  0
    8.2792    7.1201    1.5457 S   0  0  0  0  0  0  0  0  0  0  0  0
    7.4708    5.5867    1.7966 C   0  0  0  0  0  0  0  0  0  0  0  0
    8.2696    4.7925    2.5916 C   0  0  0  0  0  0  0  0  0  0  0  0
    9.4927    5.4244    2.9744 C   0  0  0  0  0  0  0  0  0  0  0  0
   10.1779    4.5427    3.7468 O   0  0  0  0  0  0  0  0  0  0  0  0
    9.3615    3.4559    3.7915 C   0  0  0  0  0  0  0  0  0  0  0  0
    8.2531    3.5362    3.1498 N   0  0  0  0  0  0  0  0  0  0  0  0
    6.2069    5.3234    1.2251 C   0  0  0  0  0  0  0  0  0  0  0  0
    5.3640    3.8011    1.4520 S   0  0  0  0  0  0  0  0  0  0  0  0
    3.9840    4.2793    0.4821 C   0  0  0  0  0  0  0  0  0  0  0  0
    4.1903    5.5691    0.0126 C   0  0  0  0  0  0  0  0  0  0  0  0
    5.4222    6.1309    0.4319 C   0  0  0  0  0  0  0  0  0  0  0  0
    5.5044    7.3797   -0.0871 O   0  0  0  0  0  0  0  0  0  0  0  0
    4.3436    7.5113   -0.7807 C   0  0  0  0  0  0  0  0  0  0  0  0
    3.5463    6.5045   -0.7616 N   0  0  0  0  0  0  0  0  0  0  0  0
    2.8787    3.4383    0.2575 C   0  0  0  0  0  0  0  0  0  0  0  0
    2.7571    1.8157    0.9221 S   0  0  0  0  0  0  0  0  0  0  0  0
    1.1865    1.4948    0.2079 C   0  0  0  0  0  0  0  0  0  0  0  0
    0.7979    2.6154   -0.5093 C   0  0  0  0  0  0  0  0  0  0  0  0
    1.7334    3.6800   -0.4773 C   0  0  0  0  0  0  0  0  0  0  0  0
    1.2220    4.6917   -1.2124 O   0  0  0  0  0  0  0  0  0  0  0  0
    0.0341    4.2095   -1.6446 C   0  0  0  0  0  0  0  0  0  0  0  0
   -0.2713    3.0157   -1.2739 N   0  0  0  0  0  0  0  0  0  0  0  0
    0.5080    0.2746    0.3857 C   0  0  0  0  0  0  0  0  0  0  0  0
    0.9264   -0.8318    1.1137 C   0  0  0  0  0  0  0  0  0  0  0  0
    0.0018   -1.8625    1.0705 C   0  0  0  0  0  0  0  0  0  0  0  0
   -1.1293   -1.5475    0.3077 C   0  0  0  0  0  0  0  0  0  0  0  0
   -1.0581    0.0318   -0.3643 S   0  0  0  0  0  0  0  0  0  0  0  0
   -2.0095   -2.6512    0.3213 C   0  0  0  0  0  0  0  0  0  0  0  0
   -1.4492   -3.6750    1.0900 C   0  0  0  0  0  0  0  0  0  0  0  0
   -0.1164   -3.2492    1.6301 C   0  0  0  0  0  0  0  0  0  0  0  0
   -2.2518   -4.8051    1.1579 C   0  0  0  0  0  0  0  0  0  0  0  0
   -3.4296   -4.6503    0.4411 C   0  0  0  0  0  0  0  0  0  0  0  0
   -3.5419   -3.0811   -0.3269 S   0  0  0  0  0  0  0  0  0  0  0  0
   -4.4530   -5.6189    0.3145 C   0  0  0  0  0  0  0  0  0  0  0  0
   -5.9270   -5.3719   -0.6089 S   0  0  0  0  0  0  0  0  0  0  0  0
   -6.5727   -6.9595   -0.2490 C   0  0  0  0  0  0  0  0  0  0  0  0
   -5.6709   -7.6338    0.5520 C   0  0  0  0  0  0  0  0  0  0  0  0
   -4.5060   -6.8851    0.8563 C   0  0  0  0  0  0  0  0  0  0  0  0
   -3.7158   -7.6622    1.6420 O   0  0  0  0  0  0  0  0  0  0  0  0
   -4.4263   -8.8127    1.7692 C   0  0  0  0  0  0  0  0  0  0  0  0
   -5.5586   -8.8597    1.1666 N   0  0  0  0  0  0  0  0  0  0  0  0
   -7.8235   -7.3924   -0.7439 C   0  0  0  0  0  0  0  0  0  0  0  0
   -8.4592   -8.9852   -0.3764 S   0  0  0  0  0  0  0  0  0  0  0  0
   -9.9062   -8.7457   -1.2837 C   0  0  0  0  0  0  0  0  0  0  0  0
   -9.9086   -7.5012   -1.8463 C   0  0  0  0  0  0  0  0  0  0  0  0
   -8.7372   -6.7457   -1.5401 C   0  0  0  0  0  0  0  0  0  0  0  0
   -8.8546   -5.5398   -2.1490 O   0  0  0  0  0  0  0  0  0  0  0  0
  -10.0560   -5.6185   -2.7770 C   0  0  0  0  0  0  0  0  0  0  0  0
  -10.7112   -6.7128   -2.6453 N   0  0  0  0  0  0  0  0  0  0  0  0
   10.4662    7.3754    2.6252 H   0  0  0  0  0  0  0  0  0  0  0  0
    9.6932    2.6070    4.3562 H   0  0  0  0  0  0  0  0  0  0  0  0
    4.1685    8.4359   -1.2939 H   0  0  0  0  0  0  0  0  0  0  0  0
   -0.5732    4.8421   -2.2614 H   0  0  0  0  0  0  0  0  0  0  0  0
    1.8657   -0.8489    1.6368 H   0  0  0  0  0  0  0  0  0  0  0  0
    0.6900   -3.8987    1.2838 H   0  0  0  0  0  0  0  0  0  0  0  0
   -0.0996   -3.2511    2.7217 H   0  0  0  0  0  0  0  0  0  0  0  0
   -2.0186   -5.7077    1.6923 H   0  0  0  0  0  0  0  0  0  0  0  0
   -4.0013   -9.6009    2.3587 H   0  0  0  0  0  0  0  0  0  0  0  0
  -10.6415   -9.5204   -1.3405 H   0  0  0  0  0  0  0  0  0  0  0  0
  -10.3793   -4.7652   -3.3406 H   0  0  0  0  0  0  0  0  0  0  0  0
  1  2  1  0  0  0  0
  2  3  1  0  0  0  0
  3  4  2  0  0  0  0
  4  5  1  0  0  0  0
  5  6  1  0  0  0  0
  6  7  1  0  0  0  0
  7  8  2  0  0  0  0
  3  9  1  0  0  0  0
  9 10  1  0  0  0  0
 10 11  1  0  0  0  0
 11 12  2  0  0  0  0
 12 13  1  0  0  0  0
 13 14  1  0  0  0  0
 14 15  1  0  0  0  0
 15 16  2  0  0  0  0
 11 17  1  0  0  0  0
 17 18  1  0  0  0  0
 18 19  1  0  0  0  0
 19 20  2  0  0  0  0
 20 21  1  0  0  0  0
 21 22  1  0  0  0  0
 22 23  1  0  0  0  0
 23 24  2  0  0  0  0
 19 25  1  0  0  0  0
 25 26  2  0  0  0  0
 26 27  1  0  0  0  0
 27 28  2  0  0  0  0
 28 29  1  0  0  0  0
 28 30  1  0  0  0  0
 30 31  2  0  0  0  0
 31 32  1  0  0  0  0
 31 33  1  0  0  0  0
 33 34  2  0  0  0  0
 34 35  1  0  0  0  0
 34 36  1  0  0  0  0
 36 37  1  0  0  0  0
 37 38  1  0  0  0  0
 38 39  2  0  0  0  0
 39 40  1  0  0  0  0
 40 41  1  0  0  0  0
 41 42  1  0  0  0  0
 42 43  2  0  0  0  0
 38 44  1  0  0  0  0
 44 45  1  0  0  0  0
 45 46  1  0  0  0  0
 46 47  2  0  0  0  0
 47 48  1  0  0  0  0
 48 49  1  0  0  0  0
 49 50  1  0  0  0  0
 50 51  2  0  0  0  0
  5  1  2  0  0  0  0
 13  9  2  0  0  0  0
 21 17  2  0  0  0  0
 29 25  1  0  0  0  0
 35 30  1  0  0  0  0
 40 36  2  0  0  0  0
 48 44  2  0  0  0  0
  8  4  1  0  0  0  0
 16 12  1  0  0  0  0
 24 20  1  0  0  0  0
 32 27  1  0  0  0  0
 43 39  1  0  0  0  0
 51 47  1  0  0  0  0
  1 52  1  0  0  0  0
  7 53  1  0  0  0  0
 15 54  1  0  0  0  0
 23 55  1  0  0  0  0
 26 56  1  0  0  0  0
 32 57  1  0  0  0  0
 32 58  1  0  0  0  0
 33 59  1  0  0  0  0
 42 60  1  0  0  0  0
 46 61  1  0  0  0  0
 50 62  1  0  0  0  0
M  END
