
  xtb     03022201343D
 energy: -131.609172664650 gnorm: 0.000213665204 xtb: 6.4.1 (unknown)
 72 84  0     0  0            999 V2000
    2.5279   -2.5920  -16.6290 C   0  0  0  0  0  0  0  0  0  0  0  0
    3.9655   -1.7423  -16.1477 S   0  0  0  0  0  0  0  0  0  0  0  0
    3.2712   -1.4358  -14.5944 C   0  0  0  0  0  0  0  0  0  0  0  0
    1.9851   -1.9850  -14.5027 C   0  0  0  0  0  0  0  0  0  0  0  0
    1.5636   -2.6473  -15.6730 C   0  0  0  0  0  0  0  0  0  0  0  0
    1.5099   -1.7079  -13.2612 N   0  0  0  0  0  0  0  0  0  0  0  0
    2.4619   -1.0004  -12.5645 C   0  0  0  0  0  0  0  0  0  0  0  0
    3.5747   -0.8160  -13.3789 C   0  0  0  0  0  0  0  0  0  0  0  0
    2.2590   -0.5821  -11.2182 C   0  0  0  0  0  0  0  0  0  0  0  0
    3.1378    0.0974  -10.3989 C   0  0  0  0  0  0  0  0  0  0  0  0
    2.6166    0.3137   -9.1245 C   0  0  0  0  0  0  0  0  0  0  0  0
    1.3324   -0.1964   -8.9652 C   0  0  0  0  0  0  0  0  0  0  0  0
    0.7500   -0.9502  -10.3938 S   0  0  0  0  0  0  0  0  0  0  0  0
    0.8986    0.0344   -7.6389 C   0  0  0  0  0  0  0  0  0  0  0  0
    1.9106    0.6918   -6.9431 C   0  0  0  0  0  0  0  0  0  0  0  0
    3.0860    0.9389   -7.8435 C   0  0  0  0  0  0  0  0  0  0  0  0
    1.5883    0.9249   -5.6099 C   0  0  0  0  0  0  0  0  0  0  0  0
    0.3309    0.4492   -5.2808 C   0  0  0  0  0  0  0  0  0  0  0  0
   -0.4709   -0.2885   -6.6543 S   0  0  0  0  0  0  0  0  0  0  0  0
   -0.2931    0.4563   -4.0041 C   0  0  0  0  0  0  0  0  0  0  0  0
   -1.9695   -0.0608   -3.8349 S   0  0  0  0  0  0  0  0  0  0  0  0
   -1.8808    0.1509   -2.1238 C   0  0  0  0  0  0  0  0  0  0  0  0
   -0.6096    0.6087   -1.7382 C   0  0  0  0  0  0  0  0  0  0  0  0
    0.2851    0.7895   -2.7970 C   0  0  0  0  0  0  0  0  0  0  0  0
   -0.6056    0.7108   -0.3820 N   0  0  0  0  0  0  0  0  0  0  0  0
   -1.8376    0.3226    0.0985 C   0  0  0  0  0  0  0  0  0  0  0  0
   -2.6531   -0.0219   -0.9748 C   0  0  0  0  0  0  0  0  0  0  0  0
   -2.1206    0.2403    1.4918 C   0  0  0  0  0  0  0  0  0  0  0  0
   -3.7376   -0.2228    2.0101 S   0  0  0  0  0  0  0  0  0  0  0  0
   -3.2327   -0.2016    3.6623 C   0  0  0  0  0  0  0  0  0  0  0  0
   -1.8816    0.1626    3.7718 C   0  0  0  0  0  0  0  0  0  0  0  0
   -1.2529    0.4196    2.5476 C   0  0  0  0  0  0  0  0  0  0  0  0
   -1.5505    0.1192    5.0901 N   0  0  0  0  0  0  0  0  0  0  0  0
   -2.6557   -0.2732    5.8148 C   0  0  0  0  0  0  0  0  0  0  0  0
   -3.7205   -0.4700    4.9423 C   0  0  0  0  0  0  0  0  0  0  0  0
   -2.6100   -0.4860    7.2226 C   0  0  0  0  0  0  0  0  0  0  0  0
   -4.0742   -1.0006    8.0526 S   0  0  0  0  0  0  0  0  0  0  0  0
   -3.2102   -1.1115    9.5445 C   0  0  0  0  0  0  0  0  0  0  0  0
   -1.8648   -0.7515    9.3759 C   0  0  0  0  0  0  0  0  0  0  0  0
   -1.5238   -0.3938    8.0652 C   0  0  0  0  0  0  0  0  0  0  0  0
   -1.2505   -0.8841   10.5821 N   0  0  0  0  0  0  0  0  0  0  0  0
   -2.1734   -1.3252   11.5061 C   0  0  0  0  0  0  0  0  0  0  0  0
   -3.4055   -1.4690   10.8803 C   0  0  0  0  0  0  0  0  0  0  0  0
   -1.8269   -1.5965   12.8632 C   0  0  0  0  0  0  0  0  0  0  0  0
   -3.0778   -2.1743   13.9572 S   0  0  0  0  0  0  0  0  0  0  0  0
   -1.9296   -2.2764   15.2434 C   0  0  0  0  0  0  0  0  0  0  0  0
   -0.6590   -1.8756   14.8182 C   0  0  0  0  0  0  0  0  0  0  0  0
   -0.5971   -1.4888   13.4692 C   0  0  0  0  0  0  0  0  0  0  0  0
    0.1833   -1.9887   15.8817 N   0  0  0  0  0  0  0  0  0  0  0  0
   -0.5319   -2.4494   16.9531 C   0  0  0  0  0  0  0  0  0  0  0  0
   -1.8431   -2.6391   16.5985 C   0  0  0  0  0  0  0  0  0  0  0  0
    2.4929   -3.0062  -17.6170 H   0  0  0  0  0  0  0  0  0  0  0  0
    0.6142   -3.1338  -15.8034 H   0  0  0  0  0  0  0  0  0  0  0  0
    0.6133   -1.9711  -12.8880 H   0  0  0  0  0  0  0  0  0  0  0  0
    4.4765   -0.3025  -13.1173 H   0  0  0  0  0  0  0  0  0  0  0  0
    4.1129    0.4084  -10.7251 H   0  0  0  0  0  0  0  0  0  0  0  0
    3.9950    0.4643   -7.4682 H   0  0  0  0  0  0  0  0  0  0  0  0
    3.2905    2.0051   -7.9625 H   0  0  0  0  0  0  0  0  0  0  0  0
    2.2297    1.4177   -4.9025 H   0  0  0  0  0  0  0  0  0  0  0  0
    1.3026    1.1190   -2.6979 H   0  0  0  0  0  0  0  0  0  0  0  0
    0.1664    1.0102    0.1865 H   0  0  0  0  0  0  0  0  0  0  0  0
   -3.6654   -0.3642   -0.9059 H   0  0  0  0  0  0  0  0  0  0  0  0
   -0.2199    0.6986    2.4395 H   0  0  0  0  0  0  0  0  0  0  0  0
   -0.6483    0.3234    5.4818 H   0  0  0  0  0  0  0  0  0  0  0  0
   -4.7073   -0.7788    5.2201 H   0  0  0  0  0  0  0  0  0  0  0  0
   -0.5385   -0.0981    7.7512 H   0  0  0  0  0  0  0  0  0  0  0  0
   -0.2819   -0.7041   10.7778 H   0  0  0  0  0  0  0  0  0  0  0  0
   -4.3109   -1.7973   11.3482 H   0  0  0  0  0  0  0  0  0  0  0  0
    0.2962   -1.1547   12.9722 H   0  0  0  0  0  0  0  0  0  0  0  0
    1.1657   -1.7752   15.8864 H   0  0  0  0  0  0  0  0  0  0  0  0
   -0.0566   -2.6127   17.9001 H   0  0  0  0  0  0  0  0  0  0  0  0
   -2.6329   -2.9922   17.2290 H   0  0  0  0  0  0  0  0  0  0  0  0
  1  2  1  0  0  0  0
  2  3  1  0  0  0  0
  3  4  2  0  0  0  0
  4  5  1  0  0  0  0
  4  6  1  0  0  0  0
  6  7  1  0  0  0  0
  7  8  2  0  0  0  0
  7  9  1  0  0  0  0
  9 10  2  0  0  0  0
 10 11  1  0  0  0  0
 11 12  2  0  0  0  0
 12 13  1  0  0  0  0
 12 14  1  0  0  0  0
 14 15  2  0  0  0  0
 15 16  1  0  0  0  0
 15 17  1  0  0  0  0
 17 18  2  0  0  0  0
 18 19  1  0  0  0  0
 18 20  1  0  0  0  0
 20 21  1  0  0  0  0
 21 22  1  0  0  0  0
 22 23  2  0  0  0  0
 23 24  1  0  0  0  0
 23 25  1  0  0  0  0
 25 26  1  0  0  0  0
 26 27  2  0  0  0  0
 26 28  1  0  0  0  0
 28 29  1  0  0  0  0
 29 30  1  0  0  0  0
 30 31  2  0  0  0  0
 31 32  1  0  0  0  0
 31 33  1  0  0  0  0
 33 34  1  0  0  0  0
 34 35  2  0  0  0  0
 34 36  1  0  0  0  0
 36 37  1  0  0  0  0
 37 38  1  0  0  0  0
 38 39  2  0  0  0  0
 39 40  1  0  0  0  0
 39 41  1  0  0  0  0
 41 42  1  0  0  0  0
 42 43  2  0  0  0  0
 42 44  1  0  0  0  0
 44 45  1  0  0  0  0
 45 46  1  0  0  0  0
 46 47  2  0  0  0  0
 47 48  1  0  0  0  0
 47 49  1  0  0  0  0
 49 50  1  0  0  0  0
 50 51  2  0  0  0  0
  5  1  2  0  0  0  0
 13  9  1  0  0  0  0
 19 14  1  0  0  0  0
 24 20  2  0  0  0  0
 32 28  2  0  0  0  0
 40 36  2  0  0  0  0
 48 44  2  0  0  0  0
  8  3  1  0  0  0  0
 16 11  1  0  0  0  0
 27 22  1  0  0  0  0
 35 30  1  0  0  0  0
 43 38  1  0  0  0  0
 51 46  1  0  0  0  0
  1 52  1  0  0  0  0
  5 53  1  0  0  0  0
  6 54  1  0  0  0  0
  8 55  1  0  0  0  0
 10 56  1  0  0  0  0
 16 57  1  0  0  0  0
 16 58  1  0  0  0  0
 17 59  1  0  0  0  0
 24 60  1  0  0  0  0
 25 61  1  0  0  0  0
 27 62  1  0  0  0  0
 32 63  1  0  0  0  0
 33 64  1  0  0  0  0
 35 65  1  0  0  0  0
 40 66  1  0  0  0  0
 41 67  1  0  0  0  0
 43 68  1  0  0  0  0
 48 69  1  0  0  0  0
 49 70  1  0  0  0  0
 50 71  1  0  0  0  0
 51 72  1  0  0  0  0
M  END
