200

C          3.62610        2.34680       12.36570
C          4.77980        2.65210       11.73880
C          4.94230        1.95260       10.50690
C          5.97950        2.07140        9.56860
C          7.09580        2.98280        9.76870
S          8.09640        2.90000       11.18840
C          9.11800        4.18550       10.64090
C         10.24260        4.69000       11.47610
C          9.75370        5.74110       12.47550
C          8.68750        4.64910        9.43430
Cl         9.44060        5.93160        8.57900
C          7.54660        3.96580        8.93270
Cl         6.78410        4.40570        7.46220
C          5.89620        1.27740        8.43220
C          4.81750        0.39270        8.18630
C          3.73440        0.34480        9.08020
C          2.52560       -0.39650        8.76350
S          1.77440       -1.48730        9.88910
C          0.44560       -1.79610        8.82540
C         -0.64880       -2.73760        9.19130
C         -0.44070       -4.10860        8.54360
C          0.59620       -1.09800        7.66420
C          1.77170       -0.30300        7.62430
Cl         2.13850        0.73300        6.30400
Cl        -0.53480       -1.13550        6.37550
C          3.84250        1.10410       10.24030
S          2.65240        1.20230       11.50830
C          5.01310       -0.36300        7.00360
C          6.16350       -0.04830        6.34080
S          7.08480        1.19090        7.16600
C          6.61140       -0.57260        5.09010
C          6.31700       -1.80460        4.54080
C          6.83070       -1.94140        3.25360
C          7.50030       -0.80030        2.81510
S          7.55410        0.43020        4.00790
C          7.84600       -0.96560        1.45220
C          7.42580       -2.22570        1.02760
C          6.78970       -2.97210        2.16380
C          7.58230       -2.41610       -0.34080
C          8.09540       -1.29410       -0.97020
S          8.45350       -0.00890        0.16520
C          8.08570       -1.03530       -2.37070
C          7.77820       -1.90940       -3.37830
C          7.44710       -1.27420       -4.59820
C          6.94300       -1.85460       -5.77940
C          6.87540       -3.29030       -5.98440
S          6.20610       -4.38050       -4.80490
C          6.43860       -5.76110       -5.82240
C          6.00040       -7.11850       -5.39640
C          4.52590       -7.34900       -5.73650
C          6.99610       -5.38340       -7.00650
Cl         7.38110       -6.47570       -8.27250
C          7.24490       -3.98810       -7.10240
Cl         8.01160       -3.28740       -8.46540
C          6.40880       -0.98470       -6.72370
C          6.44800        0.42220       -6.58370
C          7.10180        1.00270       -5.48350
C          7.18710        2.45000       -5.35710
S          8.01480        3.38870       -6.56450
C          7.68200        4.87740       -5.74660
C          8.20080        6.17490       -6.26030
C          9.62680        6.42820       -5.76560
C          6.97090        4.64230       -4.60850
C          6.68100        3.26820       -4.38740
Cl         5.71530        2.73230       -3.07730
Cl         6.45000        5.87520       -3.53480
C          7.55000        0.13800       -4.49810
S          8.15270        0.62090       -2.94050
C          5.57310        1.07550       -7.48340
C          4.84860        0.21720       -8.25980
S          5.37070       -1.44970       -8.04690
C          3.59800        0.48610       -8.88660
C          2.78730       -0.37870       -9.59680
C          1.46370        0.05520       -9.64630
C          1.26810        1.25640       -8.96680
S          2.72390        1.91360       -8.34470
C         -0.11540        1.44560       -8.75040
C         -0.81520        0.37800       -9.31280
C          0.13670       -0.53270      -10.03800
C         -2.13840        0.31800       -8.88400
C         -2.43770        1.31380       -7.96910
S         -1.09000        2.40610       -7.71870
C         -3.52690        1.33820       -7.04970
C         -4.67420        0.59470       -7.05640
C         -5.35690        0.59470       -5.81400
C         -6.48470       -0.15520       -5.42760
C         -7.22570       -0.98360       -6.36370
S         -6.43660       -2.14970       -7.38680
C         -7.93450       -2.70800       -8.05010
C         -7.97150       -3.75050       -9.11240
C         -7.81580       -3.12220      -10.49950
C         -8.97480       -2.01370       -7.51050
Cl       -10.61850       -2.27990       -7.92430
C         -8.57940       -1.04140       -6.55280
Cl        -9.70840        0.00240       -5.79670
C         -6.82850       -0.12870       -4.07930
C         -6.12590        0.63740       -3.11700
C         -5.05280        1.44850       -3.51640
C         -4.27930        2.21700       -2.55260
S         -4.04900        3.92960       -2.73470
C         -3.07550        4.02850       -1.30790
C         -2.54850        5.33200       -0.81840
C         -3.55520        6.01630        0.10960
C         -2.94890        2.79870       -0.73360
C         -3.62450        1.76770       -1.44000
Cl        -3.54100        0.11890       -0.96720
Cl        -2.05440        2.49820        0.69980
C         -4.70050        1.40730       -4.85590
S         -3.29920        2.18270       -5.52770
C         -6.58900        0.39670       -1.80130
C         -7.57230       -0.54220       -1.73650
S         -8.04180       -1.12300       -3.32120
C         -8.13640       -1.11810       -0.55820
C         -9.29340       -1.82240       -0.42850
C         -9.49980       -2.33100        0.87920
C        -10.56820       -3.11400        1.34480
C        -11.65680       -3.49980        0.46110
S        -11.34250       -4.30660       -1.04790
C        -13.02530       -4.40420       -1.43940
C        -13.47640       -4.97870       -2.73660
C        -13.25330       -3.98580       -3.88000
C        -13.77290       -3.83700       -0.45160
Cl       -15.48540       -3.73340       -0.48420
C        -13.00230       -3.32990        0.63020
Cl       -13.71190       -2.51130        1.95770
C        -10.51600       -3.52620        2.67140
C         -9.43990       -3.20820        3.53460
C         -8.37540       -2.41880        3.07280
C         -7.20840       -2.14830        3.89890
S         -6.31970       -3.46270        4.61560
C         -5.11650       -2.40230        5.26840
C         -3.99440       -2.93090        6.09190
C         -4.45790       -3.24600        7.51550
C         -5.40890       -1.10930        4.95470
C         -6.58800       -0.96190        4.17270
Cl        -7.19050        0.57220        3.70620
Cl        -4.44840        0.23010        5.43260
C         -8.44290       -1.98000        1.75530
S         -7.23510       -1.03100        0.94090
C         -9.61730       -3.78330        4.82680
C        -10.74770       -4.51210        4.92440
S        -11.67860       -4.54680        3.46850
H          3.26320        2.72700       13.30040
H          5.50090        3.34980       12.12260
H         10.99360        5.13250       10.81930
H         10.69570        3.85720       12.01660
H          9.30890        6.58210       11.94970
H         10.58580        6.10400       13.07250
H          9.00780        5.31180       13.14040
H         -0.68130       -2.84430       10.27630
H         -1.59800       -2.31690        8.85160
H         -1.24380       -4.78350        8.82820
H          0.50420       -4.53870        8.86650
H         -0.42980       -4.01540        7.46090
H          4.31740       -1.10130        6.65030
H          5.75660       -2.55640        5.06610
H          5.77020       -3.28090        1.92620
H          7.35570       -3.86650        2.43390
H          7.28460       -3.29870       -0.87650
H          7.72570       -2.97110       -3.22960
H          6.14610       -7.22570       -4.32010
H          6.61400       -7.86130       -5.90950
H          4.22000       -8.34180       -5.41800
H          3.90320       -6.61260       -5.23400
H          4.36960       -7.26280       -6.80870
H          7.54570        6.97570       -5.91210
H          8.19130        6.16270       -7.35160
H          9.99080        7.37860       -6.14640
H          9.64880        6.45610       -4.67920
H         10.29060        5.63730       -6.10660
H          5.40260        2.13740       -7.47350
H          3.15100       -1.30980       -9.99390
H         -0.01370       -0.49890      -11.11960
H          0.03490       -1.57030       -9.71750
H         -2.83690       -0.45490       -9.14810
H         -4.99500        0.02740       -7.90980
H         -7.16710       -4.46860       -8.94520
H         -8.92750       -4.27410       -9.05460
H         -7.85060       -3.89280      -11.26480
H         -6.86510       -2.59940      -10.57280
H         -8.61810       -2.41220      -10.68300
H         -2.33840        5.98010       -1.67060
H         -1.61790        5.15190       -0.27670
H         -3.15410        6.96270        0.46210
H         -4.48680        6.20600       -0.41810
H         -3.76440        5.38480        0.96920
H         -6.20030        0.88820       -0.92850
H         -9.97480       -1.96780       -1.24670
H        -14.53730       -5.22200       -2.66050
H        -12.92050       -5.89580       -2.94130
H        -13.81220       -3.07090       -3.69960
H        -13.58650       -4.41720       -4.82000
H        -12.19780       -3.73760       -3.96460
H         -3.19880       -2.18480        6.11900
H         -3.60380       -3.84010        5.63040
H         -4.81840       -2.34380        8.00330
H         -3.63380       -3.65240        8.09530
H         -5.26350       -3.97650        7.49580
H         -8.92520       -3.64480        5.63680
H        -11.11610       -5.04410        5.77960
