
  xtb     03022212053D
 energy: -451.258572506943 gnorm: 0.000285579277 xtb: 6.4.1 (unknown)
227254  0     0  0            999 V2000
    2.5659   -9.8812    6.1564 C   0  0  0  0  0  0  0  0  0  0  0  0
    2.5993   -8.5555    5.9092 C   0  0  0  0  0  0  0  0  0  0  0  0
    1.5450   -8.1231    5.0523 C   0  0  0  0  0  0  0  0  0  0  0  0
    1.3047   -6.8348    4.5405 C   0  0  0  0  0  0  0  0  0  0  0  0
    2.1396   -5.7065    4.9232 C   0  0  0  0  0  0  0  0  0  0  0  0
    2.4832   -5.3805    6.5995 S   0  0  0  0  0  0  0  0  0  0  0  0
    3.5081   -4.0385    6.2213 C   0  0  0  0  0  0  0  0  0  0  0  0
    4.2350   -3.2883    7.2848 C   0  0  0  0  0  0  0  0  0  0  0  0
    3.6161   -1.9185    7.5700 C   0  0  0  0  0  0  0  0  0  0  0  0
    3.5440   -3.8468    4.8721 C   0  0  0  0  0  0  0  0  0  0  0  0
    4.4555   -2.6149    4.0992 Cl  0  0  0  0  0  0  0  0  0  0  0  0
    2.7763   -4.7871    4.1331 C   0  0  0  0  0  0  0  0  0  0  0  0
    2.7855   -4.7976    2.4187 Cl  0  0  0  0  0  0  0  0  0  0  0  0
    0.2473   -6.7049    3.6464 C   0  0  0  0  0  0  0  0  0  0  0  0
   -0.5676   -7.7944    3.2483 C   0  0  0  0  0  0  0  0  0  0  0  0
   -0.3429   -9.0734    3.7804 C   0  0  0  0  0  0  0  0  0  0  0  0
   -1.1802  -10.2010    3.4059 C   0  0  0  0  0  0  0  0  0  0  0  0
   -1.4365  -10.6197    1.7371 S   0  0  0  0  0  0  0  0  0  0  0  0
   -2.4694  -11.9470    2.1443 C   0  0  0  0  0  0  0  0  0  0  0  0
   -3.1359  -12.7497    1.0827 C   0  0  0  0  0  0  0  0  0  0  0  0
   -4.3195  -11.9843    0.4854 C   0  0  0  0  0  0  0  0  0  0  0  0
   -2.5992  -12.0459    3.4971 C   0  0  0  0  0  0  0  0  0  0  0  0
   -1.8652  -11.0634    4.2159 C   0  0  0  0  0  0  0  0  0  0  0  0
   -1.9296  -10.9389    5.9235 Cl  0  0  0  0  0  0  0  0  0  0  0  0
   -3.5528  -13.2353    4.2851 Cl  0  0  0  0  0  0  0  0  0  0  0  0
    0.7181   -9.2063    4.6684 C   0  0  0  0  0  0  0  0  0  0  0  0
    1.2600  -10.6996    5.3780 S   0  0  0  0  0  0  0  0  0  0  0  0
   -1.5699   -7.4003    2.3269 C   0  0  0  0  0  0  0  0  0  0  0  0
   -1.5383   -6.0736    2.0242 C   0  0  0  0  0  0  0  0  0  0  0  0
   -0.2779   -5.2279    2.8945 S   0  0  0  0  0  0  0  0  0  0  0  0
   -2.3359   -5.3671    1.0777 C   0  0  0  0  0  0  0  0  0  0  0  0
   -2.2876   -4.0361    0.7967 C   0  0  0  0  0  0  0  0  0  0  0  0
   -3.1572   -3.6503   -0.2506 C   0  0  0  0  0  0  0  0  0  0  0  0
   -3.2870   -2.3829   -0.8329 C   0  0  0  0  0  0  0  0  0  0  0  0
   -2.4882   -1.2429   -0.4138 C   0  0  0  0  0  0  0  0  0  0  0  0
   -1.5309   -0.4059   -1.6034 S   0  0  0  0  0  0  0  0  0  0  0  0
   -0.9003    0.6993   -0.4374 C   0  0  0  0  0  0  0  0  0  0  0  0
    0.0790    1.7514   -0.8176 C   0  0  0  0  0  0  0  0  0  0  0  0
   -0.1071    2.2469   -2.2460 C   0  0  0  0  0  0  0  0  0  0  0  0
   -1.4094    0.4257    0.7980 C   0  0  0  0  0  0  0  0  0  0  0  0
   -1.0159    1.3267    2.2049 Cl  0  0  0  0  0  0  0  0  0  0  0  0
   -2.3038   -0.6782    0.8166 C   0  0  0  0  0  0  0  0  0  0  0  0
   -3.1225   -1.1800    2.2362 Cl  0  0  0  0  0  0  0  0  0  0  0  0
   -4.1322   -2.2881   -1.9307 C   0  0  0  0  0  0  0  0  0  0  0  0
   -4.8115   -3.3856   -2.5079 C   0  0  0  0  0  0  0  0  0  0  0  0
   -4.6958   -4.6521   -1.9067 C   0  0  0  0  0  0  0  0  0  0  0  0
   -5.3428   -5.8293   -2.4621 C   0  0  0  0  0  0  0  0  0  0  0  0
   -5.1291   -6.2660   -4.1328 S   0  0  0  0  0  0  0  0  0  0  0  0
   -6.0684   -7.7094   -3.9604 C   0  0  0  0  0  0  0  0  0  0  0  0
   -6.3391   -8.5957   -5.1254 C   0  0  0  0  0  0  0  0  0  0  0  0
   -7.4753   -8.0370   -5.9853 C   0  0  0  0  0  0  0  0  0  0  0  0
   -6.5248   -7.8250   -2.6818 C   0  0  0  0  0  0  0  0  0  0  0  0
   -6.1120   -6.7660   -1.8286 C   0  0  0  0  0  0  0  0  0  0  0  0
   -6.6222   -6.6575   -0.1965 Cl  0  0  0  0  0  0  0  0  0  0  0  0
   -7.4965   -9.1251   -2.1249 Cl  0  0  0  0  0  0  0  0  0  0  0  0
   -3.8810   -4.7481   -0.7811 C   0  0  0  0  0  0  0  0  0  0  0  0
   -3.4811   -6.2195    0.0616 S   0  0  0  0  0  0  0  0  0  0  0  0
   -5.5318   -3.0047   -3.6825 C   0  0  0  0  0  0  0  0  0  0  0  0
   -5.4403   -1.6839   -3.9590 C   0  0  0  0  0  0  0  0  0  0  0  0
   -4.4606   -0.8167   -2.7797 S   0  0  0  0  0  0  0  0  0  0  0  0
   -5.8254   -0.7838   -5.0292 C   0  0  0  0  0  0  0  0  0  0  0  0
   -6.5334    0.3588   -4.8373 C   0  0  0  0  0  0  0  0  0  0  0  0
   -6.1728    1.4093   -5.7214 C   0  0  0  0  0  0  0  0  0  0  0  0
   -6.4872    2.7706   -5.5706 C   0  0  0  0  0  0  0  0  0  0  0  0
   -7.5036    3.2818   -4.6682 C   0  0  0  0  0  0  0  0  0  0  0  0
   -7.6303    2.7881   -3.0046 S   0  0  0  0  0  0  0  0  0  0  0  0
   -8.8755    3.9392   -2.6663 C   0  0  0  0  0  0  0  0  0  0  0  0
   -9.5225    4.0069   -1.3278 C   0  0  0  0  0  0  0  0  0  0  0  0
  -10.7616    3.1102   -1.2728 C   0  0  0  0  0  0  0  0  0  0  0  0
   -9.1717    4.6544   -3.7878 C   0  0  0  0  0  0  0  0  0  0  0  0
  -10.3676    5.8823   -3.8473 Cl  0  0  0  0  0  0  0  0  0  0  0  0
   -8.3855    4.2987   -4.9162 C   0  0  0  0  0  0  0  0  0  0  0  0
   -8.5815    5.0393   -6.4487 Cl  0  0  0  0  0  0  0  0  0  0  0  0
   -5.5935    3.6617   -6.1527 C   0  0  0  0  0  0  0  0  0  0  0  0
   -4.5163    3.2638   -6.9741 C   0  0  0  0  0  0  0  0  0  0  0  0
   -4.4045    1.9121   -7.3727 C   0  0  0  0  0  0  0  0  0  0  0  0
   -3.4327    1.5298   -8.3679 C   0  0  0  0  0  0  0  0  0  0  0  0
   -2.5129    0.0545   -8.2880 S   0  0  0  0  0  0  0  0  0  0  0  0
   -1.6892    0.3928   -9.7711 C   0  0  0  0  0  0  0  0  0  0  0  0
   -0.7133   -0.5733  -10.3448 C   0  0  0  0  0  0  0  0  0  0  0  0
   -1.4353   -1.6917  -11.1003 C   0  0  0  0  0  0  0  0  0  0  0  0
   -2.1224    1.5740  -10.2978 C   0  0  0  0  0  0  0  0  0  0  0  0
   -3.1021    2.2255   -9.5059 C   0  0  0  0  0  0  0  0  0  0  0  0
   -3.8425    3.6911  -10.0010 Cl  0  0  0  0  0  0  0  0  0  0  0  0
   -1.5486    2.2303  -11.7762 Cl  0  0  0  0  0  0  0  0  0  0  0  0
   -5.1723    1.0072   -6.6401 C   0  0  0  0  0  0  0  0  0  0  0  0
   -4.8241   -0.6972   -6.4749 S   0  0  0  0  0  0  0  0  0  0  0  0
   -3.4598    4.2179   -6.9566 C   0  0  0  0  0  0  0  0  0  0  0  0
   -3.7004    5.2608   -6.1093 C   0  0  0  0  0  0  0  0  0  0  0  0
   -5.3744    5.2889   -5.5672 S   0  0  0  0  0  0  0  0  0  0  0  0
   -2.7430    5.9052   -5.2546 C   0  0  0  0  0  0  0  0  0  0  0  0
   -2.9590    5.9338   -3.9074 C   0  0  0  0  0  0  0  0  0  0  0  0
   -1.7853    6.0935   -3.1413 C   0  0  0  0  0  0  0  0  0  0  0  0
   -1.6538    5.8059   -1.7728 C   0  0  0  0  0  0  0  0  0  0  0  0
   -2.8022    5.3551   -1.0031 C   0  0  0  0  0  0  0  0  0  0  0  0
   -2.7685    3.7823   -0.2537 S   0  0  0  0  0  0  0  0  0  0  0  0
   -4.4252    3.8837    0.2264 C   0  0  0  0  0  0  0  0  0  0  0  0
   -5.0747    2.7384    0.9203 C   0  0  0  0  0  0  0  0  0  0  0  0
   -5.2643    1.5560   -0.0322 C   0  0  0  0  0  0  0  0  0  0  0  0
   -4.9581    5.0744   -0.1675 C   0  0  0  0  0  0  0  0  0  0  0  0
   -6.5821    5.5453    0.1218 Cl  0  0  0  0  0  0  0  0  0  0  0  0
   -4.0428    5.9112   -0.8639 C   0  0  0  0  0  0  0  0  0  0  0  0
   -4.4632    7.4813   -1.4185 Cl  0  0  0  0  0  0  0  0  0  0  0  0
   -0.3612    5.7405   -1.2791 C   0  0  0  0  0  0  0  0  0  0  0  0
    0.7914    5.9996   -2.0612 C   0  0  0  0  0  0  0  0  0  0  0  0
    0.6497    6.3028   -3.4310 C   0  0  0  0  0  0  0  0  0  0  0  0
    1.7959    6.5212   -4.2953 C   0  0  0  0  0  0  0  0  0  0  0  0
    3.1489    5.4275   -4.3319 S   0  0  0  0  0  0  0  0  0  0  0  0
    3.9601    6.3407   -5.5577 C   0  0  0  0  0  0  0  0  0  0  0  0
    5.3117    5.9454   -6.0402 C   0  0  0  0  0  0  0  0  0  0  0  0
    6.3915    6.3506   -5.0339 C   0  0  0  0  0  0  0  0  0  0  0  0
    3.2170    7.4291   -5.9043 C   0  0  0  0  0  0  0  0  0  0  0  0
    1.9862    7.5290   -5.2010 C   0  0  0  0  0  0  0  0  0  0  0  0
    0.9064    8.8401   -5.4245 Cl  0  0  0  0  0  0  0  0  0  0  0  0
    3.6982    8.5831   -7.0791 Cl  0  0  0  0  0  0  0  0  0  0  0  0
   -0.6426    6.2942   -3.9503 C   0  0  0  0  0  0  0  0  0  0  0  0
   -1.0719    6.2450   -5.6486 S   0  0  0  0  0  0  0  0  0  0  0  0
    1.9836    5.7518   -1.3250 C   0  0  0  0  0  0  0  0  0  0  0  0
    1.7540    5.2694   -0.0726 C   0  0  0  0  0  0  0  0  0  0  0  0
    0.0495    5.2177    0.3228 S   0  0  0  0  0  0  0  0  0  0  0  0
    2.6573    4.6310    0.8433 C   0  0  0  0  0  0  0  0  0  0  0  0
    3.9472    4.8946    1.1841 C   0  0  0  0  0  0  0  0  0  0  0  0
    4.5035    3.9266    2.0656 C   0  0  0  0  0  0  0  0  0  0  0  0
    5.7769    3.8936    2.6633 C   0  0  0  0  0  0  0  0  0  0  0  0
    6.7636    4.9269    2.3952 C   0  0  0  0  0  0  0  0  0  0  0  0
    7.2109    5.3406    0.7652 S   0  0  0  0  0  0  0  0  0  0  0  0
    8.3552    6.5266    1.2933 C   0  0  0  0  0  0  0  0  0  0  0  0
    9.1895    7.2848    0.3208 C   0  0  0  0  0  0  0  0  0  0  0  0
   10.4609    6.5092   -0.0321 C   0  0  0  0  0  0  0  0  0  0  0  0
    8.3820    6.5821    2.6543 C   0  0  0  0  0  0  0  0  0  0  0  0
    9.3920    7.6429    3.5474 Cl  0  0  0  0  0  0  0  0  0  0  0  0
    7.4795    5.6813    3.2825 C   0  0  0  0  0  0  0  0  0  0  0  0
    7.2678    5.6359    4.9819 Cl  0  0  0  0  0  0  0  0  0  0  0  0
    6.0541    2.8219    3.5043 C   0  0  0  0  0  0  0  0  0  0  0  0
    5.1386    1.7636    3.7443 C   0  0  0  0  0  0  0  0  0  0  0  0
    3.8805    1.7833    3.1314 C   0  0  0  0  0  0  0  0  0  0  0  0
    2.9275    0.6792    3.1843 C   0  0  0  0  0  0  0  0  0  0  0  0
    2.0639    0.1902    4.6077 S   0  0  0  0  0  0  0  0  0  0  0  0
    1.1383   -0.9897    3.7393 C   0  0  0  0  0  0  0  0  0  0  0  0
    0.0488   -1.7799    4.3758 C   0  0  0  0  0  0  0  0  0  0  0  0
    0.2801   -2.0365    5.8576 C   0  0  0  0  0  0  0  0  0  0  0  0
    1.5068   -1.0033    2.4276 C   0  0  0  0  0  0  0  0  0  0  0  0
    2.5142   -0.0572    2.1101 C   0  0  0  0  0  0  0  0  0  0  0  0
    3.1774    0.1017    0.5363 Cl  0  0  0  0  0  0  0  0  0  0  0  0
    0.8199   -2.0432    1.2488 Cl  0  0  0  0  0  0  0  0  0  0  0  0
    3.5851    2.8888    2.3476 C   0  0  0  0  0  0  0  0  0  0  0  0
    2.0517    3.1685    1.5968 S   0  0  0  0  0  0  0  0  0  0  0  0
    5.6824    0.7591    4.5757 C   0  0  0  0  0  0  0  0  0  0  0  0
    6.9691    1.0085    4.9612 C   0  0  0  0  0  0  0  0  0  0  0  0
    7.5669    2.5216    4.3100 S   0  0  0  0  0  0  0  0  0  0  0  0
    7.7926    0.1915    5.7853 C   0  0  0  0  0  0  0  0  0  0  0  0
    7.4851   -1.0649    6.2733 C   0  0  0  0  0  0  0  0  0  0  0  0
    8.5110   -1.5925    7.0508 C   0  0  0  0  0  0  0  0  0  0  0  0
    9.6045   -0.7362    7.1551 C   0  0  0  0  0  0  0  0  0  0  0  0
    9.3786    0.7290    6.2953 S   0  0  0  0  0  0  0  0  0  0  0  0
   10.5974   -1.3567    7.9572 C   0  0  0  0  0  0  0  0  0  0  0  0
   10.1388   -2.6028    8.3622 C   0  0  0  0  0  0  0  0  0  0  0  0
    8.7644   -2.8579    7.8172 C   0  0  0  0  0  0  0  0  0  0  0  0
   11.0688   -3.2838    9.1610 C   0  0  0  0  0  0  0  0  0  0  0  0
   12.2039   -2.5502    9.3454 C   0  0  0  0  0  0  0  0  0  0  0  0
   12.1709   -1.0141    8.5541 S   0  0  0  0  0  0  0  0  0  0  0  0
    3.2409  -10.4533    6.7623 H   0  0  0  0  0  0  0  0  0  0  0  0
    3.3516   -7.9004    6.3071 H   0  0  0  0  0  0  0  0  0  0  0  0
    4.2368   -3.8847    8.1984 H   0  0  0  0  0  0  0  0  0  0  0  0
    5.2704   -3.1548    6.9609 H   0  0  0  0  0  0  0  0  0  0  0  0
    2.6176   -2.0311    7.9835 H   0  0  0  0  0  0  0  0  0  0  0  0
    4.2297   -1.3795    8.2869 H   0  0  0  0  0  0  0  0  0  0  0  0
    3.5483   -1.3289    6.6599 H   0  0  0  0  0  0  0  0  0  0  0  0
   -3.4846  -13.6865    1.5201 H   0  0  0  0  0  0  0  0  0  0  0  0
   -2.4176  -12.9780    0.2927 H   0  0  0  0  0  0  0  0  0  0  0  0
   -4.7987  -12.5802   -0.2866 H   0  0  0  0  0  0  0  0  0  0  0  0
   -5.0521  -11.7602    1.2567 H   0  0  0  0  0  0  0  0  0  0  0  0
   -3.9816  -11.0489    0.0450 H   0  0  0  0  0  0  0  0  0  0  0  0
   -2.2877   -8.0720    1.8932 H   0  0  0  0  0  0  0  0  0  0  0  0
   -1.6302   -3.3569    1.3070 H   0  0  0  0  0  0  0  0  0  0  0  0
   -0.0290    2.5784   -0.1142 H   0  0  0  0  0  0  0  0  0  0  0  0
    1.0911    1.3514   -0.7040 H   0  0  0  0  0  0  0  0  0  0  0  0
    0.0121    1.4279   -2.9516 H   0  0  0  0  0  0  0  0  0  0  0  0
   -1.0994    2.6729   -2.3754 H   0  0  0  0  0  0  0  0  0  0  0  0
    0.6320    3.0108   -2.4749 H   0  0  0  0  0  0  0  0  0  0  0  0
   -5.4362   -8.6846   -5.7323 H   0  0  0  0  0  0  0  0  0  0  0  0
   -6.6114   -9.5853   -4.7547 H   0  0  0  0  0  0  0  0  0  0  0  0
   -8.3862   -7.9530   -5.3980 H   0  0  0  0  0  0  0  0  0  0  0  0
   -7.6640   -8.6957   -6.8285 H   0  0  0  0  0  0  0  0  0  0  0  0
   -7.2122   -7.0519   -6.3635 H   0  0  0  0  0  0  0  0  0  0  0  0
   -6.0916   -3.6960   -4.2852 H   0  0  0  0  0  0  0  0  0  0  0  0
   -7.2039    0.4863   -4.0078 H   0  0  0  0  0  0  0  0  0  0  0  0
   -9.8121    5.0409   -1.1303 H   0  0  0  0  0  0  0  0  0  0  0  0
   -8.8088    3.6922   -0.5653 H   0  0  0  0  0  0  0  0  0  0  0  0
  -11.4853    3.4210   -2.0218 H   0  0  0  0  0  0  0  0  0  0  0  0
  -10.4877    2.0747   -1.4612 H   0  0  0  0  0  0  0  0  0  0  0  0
  -11.2251    3.1759   -0.2922 H   0  0  0  0  0  0  0  0  0  0  0  0
   -0.0493   -0.0388  -11.0263 H   0  0  0  0  0  0  0  0  0  0  0  0
   -0.1168   -1.0068   -9.5401 H   0  0  0  0  0  0  0  0  0  0  0  0
   -2.1000   -2.2302  -10.4290 H   0  0  0  0  0  0  0  0  0  0  0  0
   -2.0237   -1.2773  -11.9150 H   0  0  0  0  0  0  0  0  0  0  0  0
   -0.7126   -2.3904  -11.5129 H   0  0  0  0  0  0  0  0  0  0  0  0
   -2.4934    4.0334   -7.3912 H   0  0  0  0  0  0  0  0  0  0  0  0
   -3.9161    5.7171   -3.4727 H   0  0  0  0  0  0  0  0  0  0  0  0
   -4.4491    2.4247    1.7591 H   0  0  0  0  0  0  0  0  0  0  0  0
   -6.0404    3.0646    1.3092 H   0  0  0  0  0  0  0  0  0  0  0  0
   -4.3051    1.2406   -0.4362 H   0  0  0  0  0  0  0  0  0  0  0  0
   -5.7095    0.7178    0.4968 H   0  0  0  0  0  0  0  0  0  0  0  0
   -5.9125    1.8314   -0.8608 H   0  0  0  0  0  0  0  0  0  0  0  0
    5.3437    4.8643   -6.1885 H   0  0  0  0  0  0  0  0  0  0  0  0
    5.4970    6.4361   -6.9970 H   0  0  0  0  0  0  0  0  0  0  0  0
    6.2192    5.8610   -4.0781 H   0  0  0  0  0  0  0  0  0  0  0  0
    6.3798    7.4270   -4.8819 H   0  0  0  0  0  0  0  0  0  0  0  0
    7.3720    6.0616   -5.4025 H   0  0  0  0  0  0  0  0  0  0  0  0
    2.9727    5.8538   -1.7312 H   0  0  0  0  0  0  0  0  0  0  0  0
    4.4790    5.7605    0.8353 H   0  0  0  0  0  0  0  0  0  0  0  0
    8.6117    7.4685   -0.5867 H   0  0  0  0  0  0  0  0  0  0  0  0
    9.4595    8.2443    0.7658 H   0  0  0  0  0  0  0  0  0  0  0  0
   11.0585    7.0754   -0.7413 H   0  0  0  0  0  0  0  0  0  0  0  0
   10.2067    5.5496   -0.4760 H   0  0  0  0  0  0  0  0  0  0  0  0
   11.0541    6.3328    0.8615 H   0  0  0  0  0  0  0  0  0  0  0  0
   -0.8922   -1.2354    4.2435 H   0  0  0  0  0  0  0  0  0  0  0  0
   -0.0439   -2.7276    3.8406 H   0  0  0  0  0  0  0  0  0  0  0  0
    0.3649   -1.0958    6.3975 H   0  0  0  0  0  0  0  0  0  0  0  0
   -0.5499   -2.6030    6.2713 H   0  0  0  0  0  0  0  0  0  0  0  0
    1.1943   -2.6045    6.0028 H   0  0  0  0  0  0  0  0  0  0  0  0
    5.1291   -0.1106    4.8741 H   0  0  0  0  0  0  0  0  0  0  0  0
    6.5592   -1.5600    6.0486 H   0  0  0  0  0  0  0  0  0  0  0  0
    8.7384   -3.7376    7.1706 H   0  0  0  0  0  0  0  0  0  0  0  0
    8.0313   -3.0065    8.6132 H   0  0  0  0  0  0  0  0  0  0  0  0
   10.9200   -4.2620    9.5815 H   0  0  0  0  0  0  0  0  0  0  0  0
   13.0764   -2.8185    9.9071 H   0  0  0  0  0  0  0  0  0  0  0  0
  1  2  2  0  0  0  0
  2  3  1  0  0  0  0
  3  4  2  0  0  0  0
  4  5  1  0  0  0  0
  5  6  1  0  0  0  0
  6  7  1  0  0  0  0
  7  8  1  0  0  0  0
  8  9  1  0  0  0  0
  7 10  2  0  0  0  0
 10 11  1  0  0  0  0
 10 12  1  0  0  0  0
 12 13  1  0  0  0  0
  4 14  1  0  0  0  0
 14 15  2  0  0  0  0
 15 16  1  0  0  0  0
 16 17  1  0  0  0  0
 17 18  1  0  0  0  0
 18 19  1  0  0  0  0
 19 20  1  0  0  0  0
 20 21  1  0  0  0  0
 19 22  2  0  0  0  0
 22 23  1  0  0  0  0
 23 24  1  0  0  0  0
 22 25  1  0  0  0  0
 16 26  2  0  0  0  0
 26 27  1  0  0  0  0
 15 28  1  0  0  0  0
 28 29  2  0  0  0  0
 29 30  1  0  0  0  0
 29 31  1  0  0  0  0
 31 32  2  0  0  0  0
 32 33  1  0  0  0  0
 33 34  2  0  0  0  0
 34 35  1  0  0  0  0
 35 36  1  0  0  0  0
 36 37  1  0  0  0  0
 37 38  1  0  0  0  0
 38 39  1  0  0  0  0
 37 40  2  0  0  0  0
 40 41  1  0  0  0  0
 40 42  1  0  0  0  0
 42 43  1  0  0  0  0
 34 44  1  0  0  0  0
 44 45  2  0  0  0  0
 45 46  1  0  0  0  0
 46 47  1  0  0  0  0
 47 48  1  0  0  0  0
 48 49  1  0  0  0  0
 49 50  1  0  0  0  0
 50 51  1  0  0  0  0
 49 52  2  0  0  0  0
 52 53  1  0  0  0  0
 53 54  1  0  0  0  0
 52 55  1  0  0  0  0
 46 56  2  0  0  0  0
 56 57  1  0  0  0  0
 45 58  1  0  0  0  0
 58 59  2  0  0  0  0
 59 60  1  0  0  0  0
 59 61  1  0  0  0  0
 61 62  2  0  0  0  0
 62 63  1  0  0  0  0
 63 64  2  0  0  0  0
 64 65  1  0  0  0  0
 65 66  1  0  0  0  0
 66 67  1  0  0  0  0
 67 68  1  0  0  0  0
 68 69  1  0  0  0  0
 67 70  2  0  0  0  0
 70 71  1  0  0  0  0
 70 72  1  0  0  0  0
 72 73  1  0  0  0  0
 64 74  1  0  0  0  0
 74 75  2  0  0  0  0
 75 76  1  0  0  0  0
 76 77  1  0  0  0  0
 77 78  1  0  0  0  0
 78 79  1  0  0  0  0
 79 80  1  0  0  0  0
 80 81  1  0  0  0  0
 79 82  2  0  0  0  0
 82 83  1  0  0  0  0
 83 84  1  0  0  0  0
 82 85  1  0  0  0  0
 76 86  2  0  0  0  0
 86 87  1  0  0  0  0
 75 88  1  0  0  0  0
 88 89  2  0  0  0  0
 89 90  1  0  0  0  0
 89 91  1  0  0  0  0
 91 92  2  0  0  0  0
 92 93  1  0  0  0  0
 93 94  2  0  0  0  0
 94 95  1  0  0  0  0
 95 96  1  0  0  0  0
 96 97  1  0  0  0  0
 97 98  1  0  0  0  0
 98 99  1  0  0  0  0
 97100  2  0  0  0  0
100101  1  0  0  0  0
100102  1  0  0  0  0
102103  1  0  0  0  0
 94104  1  0  0  0  0
104105  2  0  0  0  0
105106  1  0  0  0  0
106107  1  0  0  0  0
107108  1  0  0  0  0
108109  1  0  0  0  0
109110  1  0  0  0  0
110111  1  0  0  0  0
109112  2  0  0  0  0
112113  1  0  0  0  0
113114  1  0  0  0  0
112115  1  0  0  0  0
106116  2  0  0  0  0
116117  1  0  0  0  0
105118  1  0  0  0  0
118119  2  0  0  0  0
119120  1  0  0  0  0
119121  1  0  0  0  0
121122  2  0  0  0  0
122123  1  0  0  0  0
123124  2  0  0  0  0
124125  1  0  0  0  0
125126  1  0  0  0  0
126127  1  0  0  0  0
127128  1  0  0  0  0
128129  1  0  0  0  0
127130  2  0  0  0  0
130131  1  0  0  0  0
130132  1  0  0  0  0
132133  1  0  0  0  0
124134  1  0  0  0  0
134135  2  0  0  0  0
135136  1  0  0  0  0
136137  1  0  0  0  0
137138  1  0  0  0  0
138139  1  0  0  0  0
139140  1  0  0  0  0
140141  1  0  0  0  0
139142  2  0  0  0  0
142143  1  0  0  0  0
143144  1  0  0  0  0
142145  1  0  0  0  0
136146  2  0  0  0  0
146147  1  0  0  0  0
135148  1  0  0  0  0
148149  2  0  0  0  0
149150  1  0  0  0  0
149151  1  0  0  0  0
151152  2  0  0  0  0
152153  1  0  0  0  0
153154  2  0  0  0  0
154155  1  0  0  0  0
154156  1  0  0  0  0
156157  2  0  0  0  0
157158  1  0  0  0  0
157159  1  0  0  0  0
159160  2  0  0  0  0
160161  1  0  0  0  0
 27  1  1  0  0  0  0
 57 31  1  0  0  0  0
 87 61  1  0  0  0  0
117 91  1  0  0  0  0
147121  1  0  0  0  0
155151  1  0  0  0  0
161156  1  0  0  0  0
 26  3  1  0  0  0  0
 56 33  1  0  0  0  0
 86 63  1  0  0  0  0
116 93  1  0  0  0  0
146123  1  0  0  0  0
158153  1  0  0  0  0
 12  5  2  0  0  0  0
 30 14  1  0  0  0  0
 42 35  2  0  0  0  0
 60 44  1  0  0  0  0
 72 65  2  0  0  0  0
 90 74  1  0  0  0  0
102 95  2  0  0  0  0
120104  1  0  0  0  0
132125  2  0  0  0  0
150134  1  0  0  0  0
 23 17  2  0  0  0  0
 53 47  2  0  0  0  0
 83 77  2  0  0  0  0
113107  2  0  0  0  0
143137  2  0  0  0  0
  1162  1  0  0  0  0
  2163  1  0  0  0  0
  8164  1  0  0  0  0
  8165  1  0  0  0  0
  9166  1  0  0  0  0
  9167  1  0  0  0  0
  9168  1  0  0  0  0
 20169  1  0  0  0  0
 20170  1  0  0  0  0
 21171  1  0  0  0  0
 21172  1  0  0  0  0
 21173  1  0  0  0  0
 28174  1  0  0  0  0
 32175  1  0  0  0  0
 38176  1  0  0  0  0
 38177  1  0  0  0  0
 39178  1  0  0  0  0
 39179  1  0  0  0  0
 39180  1  0  0  0  0
 50181  1  0  0  0  0
 50182  1  0  0  0  0
 51183  1  0  0  0  0
 51184  1  0  0  0  0
 51185  1  0  0  0  0
 58186  1  0  0  0  0
 62187  1  0  0  0  0
 68188  1  0  0  0  0
 68189  1  0  0  0  0
 69190  1  0  0  0  0
 69191  1  0  0  0  0
 69192  1  0  0  0  0
 80193  1  0  0  0  0
 80194  1  0  0  0  0
 81195  1  0  0  0  0
 81196  1  0  0  0  0
 81197  1  0  0  0  0
 88198  1  0  0  0  0
 92199  1  0  0  0  0
 98200  1  0  0  0  0
 98201  1  0  0  0  0
 99202  1  0  0  0  0
 99203  1  0  0  0  0
 99204  1  0  0  0  0
110205  1  0  0  0  0
110206  1  0  0  0  0
111207  1  0  0  0  0
111208  1  0  0  0  0
111209  1  0  0  0  0
118210  1  0  0  0  0
122211  1  0  0  0  0
128212  1  0  0  0  0
128213  1  0  0  0  0
129214  1  0  0  0  0
129215  1  0  0  0  0
129216  1  0  0  0  0
140217  1  0  0  0  0
140218  1  0  0  0  0
141219  1  0  0  0  0
141220  1  0  0  0  0
141221  1  0  0  0  0
148222  1  0  0  0  0
152223  1  0  0  0  0
158224  1  0  0  0  0
158225  1  0  0  0  0
159226  1  0  0  0  0
160227  1  0  0  0  0
M  END
