173

C         20.45330       -6.15480       13.46170
C         19.87750       -6.96170       14.39830
C         18.57160       -7.32320       14.03610
C         18.18570       -6.77520       12.82060
S         19.42250       -5.81370       12.11570
C         16.85970       -7.18610       12.52800
C         16.40110       -7.99860       13.56060
C         17.46110       -8.15120       14.61240
C         15.09950       -8.45020       13.35980
C         14.55940       -7.98380       12.17400
S         15.68820       -6.96940       11.29440
C         13.26140       -8.23170       11.65340
C         12.25490       -8.99790       12.21780
C         11.10190       -9.01040       11.44050
C         11.22290       -8.25370       10.27600
S         12.76750       -7.51980       10.12920
C         10.00390       -8.30570        9.56350
C          9.09660       -9.09540       10.26950
C          9.73260       -9.61990       11.52380
C          7.85520       -9.18100        9.64990
C          7.80590       -8.45850        8.46850
S          9.33290       -7.66770        8.11970
C          6.69700       -8.28140        7.60100
C          5.40020       -8.73830        7.77540
C          4.55410       -8.32660        6.75170
C          5.20370       -7.56040        5.78480
S          6.87040       -7.34270        6.13070
C          4.26280       -7.14440        4.81670
C          3.00370       -7.63660        5.16360
C          3.09570       -8.45410        6.41930
C          2.00300       -7.22190        4.29240
C          2.49300       -6.41910        3.27650
S          4.22580       -6.18600        3.39720
C          1.76040       -5.75330        2.25560
C          0.40300       -5.63770        2.12890
C          0.00320       -4.81030        1.05360
C         -1.29640       -4.40940        0.69460
C         -2.47250       -4.88690        1.40250
S         -2.61670       -4.75590        3.13130
C         -4.20540       -5.44460        3.13330
C         -4.94300       -5.67480        4.40580
C         -4.44060       -6.93630        5.11150
C         -4.58200       -5.76280        1.86340
Cl        -6.08850       -6.47930        1.46220
C         -3.60760       -5.44170        0.87980
Cl        -3.82760       -5.80420       -0.78060
C         -1.40950       -3.49100       -0.34230
C         -0.29720       -3.00570       -1.07410
C          0.99460       -3.47350       -0.77210
C          2.16720       -3.07180       -1.53150
S          2.57930       -1.40450       -1.80840
C          4.03050       -1.81900       -2.66120
C          4.94490       -0.76950       -3.18850
C          5.50920        0.09850       -2.06390
C          4.16730       -3.17240       -2.72480
C          3.11450       -3.88510       -2.08950
Cl         3.02610       -5.59590       -2.11500
Cl         5.47390       -3.97300       -3.49720
C          1.11320       -4.33420        0.31050
S          2.61230       -4.88690        0.99510
C         -0.67550       -2.03110       -2.02680
C         -2.01010       -1.74050       -2.00870
S         -2.88180       -2.71460       -0.84680
C         -2.68260       -0.72410       -2.75210
C         -2.10490        0.25260       -3.51150
C         -3.03250        1.18080       -4.04050
C         -2.76480        2.33580       -4.79790
C         -1.40470        2.73120       -5.12310
S         -0.19890        2.89750       -3.87980
C          1.00960        3.40840       -5.00890
C          2.40250        3.68590       -4.56350
C          3.15770        2.38220       -4.29590
C          0.49660        3.43380       -6.27070
Cl         1.39580        3.87810       -7.66300
C         -0.87290        3.05850       -6.33930
Cl        -1.71970        2.95030       -7.82490
C         -3.85500        3.10740       -5.17690
C         -5.19000        2.76380       -4.84680
C         -5.45550        1.62730       -4.06280
C         -6.80850        1.31940       -3.63080
S         -7.50060       -0.25760       -3.86900
C         -9.00270        0.20610       -3.14780
C        -10.15250       -0.73710       -3.07410
C        -11.05440       -0.59810       -4.30300
C         -8.95640        1.50970       -2.75130
C         -7.71260        2.14250       -3.01490
Cl        -7.38390        3.75330       -2.51610
Cl       -10.26450        2.33000       -2.00200
C         -4.36560        0.85380       -3.68830
S         -4.42440       -0.56560       -2.68360
C         -6.11620        3.70850       -5.34620
C         -5.52800        4.77640       -5.96020
S         -3.78670        4.62750       -6.01980
C         -6.18530        5.95120       -6.43520
C         -7.51470        6.23650       -6.32110
C         -7.85320        7.53900       -6.75830
C         -9.11570        8.15630       -6.73820
C        -10.26140        7.48650       -6.14790
S        -11.76850        7.33770       -7.00230
C        -12.50600        6.45800       -5.70830
C        -13.93070        6.03110       -5.77510
C        -14.84870        7.11680       -5.20790
C        -11.62940        6.30970       -4.67480
Cl       -11.99960        5.48620       -3.21520
C        -10.35620        6.88980       -4.91920
Cl        -9.11490        6.89970       -3.73140
C         -9.19740        9.43330       -7.27950
C         -8.07730       10.12180       -7.80370
C         -6.81460        9.50780       -7.81240
C         -5.64850       10.17010       -8.37410
S         -4.17430       10.33410       -7.46810
C         -3.37240       11.14130       -8.77090
C         -1.94300       11.54390       -8.66560
C         -1.02290       10.38060       -9.04440
C         -4.20670       11.25800       -9.84250
C         -5.49980       10.71360       -9.61990
Cl        -6.71010       10.67940      -10.83680
Cl        -3.75990       11.99310      -11.32760
C         -6.72950        8.23300       -7.26800
S         -5.28420        7.26970       -7.15110
C         -8.42100       11.44210       -8.21820
C         -9.72640       11.72500       -8.03550
S        -10.62880       10.42290       -7.34040
H         21.43680       -5.72880       13.47440
H         20.37520       -7.27410       15.29870
H         17.75550       -9.19420       14.74700
H         17.12950       -7.77070       15.58090
H         14.56120       -9.08660       14.03770
H         12.36860       -9.51440       13.15300
H          9.77430      -10.71120       11.53170
H          9.19650       -9.29980       12.41940
H          7.01760       -9.73640       10.03000
H          5.09800       -9.32900        8.62040
H          2.80670       -9.49340        6.24930
H          2.46060       -8.05660        7.21330
H          0.96390       -7.48060        4.38100
H         -0.28830       -6.10380        2.80520
H         -6.00520       -5.77920        4.17810
H         -4.80890       -4.81440        5.06430
H         -4.99420       -7.09460        6.03310
H         -3.38420       -6.83810        5.35080
H         -4.57390       -7.80490        4.47130
H          4.40350       -0.13590       -3.89460
H          5.75820       -1.26330       -3.72240
H          6.06030       -0.51360       -1.35450
H          4.70340        0.60190       -1.53500
H          6.18240        0.84750       -2.47200
H          0.02090       -1.54910       -2.68640
H         -1.04520        0.31950       -3.67000
H          2.38090        4.28420       -3.65070
H          2.91110        4.25480       -5.34340
H          3.19560        1.78160       -5.20190
H          4.17320        2.59900       -3.97570
H          2.65700        1.81200       -3.51600
H         -9.77680       -1.75920       -3.00970
H        -10.72980       -0.51740       -2.17370
H        -10.49430       -0.81610       -5.20920
H        -11.88920       -1.29020       -4.23320
H        -11.44530        0.41400       -4.37000
H         -7.17920        3.59990       -5.24870
H         -8.23240        5.53860       -5.93500
H        -14.20090        5.83070       -6.81310
H        -14.05100        5.11310       -5.19640
H        -14.60020        7.31370       -4.16810
H        -14.73570        8.03910       -5.77300
H        -15.88540        6.79630       -5.26420
H         -1.72900       11.85860       -7.64280
H         -1.76420       12.38590       -9.33700
H          0.01700       10.68410       -8.95910
H         -1.21240       10.06910      -10.06860
H         -1.19590        9.53270       -8.38590
H         -7.71020       12.14090       -8.61840
H        -10.24010       12.63860       -8.26220
