62

C          9.66020        6.68430        2.49700
S          8.27920        7.12010        1.54570
C          7.47080        5.58670        1.79660
C          8.26960        4.79250        2.59160
C          9.49270        5.42440        2.97440
O         10.17790        4.54270        3.74680
C          9.36150        3.45590        3.79150
N          8.25310        3.53620        3.14980
C          6.20690        5.32340        1.22510
S          5.36400        3.80110        1.45200
C          3.98400        4.27930        0.48210
C          4.19030        5.56910        0.01260
C          5.42220        6.13090        0.43190
O          5.50440        7.37970       -0.08710
C          4.34360        7.51130       -0.78070
N          3.54630        6.50450       -0.76160
C          2.87870        3.43830        0.25750
S          2.75710        1.81570        0.92210
C          1.18650        1.49480        0.20790
C          0.79790        2.61540       -0.50930
C          1.73340        3.68000       -0.47730
O          1.22200        4.69170       -1.21240
C          0.03410        4.20950       -1.64460
N         -0.27130        3.01570       -1.27390
C          0.50800        0.27460        0.38570
C          0.92640       -0.83180        1.11370
C          0.00180       -1.86250        1.07050
C         -1.12930       -1.54750        0.30770
S         -1.05810        0.03180       -0.36430
C         -2.00950       -2.65120        0.32130
C         -1.44920       -3.67500        1.09000
C         -0.11640       -3.24920        1.63010
C         -2.25180       -4.80510        1.15790
C         -3.42960       -4.65030        0.44110
S         -3.54190       -3.08110       -0.32690
C         -4.45300       -5.61890        0.31450
S         -5.92700       -5.37190       -0.60890
C         -6.57270       -6.95950       -0.24900
C         -5.67090       -7.63380        0.55200
C         -4.50600       -6.88510        0.85630
O         -3.71580       -7.66220        1.64200
C         -4.42630       -8.81270        1.76920
N         -5.55860       -8.85970        1.16660
C         -7.82350       -7.39240       -0.74390
S         -8.45920       -8.98520       -0.37640
C         -9.90620       -8.74570       -1.28370
C         -9.90860       -7.50120       -1.84630
C         -8.73720       -6.74570       -1.54010
O         -8.85460       -5.53980       -2.14900
C        -10.05600       -5.61850       -2.77700
N        -10.71120       -6.71280       -2.64530
H         10.46620        7.37540        2.62520
H          9.69320        2.60700        4.35620
H          4.16850        8.43590       -1.29390
H         -0.57320        4.84210       -2.26140
H          1.86570       -0.84890        1.63680
H          0.69000       -3.89870        1.28380
H         -0.09960       -3.25110        2.72170
H         -2.01860       -5.70770        1.69230
H         -4.00130       -9.60090        2.35870
H        -10.64150       -9.52040       -1.34050
H        -10.37930       -4.76520       -3.34060
