200

C          9.96900       -2.96310       19.32180
C         10.38920       -3.27460       18.07920
C          9.73460       -2.51410       17.06600
C          9.88920       -2.60650       15.67360
C         10.82050       -3.54350       15.06430
S         12.51090       -3.54140       15.47090
C         12.86230       -4.81600       14.35430
C         14.25430       -5.30030       14.14490
C         14.96840       -4.45830       13.08470
C         11.72700       -5.20570       13.70920
Cl        11.67780       -6.44990       12.52900
C         10.56720       -4.48920       14.11020
Cl         9.00640       -4.85090       13.50180
C          9.11300       -1.75810       14.89380
C          8.18610       -0.84420       15.45110
C          7.98980       -0.78980       16.84130
C          6.98050        0.09030       17.40360
S          7.34830        1.20400       18.68720
C          5.74180        1.84640       18.69750
C          5.36180        2.97420       19.59160
C          5.69330        4.31950       18.94040
C          4.97770        1.22460       17.75550
C          5.67110        0.22330       17.02620
Cl         4.88780       -0.76060       15.85420
Cl         3.32910        1.59920       17.45950
C          8.79210       -1.61470       17.61950
S          8.74950       -1.73630       19.35570
C          7.56520       -0.05190       14.45770
C          7.95700       -0.36230       13.18850
S          9.16770       -1.62300       13.15880
C          7.40530        0.19670       11.99540
C          6.21440        0.85900       11.92170
C          5.87750        1.27610       10.61420
C          4.69560        1.91400       10.19210
C          3.65790        2.25730       11.15090
S          4.02290        3.17180       12.58660
C          2.38730        3.10050       13.15020
C          1.98650        3.75480       14.42560
C          1.97750        5.27830       14.29100
C          1.61450        2.41730       12.26060
Cl        -0.06510        2.13310       12.46830
C          2.32980        1.93390       11.13060
Cl         1.58920        0.96040        9.93080
C          4.57300        2.16850        8.83430
C          5.56740        1.80470        7.88950
C          6.72900        1.13370        8.31020
C          7.72630        0.68130        7.35580
S          9.40800        1.07530        7.54860
C          9.85430        0.21030        6.11910
C         11.27930        0.08400        5.70690
C         11.90900       -1.16360        6.33180
C          8.75590       -0.35630        5.54450
C          7.54650       -0.08810        6.23920
Cl         6.03850       -0.74960        5.75450
Cl         8.80770       -1.30300        4.11430
C          6.86380        0.89960        9.67190
S          8.17930        0.04930       10.43460
C          5.21900        2.19890        6.57740
C          4.00080        2.81080        6.49340
S          3.24080        2.98140        8.06470
C          3.30800        3.20380        5.31820
C          2.03690        3.73810        5.22290
C          1.61970        3.87240        3.90330
C          2.58030        3.44470        2.98630
S          4.01430        2.88600        3.74370
C          2.03940        3.52330        1.68330
C          0.72980        3.99580        1.76200
C          0.37010        4.29270        3.18760
C          0.08400        4.00700        0.53080
C          0.89330        3.54390       -0.49130
S          2.49710        3.11450        0.07970
C          0.53110        3.29600       -1.83880
C          1.33330        2.82470       -2.86260
C          0.61060        2.56290       -4.02150
C         -0.75000        2.83530       -3.88560
S         -1.14750        3.44620       -2.33130
C         -1.42040        2.44290       -5.06570
C         -0.48860        1.92190       -5.96460
C          0.89210        1.99410       -5.38100
C         -1.07520        1.42460       -7.12220
C         -2.45320        1.55700       -7.10970
S         -3.02820        2.33820       -5.65080
C         -3.37960        1.06540       -8.07000
C         -3.11300        0.30460       -9.17440
C         -4.27250       -0.11300       -9.86850
C         -4.35010       -0.93380      -11.00790
C         -3.14940       -1.40790      -11.67650
S         -1.93070       -0.29270      -12.22380
C         -0.94540       -1.56050      -12.86950
C          0.32710       -1.26530      -13.58390
C          0.07130       -1.01490      -15.07200
C         -1.54240       -2.76880      -12.67110
Cl        -0.86330       -4.26250      -13.17230
C         -2.78830       -2.68830      -11.99150
Cl        -3.67860       -4.08290      -11.54690
C         -5.62010       -1.26860      -11.45860
C         -6.80640       -0.80780      -10.83380
C         -6.72830        0.04780       -9.72000
C         -7.92310        0.59000       -9.09510
S         -8.17270        0.47900       -7.37790
C         -9.68260        1.31730       -7.46310
C        -10.46240        1.63360       -6.23500
C        -10.00600        2.96380       -5.63060
C         -9.95830        1.66730       -8.75130
C         -8.96920        1.24950       -9.68090
Cl        -9.06680        1.62360      -11.35440
Cl       -11.36000        2.53680       -9.22310
C         -5.45890        0.35110       -9.24890
S         -5.09940        1.32970       -7.85580
C         -7.96620       -1.33520      -11.44940
C         -7.69690       -2.12910      -12.52670
S         -5.98140       -2.27080      -12.83210
C         -8.63860       -2.82000      -13.34860
C         -9.99440       -2.66920      -13.35290
C        -10.65300       -3.51500      -14.27860
C        -12.02810       -3.58980      -14.55600
C        -12.97400       -2.71300      -13.88510
S        -12.75040       -0.98740      -13.89760
C        -14.18170       -0.71370      -12.96310
C        -14.56610        0.66250      -12.54600
C        -13.57920        1.21740      -11.51740
C        -14.78350       -1.89910      -12.66530
Cl       -16.22480       -2.04050      -11.74440
C        -14.10640       -3.03380      -13.19090
Cl       -14.63160       -4.63650      -12.88820
C        -12.42780       -4.51130      -15.51640
C        -11.51910       -5.35900      -16.19540
C        -10.14690       -5.29220      -15.90950
C         -9.17960       -6.14610      -16.58190
S         -9.05470       -6.19060      -18.31600
C         -7.74620       -7.32370      -18.27280
C         -7.08410       -7.78550      -19.52370
C         -6.08180       -6.74600      -20.02990
C         -7.43380       -7.63460      -16.98370
C         -8.24500       -6.97220      -16.02270
Cl        -8.09800       -7.26480      -14.34040
Cl        -6.19000       -8.72860      -16.53620
C         -9.74380       -4.36000      -14.96120
S         -8.10270       -4.03410      -14.48760
C        -12.18830       -6.20400      -17.12810
C        -13.51820       -5.98440      -17.17230
S        -14.05530       -4.75500      -16.08270
H         10.29720       -3.38290       20.25240
H         11.13520       -4.01910       17.87130
H         14.21790       -6.34180       13.82010
H         14.80420       -5.24450       15.08580
H         15.98000       -4.82570       12.93500
H         15.01650       -3.41820       13.39850
H         14.43390       -4.51180       12.13980
H          4.28970        2.91900       19.79010
H          5.89900        2.88480       20.53700
H          6.76260        4.39730       18.76020
H          5.17250        4.41680       17.99120
H          5.38810        5.13470       19.59060
H          6.87450        0.73960       14.67680
H          5.57980        1.00960       12.77390
H          2.68390        3.46600       15.21510
H          0.99090        3.40060       14.69760
H          2.96710        5.63840       14.01920
H          1.68560        5.73450       15.23310
H          1.27280        5.58510       13.52200
H         11.32920        0.01290        4.61860
H         11.82860        0.97030        6.02760
H         11.85010       -1.11130        7.41580
H         12.95290       -1.24240        6.04090
H         11.38580       -2.05510        5.99800
H          5.84100        2.03320        5.71690
H          1.45260        3.98740        6.09080
H          0.14820        5.35110        3.34010
H         -0.49930        3.71970        3.51580
H         -0.93320        4.31350        0.36420
H          2.39010        2.66810       -2.73900
H          1.54640        2.64520       -5.96480
H          1.36470        1.01190       -5.32340
H         -0.53990        0.97230       -7.93660
H         -2.11870        0.02550       -9.46790
H          0.79560       -0.38440      -13.14170
H          0.99980       -2.11730      -13.46780
H          1.00770       -0.80550      -15.58200
H         -0.59580       -0.16610      -15.20240
H         -0.38620       -1.88970      -15.52680
H        -10.32560        0.83560       -5.50360
H        -11.52090        1.69450       -6.49510
H        -10.57490        3.17930       -4.73030
H         -8.95010        2.91930       -5.37570
H        -10.15850        3.77180       -6.34140
H         -8.96040       -1.15860      -11.08510
H        -10.50710       -1.97060      -12.71930
H        -15.56960        0.62900      -12.11900
H        -14.58120        1.31780      -13.41990
H        -13.86610        2.22470      -11.22830
H        -12.57570        1.24820      -11.93560
H        -13.56630        0.59160      -10.62840
H         -6.56780       -8.72450      -19.31740
H         -7.84000       -7.96280      -20.29090
H         -5.31850       -6.56150      -19.27890
H         -6.58840       -5.80920      -20.24780
H         -5.60000       -7.10250      -20.93640
H        -11.68500       -6.93680      -17.73130
H        -14.24680       -6.47910      -17.78430
