
  xtb     03022201213D
 energy: -257.585823676371 gnorm: 0.000165799776 xtb: 6.4.1 (unknown)
172189  0     0  0            999 V2000
   -1.6843    8.7623    3.2755 C   0  0  0  0  0  0  0  0  0  0  0  0
   -0.9270    8.6531    2.1461 C   0  0  0  0  0  0  0  0  0  0  0  0
   -0.9011    7.3365    1.6643 C   0  0  0  0  0  0  0  0  0  0  0  0
   -1.6388    6.4689    2.4541 C   0  0  0  0  0  0  0  0  0  0  0  0
   -2.3783    7.2629    3.7872 S   0  0  0  0  0  0  0  0  0  0  0  0
   -1.5701    5.1661    1.8969 C   0  0  0  0  0  0  0  0  0  0  0  0
   -0.7878    5.2049    0.7463 C   0  0  0  0  0  0  0  0  0  0  0  0
   -0.2300    6.5930    0.5313 C   0  0  0  0  0  0  0  0  0  0  0  0
    1.2938    6.6333    0.7917 C   0  0  0  0  0  0  0  0  0  0  0  0
    2.1309    5.7508   -0.1235 C   0  0  0  0  0  0  0  0  0  0  0  0
   -0.5820    7.1684   -0.8461 C   0  0  0  0  0  0  0  0  0  0  0  0
   -2.0830    7.2052   -1.1045 C   0  0  0  0  0  0  0  0  0  0  0  0
   -0.7344    3.9752    0.0977 C   0  0  0  0  0  0  0  0  0  0  0  0
   -1.4416    2.9870    0.7616 C   0  0  0  0  0  0  0  0  0  0  0  0
   -2.2082    3.6068    2.2169 S   0  0  0  0  0  0  0  0  0  0  0  0
   -1.5631    1.6291    0.3764 C   0  0  0  0  0  0  0  0  0  0  0  0
   -2.1513    0.6568    1.1125 C   0  0  0  0  0  0  0  0  0  0  0  0
   -2.2314   -0.7059    0.7294 C   0  0  0  0  0  0  0  0  0  0  0  0
   -2.6226   -1.7799    1.5131 C   0  0  0  0  0  0  0  0  0  0  0  0
   -2.5021   -3.0014    0.8564 C   0  0  0  0  0  0  0  0  0  0  0  0
   -2.0097   -2.8631   -0.4386 C   0  0  0  0  0  0  0  0  0  0  0  0
   -1.7449   -1.2250   -0.8753 S   0  0  0  0  0  0  0  0  0  0  0  0
   -1.8025   -4.1448   -0.9977 C   0  0  0  0  0  0  0  0  0  0  0  0
   -2.1572   -5.1115   -0.0625 C   0  0  0  0  0  0  0  0  0  0  0  0
   -2.7156   -4.4640    1.1865 C   0  0  0  0  0  0  0  0  0  0  0  0
   -4.2218   -4.7945    1.2582 C   0  0  0  0  0  0  0  0  0  0  0  0
   -4.9597   -4.1552    2.4267 C   0  0  0  0  0  0  0  0  0  0  0  0
   -1.9324   -4.8376    2.4545 C   0  0  0  0  0  0  0  0  0  0  0  0
   -2.0275   -6.3042    2.8532 C   0  0  0  0  0  0  0  0  0  0  0  0
   -1.9393   -6.4066   -0.5270 C   0  0  0  0  0  0  0  0  0  0  0  0
   -1.4025   -6.4362   -1.7967 C   0  0  0  0  0  0  0  0  0  0  0  0
   -1.2095   -4.8223   -2.4596 S   0  0  0  0  0  0  0  0  0  0  0  0
   -1.0877   -7.5778   -2.6025 C   0  0  0  0  0  0  0  0  0  0  0  0
   -0.4906   -8.7226   -2.2054 C   0  0  0  0  0  0  0  0  0  0  0  0
    0.2028   -9.0295   -0.9974 C   0  0  0  0  0  0  0  0  0  0  0  0
    0.7915  -10.2580   -0.7381 C   0  0  0  0  0  0  0  0  0  0  0  0
    1.5824  -10.2529    0.4047 C   0  0  0  0  0  0  0  0  0  0  0  0
    1.6100   -9.0118    1.0325 C   0  0  0  0  0  0  0  0  0  0  0  0
    0.6311   -7.8479    0.2302 S   0  0  0  0  0  0  0  0  0  0  0  0
    2.4983   -9.0745    2.1359 C   0  0  0  0  0  0  0  0  0  0  0  0
    3.0321  -10.3575    2.2156 C   0  0  0  0  0  0  0  0  0  0  0  0
    2.4734  -11.2377    1.1233 C   0  0  0  0  0  0  0  0  0  0  0  0
    1.6670  -12.4165    1.6983 C   0  0  0  0  0  0  0  0  0  0  0  0
    0.5393  -11.9736    2.6223 C   0  0  0  0  0  0  0  0  0  0  0  0
    3.5855  -11.7722    0.2031 C   0  0  0  0  0  0  0  0  0  0  0  0
    4.4362  -10.6666   -0.4101 C   0  0  0  0  0  0  0  0  0  0  0  0
    3.9641  -10.4873    3.2400 C   0  0  0  0  0  0  0  0  0  0  0  0
    4.1625   -9.3099    3.9404 C   0  0  0  0  0  0  0  0  0  0  0  0
    3.1388   -8.0229    3.3295 S   0  0  0  0  0  0  0  0  0  0  0  0
    5.1143   -9.1375    4.9965 C   0  0  0  0  0  0  0  0  0  0  0  0
    5.4483   -7.9981    5.6224 C   0  0  0  0  0  0  0  0  0  0  0  0
    4.8232   -6.7200    5.3065 C   0  0  0  0  0  0  0  0  0  0  0  0
    3.6572   -6.2182    5.8200 C   0  0  0  0  0  0  0  0  0  0  0  0
    3.2140   -5.0801    5.1342 C   0  0  0  0  0  0  0  0  0  0  0  0
    4.0899   -4.6978    4.1309 C   0  0  0  0  0  0  0  0  0  0  0  0
    5.4615   -5.7243    4.0130 S   0  0  0  0  0  0  0  0  0  0  0  0
    3.5090   -3.6419    3.3821 C   0  0  0  0  0  0  0  0  0  0  0  0
    2.2403   -3.3799    3.8852 C   0  0  0  0  0  0  0  0  0  0  0  0
    1.9835   -4.1989    5.1339 C   0  0  0  0  0  0  0  0  0  0  0  0
    0.6788   -4.9948    4.9772 C   0  0  0  0  0  0  0  0  0  0  0  0
    0.2701   -5.8299    6.1841 C   0  0  0  0  0  0  0  0  0  0  0  0
    2.0219   -3.3002    6.3875 C   0  0  0  0  0  0  0  0  0  0  0  0
    0.8936   -2.2802    6.4648 C   0  0  0  0  0  0  0  0  0  0  0  0
    1.5198   -2.5033    3.0747 C   0  0  0  0  0  0  0  0  0  0  0  0
    2.2542   -2.0535    1.9952 C   0  0  0  0  0  0  0  0  0  0  0  0
    3.8685   -2.7361    1.9714 S   0  0  0  0  0  0  0  0  0  0  0  0
    1.8044   -1.1981    0.9459 C   0  0  0  0  0  0  0  0  0  0  0  0
    2.5840   -0.4001    0.1926 C   0  0  0  0  0  0  0  0  0  0  0  0
    2.0349    0.3501   -0.9005 C   0  0  0  0  0  0  0  0  0  0  0  0
    1.1167   -0.1047   -1.8193 C   0  0  0  0  0  0  0  0  0  0  0  0
    0.6724    0.9012   -2.6762 C   0  0  0  0  0  0  0  0  0  0  0  0
    1.2596    2.1340   -2.4081 C   0  0  0  0  0  0  0  0  0  0  0  0
    2.3996    2.0507   -1.1205 S   0  0  0  0  0  0  0  0  0  0  0  0
    0.6748    3.1091   -3.2530 C   0  0  0  0  0  0  0  0  0  0  0  0
   -0.2803    2.4988   -4.0626 C   0  0  0  0  0  0  0  0  0  0  0  0
   -0.3329    1.0270   -3.7814 C   0  0  0  0  0  0  0  0  0  0  0  0
   -0.9649    3.4003   -4.8726 C   0  0  0  0  0  0  0  0  0  0  0  0
   -0.5528    4.7040   -4.6767 C   0  0  0  0  0  0  0  0  0  0  0  0
    0.7389    4.8097   -3.4916 S   0  0  0  0  0  0  0  0  0  0  0  0
   -1.0670    5.8829   -5.2722 C   0  0  0  0  0  0  0  0  0  0  0  0
   -0.7893    7.1946   -4.9349 C   0  0  0  0  0  0  0  0  0  0  0  0
   -1.4983    8.1059   -5.7130 C   0  0  0  0  0  0  0  0  0  0  0  0
   -2.3278    7.4848   -6.6416 C   0  0  0  0  0  0  0  0  0  0  0  0
   -2.2337    5.7712   -6.5783 S   0  0  0  0  0  0  0  0  0  0  0  0
   -3.0499    8.4721   -7.3544 C   0  0  0  0  0  0  0  0  0  0  0  0
   -2.6909    9.7276   -6.8769 C   0  0  0  0  0  0  0  0  0  0  0  0
   -1.6424    9.6083   -5.7924 C   0  0  0  0  0  0  0  0  0  0  0  0
   -2.1223   10.1988   -4.4566 C   0  0  0  0  0  0  0  0  0  0  0  0
   -3.5042    9.6955   -4.0551 C   0  0  0  0  0  0  0  0  0  0  0  0
   -0.3528   10.2924   -6.2923 C   0  0  0  0  0  0  0  0  0  0  0  0
    0.8532   10.1420   -5.3748 C   0  0  0  0  0  0  0  0  0  0  0  0
   -3.3601   10.7633   -7.5249 C   0  0  0  0  0  0  0  0  0  0  0  0
   -4.2337   10.3063   -8.4910 C   0  0  0  0  0  0  0  0  0  0  0  0
   -4.2211    8.5565   -8.6031 S   0  0  0  0  0  0  0  0  0  0  0  0
   -5.1026   11.0398   -9.3658 C   0  0  0  0  0  0  0  0  0  0  0  0
   -5.2300   12.3658   -9.3994 C   0  0  0  0  0  0  0  0  0  0  0  0
   -1.8857    9.6430    3.8524 H   0  0  0  0  0  0  0  0  0  0  0  0
   -0.4235    9.4870    1.6906 H   0  0  0  0  0  0  0  0  0  0  0  0
    1.6205    7.6715    0.6962 H   0  0  0  0  0  0  0  0  0  0  0  0
    1.4642    6.3267    1.8270 H   0  0  0  0  0  0  0  0  0  0  0  0
    2.0208    6.0357   -1.1660 H   0  0  0  0  0  0  0  0  0  0  0  0
    3.1810    5.8469    0.1434 H   0  0  0  0  0  0  0  0  0  0  0  0
    1.8514    4.7069   -0.0159 H   0  0  0  0  0  0  0  0  0  0  0  0
   -0.1067    6.5544   -1.6108 H   0  0  0  0  0  0  0  0  0  0  0  0
   -0.1737    8.1795   -0.9145 H   0  0  0  0  0  0  0  0  0  0  0  0
   -2.2811    7.6010   -2.0977 H   0  0  0  0  0  0  0  0  0  0  0  0
   -2.5870    7.8344   -0.3741 H   0  0  0  0  0  0  0  0  0  0  0  0
   -2.5045    6.2045   -1.0444 H   0  0  0  0  0  0  0  0  0  0  0  0
   -0.2174    3.7838   -0.8238 H   0  0  0  0  0  0  0  0  0  0  0  0
   -1.1181    1.3741   -0.5778 H   0  0  0  0  0  0  0  0  0  0  0  0
   -2.5652    0.9019    2.0828 H   0  0  0  0  0  0  0  0  0  0  0  0
   -2.9462   -1.6488    2.5306 H   0  0  0  0  0  0  0  0  0  0  0  0
   -4.3358   -5.8788    1.3001 H   0  0  0  0  0  0  0  0  0  0  0  0
   -4.6765   -4.4556    0.3234 H   0  0  0  0  0  0  0  0  0  0  0  0
   -4.8749   -3.0726    2.3893 H   0  0  0  0  0  0  0  0  0  0  0  0
   -4.5721   -4.5058    3.3796 H   0  0  0  0  0  0  0  0  0  0  0  0
   -6.0151   -4.4142    2.3754 H   0  0  0  0  0  0  0  0  0  0  0  0
   -2.2934   -4.2119    3.2731 H   0  0  0  0  0  0  0  0  0  0  0  0
   -0.8832   -4.5842    2.2810 H   0  0  0  0  0  0  0  0  0  0  0  0
   -1.5012   -6.4627    3.7903 H   0  0  0  0  0  0  0  0  0  0  0  0
   -3.0603   -6.6132    2.9903 H   0  0  0  0  0  0  0  0  0  0  0  0
   -1.5655   -6.9364    2.1012 H   0  0  0  0  0  0  0  0  0  0  0  0
   -2.1885   -7.3092    0.0000 H   0  0  0  0  0  0  0  0  0  0  0  0
   -1.3615   -7.4940   -3.6472 H   0  0  0  0  0  0  0  0  0  0  0  0
   -0.4333   -9.5224   -2.9346 H   0  0  0  0  0  0  0  0  0  0  0  0
    0.6478  -11.1083   -1.3814 H   0  0  0  0  0  0  0  0  0  0  0  0
    2.3509  -13.0681    2.2465 H   0  0  0  0  0  0  0  0  0  0  0  0
    1.2509  -12.9888    0.8663 H   0  0  0  0  0  0  0  0  0  0  0  0
   -0.1659  -11.3385    2.0910 H   0  0  0  0  0  0  0  0  0  0  0  0
    0.0039  -12.8413    3.0005 H   0  0  0  0  0  0  0  0  0  0  0  0
    0.9326  -11.4153    3.4687 H   0  0  0  0  0  0  0  0  0  0  0  0
    4.2237  -12.4408    0.7849 H   0  0  0  0  0  0  0  0  0  0  0  0
    3.1226  -12.3584   -0.5938 H   0  0  0  0  0  0  0  0  0  0  0  0
    3.8243   -9.9992   -1.0125 H   0  0  0  0  0  0  0  0  0  0  0  0
    4.9218  -10.0791    0.3656 H   0  0  0  0  0  0  0  0  0  0  0  0
    5.2049  -11.0973   -1.0473 H   0  0  0  0  0  0  0  0  0  0  0  0
    4.5025  -11.3901    3.4694 H   0  0  0  0  0  0  0  0  0  0  0  0
    5.6223  -10.0512    5.2798 H   0  0  0  0  0  0  0  0  0  0  0  0
    6.2161   -8.0108    6.3847 H   0  0  0  0  0  0  0  0  0  0  0  0
    3.1481   -6.6976    6.6363 H   0  0  0  0  0  0  0  0  0  0  0  0
   -0.1188   -4.2880    4.7449 H   0  0  0  0  0  0  0  0  0  0  0  0
    0.8022   -5.6522    4.1129 H   0  0  0  0  0  0  0  0  0  0  0  0
   -0.6766   -6.3272    5.9806 H   0  0  0  0  0  0  0  0  0  0  0  0
    0.1390   -5.2138    7.0694 H   0  0  0  0  0  0  0  0  0  0  0  0
    1.0086   -6.5964    6.3963 H   0  0  0  0  0  0  0  0  0  0  0  0
    2.9785   -2.7712    6.3841 H   0  0  0  0  0  0  0  0  0  0  0  0
    2.0057   -3.9387    7.2723 H   0  0  0  0  0  0  0  0  0  0  0  0
    0.9121   -1.6222    5.6001 H   0  0  0  0  0  0  0  0  0  0  0  0
    1.0130   -1.6708    7.3582 H   0  0  0  0  0  0  0  0  0  0  0  0
   -0.0773   -2.7659    6.5142 H   0  0  0  0  0  0  0  0  0  0  0  0
    0.5022   -2.1936    3.2362 H   0  0  0  0  0  0  0  0  0  0  0  0
    0.7348   -1.1977    0.7761 H   0  0  0  0  0  0  0  0  0  0  0  0
    3.6336   -0.2793    0.4258 H   0  0  0  0  0  0  0  0  0  0  0  0
    0.8141   -1.1340   -1.8677 H   0  0  0  0  0  0  0  0  0  0  0  0
   -0.0517    0.4346   -4.6545 H   0  0  0  0  0  0  0  0  0  0  0  0
   -1.3268    0.7015   -3.4669 H   0  0  0  0  0  0  0  0  0  0  0  0
   -1.7474    3.1432   -5.5641 H   0  0  0  0  0  0  0  0  0  0  0  0
   -0.1123    7.4439   -4.1374 H   0  0  0  0  0  0  0  0  0  0  0  0
   -2.1433   11.2873   -4.5414 H   0  0  0  0  0  0  0  0  0  0  0  0
   -1.4062    9.9301   -3.6785 H   0  0  0  0  0  0  0  0  0  0  0  0
   -4.2566   10.0175   -4.7711 H   0  0  0  0  0  0  0  0  0  0  0  0
   -3.7737   10.0825   -3.0751 H   0  0  0  0  0  0  0  0  0  0  0  0
   -3.5199    8.6085   -4.0115 H   0  0  0  0  0  0  0  0  0  0  0  0
   -0.5708   11.3535   -6.4335 H   0  0  0  0  0  0  0  0  0  0  0  0
   -0.1078    9.8721   -7.2711 H   0  0  0  0  0  0  0  0  0  0  0  0
    1.1180    9.0956   -5.2537 H   0  0  0  0  0  0  0  0  0  0  0  0
    1.7057   10.6588   -5.8103 H   0  0  0  0  0  0  0  0  0  0  0  0
    0.6616   10.5729   -4.3958 H   0  0  0  0  0  0  0  0  0  0  0  0
   -3.2280   11.8070   -7.3056 H   0  0  0  0  0  0  0  0  0  0  0  0
   -5.6883   10.4294  -10.0413 H   0  0  0  0  0  0  0  0  0  0  0  0
   -4.6701   13.0133   -8.7475 H   0  0  0  0  0  0  0  0  0  0  0  0
   -5.9049   12.8436  -10.0869 H   0  0  0  0  0  0  0  0  0  0  0  0
  1  2  2  0  0  0  0
  2  3  1  0  0  0  0
  3  4  2  0  0  0  0
  4  5  1  0  0  0  0
  4  6  1  0  0  0  0
  6  7  2  0  0  0  0
  7  8  1  0  0  0  0
  8  9  1  0  0  0  0
  9 10  1  0  0  0  0
  8 11  1  0  0  0  0
 11 12  1  0  0  0  0
  7 13  1  0  0  0  0
 13 14  2  0  0  0  0
 14 15  1  0  0  0  0
 14 16  1  0  0  0  0
 16 17  2  0  0  0  0
 17 18  1  0  0  0  0
 18 19  2  0  0  0  0
 19 20  1  0  0  0  0
 20 21  2  0  0  0  0
 21 22  1  0  0  0  0
 21 23  1  0  0  0  0
 23 24  2  0  0  0  0
 24 25  1  0  0  0  0
 25 26  1  0  0  0  0
 26 27  1  0  0  0  0
 25 28  1  0  0  0  0
 28 29  1  0  0  0  0
 24 30  1  0  0  0  0
 30 31  2  0  0  0  0
 31 32  1  0  0  0  0
 31 33  1  0  0  0  0
 33 34  2  0  0  0  0
 34 35  1  0  0  0  0
 35 36  2  0  0  0  0
 36 37  1  0  0  0  0
 37 38  2  0  0  0  0
 38 39  1  0  0  0  0
 38 40  1  0  0  0  0
 40 41  2  0  0  0  0
 41 42  1  0  0  0  0
 42 43  1  0  0  0  0
 43 44  1  0  0  0  0
 42 45  1  0  0  0  0
 45 46  1  0  0  0  0
 41 47  1  0  0  0  0
 47 48  2  0  0  0  0
 48 49  1  0  0  0  0
 48 50  1  0  0  0  0
 50 51  2  0  0  0  0
 51 52  1  0  0  0  0
 52 53  2  0  0  0  0
 53 54  1  0  0  0  0
 54 55  2  0  0  0  0
 55 56  1  0  0  0  0
 55 57  1  0  0  0  0
 57 58  2  0  0  0  0
 58 59  1  0  0  0  0
 59 60  1  0  0  0  0
 60 61  1  0  0  0  0
 59 62  1  0  0  0  0
 62 63  1  0  0  0  0
 58 64  1  0  0  0  0
 64 65  2  0  0  0  0
 65 66  1  0  0  0  0
 65 67  1  0  0  0  0
 67 68  2  0  0  0  0
 68 69  1  0  0  0  0
 69 70  2  0  0  0  0
 70 71  1  0  0  0  0
 71 72  2  0  0  0  0
 72 73  1  0  0  0  0
 72 74  1  0  0  0  0
 74 75  2  0  0  0  0
 75 76  1  0  0  0  0
 75 77  1  0  0  0  0
 77 78  2  0  0  0  0
 78 79  1  0  0  0  0
 78 80  1  0  0  0  0
 80 81  2  0  0  0  0
 81 82  1  0  0  0  0
 82 83  2  0  0  0  0
 83 84  1  0  0  0  0
 83 85  1  0  0  0  0
 85 86  2  0  0  0  0
 86 87  1  0  0  0  0
 87 88  1  0  0  0  0
 88 89  1  0  0  0  0
 87 90  1  0  0  0  0
 90 91  1  0  0  0  0
 86 92  1  0  0  0  0
 92 93  2  0  0  0  0
 93 94  1  0  0  0  0
 93 95  1  0  0  0  0
 95 96  2  0  0  0  0
  5  1  1  0  0  0  0
 15  6  1  0  0  0  0
 22 18  1  0  0  0  0
 32 23  1  0  0  0  0
 39 35  1  0  0  0  0
 49 40  1  0  0  0  0
 56 52  1  0  0  0  0
 66 57  1  0  0  0  0
 73 69  1  0  0  0  0
 79 74  1  0  0  0  0
 84 80  1  0  0  0  0
 94 85  1  0  0  0  0
  8  3  1  0  0  0  0
 25 20  1  0  0  0  0
 42 37  1  0  0  0  0
 59 54  1  0  0  0  0
 76 71  1  0  0  0  0
 87 82  1  0  0  0  0
  1 97  1  0  0  0  0
  2 98  1  0  0  0  0
  9 99  1  0  0  0  0
  9100  1  0  0  0  0
 10101  1  0  0  0  0
 10102  1  0  0  0  0
 10103  1  0  0  0  0
 11104  1  0  0  0  0
 11105  1  0  0  0  0
 12106  1  0  0  0  0
 12107  1  0  0  0  0
 12108  1  0  0  0  0
 13109  1  0  0  0  0
 16110  1  0  0  0  0
 17111  1  0  0  0  0
 19112  1  0  0  0  0
 26113  1  0  0  0  0
 26114  1  0  0  0  0
 27115  1  0  0  0  0
 27116  1  0  0  0  0
 27117  1  0  0  0  0
 28118  1  0  0  0  0
 28119  1  0  0  0  0
 29120  1  0  0  0  0
 29121  1  0  0  0  0
 29122  1  0  0  0  0
 30123  1  0  0  0  0
 33124  1  0  0  0  0
 34125  1  0  0  0  0
 36126  1  0  0  0  0
 43127  1  0  0  0  0
 43128  1  0  0  0  0
 44129  1  0  0  0  0
 44130  1  0  0  0  0
 44131  1  0  0  0  0
 45132  1  0  0  0  0
 45133  1  0  0  0  0
 46134  1  0  0  0  0
 46135  1  0  0  0  0
 46136  1  0  0  0  0
 47137  1  0  0  0  0
 50138  1  0  0  0  0
 51139  1  0  0  0  0
 53140  1  0  0  0  0
 60141  1  0  0  0  0
 60142  1  0  0  0  0
 61143  1  0  0  0  0
 61144  1  0  0  0  0
 61145  1  0  0  0  0
 62146  1  0  0  0  0
 62147  1  0  0  0  0
 63148  1  0  0  0  0
 63149  1  0  0  0  0
 63150  1  0  0  0  0
 64151  1  0  0  0  0
 67152  1  0  0  0  0
 68153  1  0  0  0  0
 70154  1  0  0  0  0
 76155  1  0  0  0  0
 76156  1  0  0  0  0
 77157  1  0  0  0  0
 81158  1  0  0  0  0
 88159  1  0  0  0  0
 88160  1  0  0  0  0
 89161  1  0  0  0  0
 89162  1  0  0  0  0
 89163  1  0  0  0  0
 90164  1  0  0  0  0
 90165  1  0  0  0  0
 91166  1  0  0  0  0
 91167  1  0  0  0  0
 91168  1  0  0  0  0
 92169  1  0  0  0  0
 95170  1  0  0  0  0
 96171  1  0  0  0  0
 96172  1  0  0  0  0
M  END
