
  xtb     03012221483D
 energy: -337.910736557655 gnorm: 0.000223632041 xtb: 6.4.1 (unknown)
173196  0     0  0            999 V2000
   15.5679  -10.4258   10.4371 C   0  0  0  0  0  0  0  0  0  0  0  0
   15.2879  -11.1898    9.3425 C   0  0  0  0  0  0  0  0  0  0  0  0
   14.1744  -10.7015    8.6435 C   0  0  0  0  0  0  0  0  0  0  0  0
   13.6328   -9.5669    9.2324 C   0  0  0  0  0  0  0  0  0  0  0  0
   14.4859   -9.0942   10.6464 S   0  0  0  0  0  0  0  0  0  0  0  0
   12.5195   -9.1353    8.4657 C   0  0  0  0  0  0  0  0  0  0  0  0
   12.3534   -9.9992    7.3868 C   0  0  0  0  0  0  0  0  0  0  0  0
   13.3995  -11.0740    7.4146 C   0  0  0  0  0  0  0  0  0  0  0  0
   11.2819   -9.6450    6.5711 C   0  0  0  0  0  0  0  0  0  0  0  0
   10.6322   -8.5139    7.0231 C   0  0  0  0  0  0  0  0  0  0  0  0
   11.3558   -7.8756    8.4882 S   0  0  0  0  0  0  0  0  0  0  0  0
    9.5138   -7.8632    6.4359 C   0  0  0  0  0  0  0  0  0  0  0  0
    8.8865   -6.7246    6.8530 C   0  0  0  0  0  0  0  0  0  0  0  0
    7.8036   -6.3371    6.0285 C   0  0  0  0  0  0  0  0  0  0  0  0
    6.9455   -5.2337    6.1813 C   0  0  0  0  0  0  0  0  0  0  0  0
    7.0905   -4.3147    7.2984 C   0  0  0  0  0  0  0  0  0  0  0  0
    7.1193   -4.8898    8.9405 S   0  0  0  0  0  0  0  0  0  0  0  0
    7.2804   -3.2918    9.5829 C   0  0  0  0  0  0  0  0  0  0  0  0
    7.4338   -3.0577   11.0451 C   0  0  0  0  0  0  0  0  0  0  0  0
    8.9061   -3.1411   11.4562 C   0  0  0  0  0  0  0  0  0  0  0  0
    7.3180   -2.3785    8.5724 C   0  0  0  0  0  0  0  0  0  0  0  0
    7.4832   -0.6887    8.8186 Cl  0  0  0  0  0  0  0  0  0  0  0  0
    7.2040   -2.9521    7.2772 C   0  0  0  0  0  0  0  0  0  0  0  0
    7.2950   -2.0104    5.8484 Cl  0  0  0  0  0  0  0  0  0  0  0  0
    5.9464   -5.0733    5.2289 C   0  0  0  0  0  0  0  0  0  0  0  0
    5.7799   -5.9549    4.1322 C   0  0  0  0  0  0  0  0  0  0  0  0
    6.6525   -7.0458    3.9662 C   0  0  0  0  0  0  0  0  0  0  0  0
    6.5099   -7.9605    2.8452 C   0  0  0  0  0  0  0  0  0  0  0  0
    4.9954   -8.7503    2.5144 S   0  0  0  0  0  0  0  0  0  0  0  0
    5.6418   -9.5958    1.1495 C   0  0  0  0  0  0  0  0  0  0  0  0
    4.7787  -10.4677    0.3063 C   0  0  0  0  0  0  0  0  0  0  0  0
    3.9631   -9.6287   -0.6805 C   0  0  0  0  0  0  0  0  0  0  0  0
    6.9519   -9.2690    0.9695 C   0  0  0  0  0  0  0  0  0  0  0  0
    7.4496   -8.3479    1.9310 C   0  0  0  0  0  0  0  0  0  0  0  0
    9.0468   -7.7314    1.8653 Cl  0  0  0  0  0  0  0  0  0  0  0  0
    7.9310   -9.8982   -0.2913 Cl  0  0  0  0  0  0  0  0  0  0  0  0
    7.6392   -7.2140    4.9262 C   0  0  0  0  0  0  0  0  0  0  0  0
    8.7915   -8.5165    4.9781 S   0  0  0  0  0  0  0  0  0  0  0  0
    4.7004   -5.5707    3.3031 C   0  0  0  0  0  0  0  0  0  0  0  0
    4.0383   -4.4629    3.7493 C   0  0  0  0  0  0  0  0  0  0  0  0
    4.7305   -3.8298    5.2248 S   0  0  0  0  0  0  0  0  0  0  0  0
    2.9363   -3.8115    3.1166 C   0  0  0  0  0  0  0  0  0  0  0  0
    2.2171   -4.2624    2.0465 C   0  0  0  0  0  0  0  0  0  0  0  0
    1.2338   -3.3487    1.5996 C   0  0  0  0  0  0  0  0  0  0  0  0
    0.3216   -3.5067    0.5399 C   0  0  0  0  0  0  0  0  0  0  0  0
    0.2773   -4.7182   -0.2621 C   0  0  0  0  0  0  0  0  0  0  0  0
    1.6939   -5.3548   -1.0465 S   0  0  0  0  0  0  0  0  0  0  0  0
    0.8089   -6.6533   -1.7709 C   0  0  0  0  0  0  0  0  0  0  0  0
    1.4612   -7.6181   -2.6984 C   0  0  0  0  0  0  0  0  0  0  0  0
    1.3308   -7.1509   -4.1503 C   0  0  0  0  0  0  0  0  0  0  0  0
   -0.5049   -6.5848   -1.4156 C   0  0  0  0  0  0  0  0  0  0  0  0
   -1.6919   -7.7096   -1.9336 Cl  0  0  0  0  0  0  0  0  0  0  0  0
   -0.8104   -5.4922   -0.5607 C   0  0  0  0  0  0  0  0  0  0  0  0
   -2.3785   -5.2427    0.0833 Cl  0  0  0  0  0  0  0  0  0  0  0  0
   -0.5297   -2.4405    0.2770 C   0  0  0  0  0  0  0  0  0  0  0  0
   -0.5258   -1.2549    1.0508 C   0  0  0  0  0  0  0  0  0  0  0  0
    0.3463   -1.1168    2.1447 C   0  0  0  0  0  0  0  0  0  0  0  0
    0.3110    0.0911    2.9542 C   0  0  0  0  0  0  0  0  0  0  0  0
   -1.1855    0.6248    3.6641 S   0  0  0  0  0  0  0  0  0  0  0  0
   -0.4539    2.0401    4.3395 C   0  0  0  0  0  0  0  0  0  0  0  0
   -1.2404    3.0188    5.1426 C   0  0  0  0  0  0  0  0  0  0  0  0
   -2.6861    3.1292    4.6702 C   0  0  0  0  0  0  0  0  0  0  0  0
    0.8737    2.0754    4.0315 C   0  0  0  0  0  0  0  0  0  0  0  0
    1.3131    0.9712    3.2510 C   0  0  0  0  0  0  0  0  0  0  0  0
    2.9227    0.8302    2.6801 Cl  0  0  0  0  0  0  0  0  0  0  0  0
    1.9308    3.3386    4.5144 Cl  0  0  0  0  0  0  0  0  0  0  0  0
    1.2209   -2.1660    2.3841 C   0  0  0  0  0  0  0  0  0  0  0  0
    2.4059   -2.2345    3.6538 S   0  0  0  0  0  0  0  0  0  0  0  0
   -1.4040   -0.2799    0.5277 C   0  0  0  0  0  0  0  0  0  0  0  0
   -2.0570   -0.6798   -0.6024 C   0  0  0  0  0  0  0  0  0  0  0  0
   -1.6422   -2.3155   -1.0579 S   0  0  0  0  0  0  0  0  0  0  0  0
   -2.9439    0.1369   -1.3676 C   0  0  0  0  0  0  0  0  0  0  0  0
   -3.0597    1.4914   -1.2419 C   0  0  0  0  0  0  0  0  0  0  0  0
   -4.0087    2.0654   -2.1156 C   0  0  0  0  0  0  0  0  0  0  0  0
   -4.3121    3.4305   -2.2749 C   0  0  0  0  0  0  0  0  0  0  0  0
   -3.6541    4.4314   -1.4509 C   0  0  0  0  0  0  0  0  0  0  0  0
   -3.6168    4.2856    0.2843 S   0  0  0  0  0  0  0  0  0  0  0  0
   -2.6672    5.7202    0.4697 C   0  0  0  0  0  0  0  0  0  0  0  0
   -2.1682    6.1511    1.8050 C   0  0  0  0  0  0  0  0  0  0  0  0
   -0.8155    5.5013    2.1110 C   0  0  0  0  0  0  0  0  0  0  0  0
   -2.4074    6.2718   -0.7487 C   0  0  0  0  0  0  0  0  0  0  0  0
   -1.4848    7.7010   -0.9713 Cl  0  0  0  0  0  0  0  0  0  0  0  0
   -2.9665    5.5487   -1.8376 C   0  0  0  0  0  0  0  0  0  0  0  0
   -2.6937    6.0037   -3.4664 Cl  0  0  0  0  0  0  0  0  0  0  0  0
   -5.2359    3.7547   -3.2574 C   0  0  0  0  0  0  0  0  0  0  0  0
   -5.8616    2.7812   -4.0795 C   0  0  0  0  0  0  0  0  0  0  0  0
   -5.5588    1.4171   -3.9137 C   0  0  0  0  0  0  0  0  0  0  0  0
   -6.1736    0.3935   -4.7424 C   0  0  0  0  0  0  0  0  0  0  0  0
   -6.1033    0.4710   -6.4794 S   0  0  0  0  0  0  0  0  0  0  0  0
   -6.9527   -1.0262   -6.6615 C   0  0  0  0  0  0  0  0  0  0  0  0
   -7.2039   -1.6150   -8.0057 C   0  0  0  0  0  0  0  0  0  0  0  0
   -6.0110   -2.4571   -8.4647 C   0  0  0  0  0  0  0  0  0  0  0  0
   -7.2608   -1.5452   -5.4400 C   0  0  0  0  0  0  0  0  0  0  0  0
   -6.8243   -0.7435   -4.3508 C   0  0  0  0  0  0  0  0  0  0  0  0
   -7.1710   -1.1442   -2.7211 Cl  0  0  0  0  0  0  0  0  0  0  0  0
   -8.1069   -3.0206   -5.2148 Cl  0  0  0  0  0  0  0  0  0  0  0  0
   -4.6295    1.0906   -2.9336 C   0  0  0  0  0  0  0  0  0  0  0  0
   -4.0121   -0.5028   -2.5935 S   0  0  0  0  0  0  0  0  0  0  0  0
   -6.7767    3.3654   -4.9859 C   0  0  0  0  0  0  0  0  0  0  0  0
   -6.8592    4.7272   -4.8828 C   0  0  0  0  0  0  0  0  0  0  0  0
   -5.8117    5.3524   -3.6263 S   0  0  0  0  0  0  0  0  0  0  0  0
   -7.6367    5.6191   -5.6714 C   0  0  0  0  0  0  0  0  0  0  0  0
   -8.5162    5.3016   -6.6924 C   0  0  0  0  0  0  0  0  0  0  0  0
   -9.0733    6.4324   -7.2778 C   0  0  0  0  0  0  0  0  0  0  0  0
   -8.6179    7.6204   -6.7043 C   0  0  0  0  0  0  0  0  0  0  0  0
   -7.5031    7.3500   -5.4310 S   0  0  0  0  0  0  0  0  0  0  0  0
   -9.2153    8.7124   -7.3737 C   0  0  0  0  0  0  0  0  0  0  0  0
  -10.0551    8.2296   -8.3754 C   0  0  0  0  0  0  0  0  0  0  0  0
  -10.0371    6.7293   -8.3892 C   0  0  0  0  0  0  0  0  0  0  0  0
  -10.6734    9.2438   -9.0999 C   0  0  0  0  0  0  0  0  0  0  0  0
  -10.3083   10.5023   -8.6582 C   0  0  0  0  0  0  0  0  0  0  0  0
   -9.1814   10.4286   -7.3146 S   0  0  0  0  0  0  0  0  0  0  0  0
  -10.7222   11.7602   -9.1660 C   0  0  0  0  0  0  0  0  0  0  0  0
  -10.3402   13.0156   -8.7330 C   0  0  0  0  0  0  0  0  0  0  0  0
  -10.9339   14.0340   -9.4739 C   0  0  0  0  0  0  0  0  0  0  0  0
  -11.7733   13.5572  -10.4761 C   0  0  0  0  0  0  0  0  0  0  0  0
  -11.8418   11.8427  -10.5166 S   0  0  0  0  0  0  0  0  0  0  0  0
  -12.3257   14.6597  -11.1773 C   0  0  0  0  0  0  0  0  0  0  0  0
  -11.8394   15.8365  -10.6240 C   0  0  0  0  0  0  0  0  0  0  0  0
  -10.9089   15.5342   -9.4870 C   0  0  0  0  0  0  0  0  0  0  0  0
  -12.3385   16.9788  -11.2666 C   0  0  0  0  0  0  0  0  0  0  0  0
  -13.1854   16.6529  -12.2847 C   0  0  0  0  0  0  0  0  0  0  0  0
  -13.3978   14.9489  -12.4882 S   0  0  0  0  0  0  0  0  0  0  0  0
   16.3572  -10.5613   11.1494 H   0  0  0  0  0  0  0  0  0  0  0  0
   15.8595  -12.0560    9.0619 H   0  0  0  0  0  0  0  0  0  0  0  0
   12.9580  -12.0695    7.4959 H   0  0  0  0  0  0  0  0  0  0  0  0
   14.0223  -11.0586    6.5178 H   0  0  0  0  0  0  0  0  0  0  0  0
   10.9741  -10.1687    5.6834 H   0  0  0  0  0  0  0  0  0  0  0  0
    9.2013   -6.1810    7.7250 H   0  0  0  0  0  0  0  0  0  0  0  0
    6.8592   -3.8048   11.5950 H   0  0  0  0  0  0  0  0  0  0  0  0
    7.0434   -2.0669   11.2850 H   0  0  0  0  0  0  0  0  0  0  0  0
    9.3077   -4.1252   11.2262 H   0  0  0  0  0  0  0  0  0  0  0  0
    9.4883   -2.3942   10.9225 H   0  0  0  0  0  0  0  0  0  0  0  0
    9.0065   -2.9638   12.5235 H   0  0  0  0  0  0  0  0  0  0  0  0
    5.4145  -11.1650   -0.2416 H   0  0  0  0  0  0  0  0  0  0  0  0
    4.1009  -11.0373    0.9444 H   0  0  0  0  0  0  0  0  0  0  0  0
    4.6282   -9.0631   -1.3286 H   0  0  0  0  0  0  0  0  0  0  0  0
    3.3407  -10.2738   -1.2946 H   0  0  0  0  0  0  0  0  0  0  0  0
    3.3227   -8.9330   -0.1428 H   0  0  0  0  0  0  0  0  0  0  0  0
    4.4365   -6.0842    2.3980 H   0  0  0  0  0  0  0  0  0  0  0  0
    2.3844   -5.2203    1.5915 H   0  0  0  0  0  0  0  0  0  0  0  0
    2.5161   -7.7135   -2.4395 H   0  0  0  0  0  0  0  0  0  0  0  0
    0.9813   -8.5924   -2.5862 H   0  0  0  0  0  0  0  0  0  0  0  0
    0.2831   -7.0637   -4.4255 H   0  0  0  0  0  0  0  0  0  0  0  0
    1.8058   -6.1813   -4.2790 H   0  0  0  0  0  0  0  0  0  0  0  0
    1.8083   -7.8650   -4.8156 H   0  0  0  0  0  0  0  0  0  0  0  0
   -0.7423    3.9886    5.0793 H   0  0  0  0  0  0  0  0  0  0  0  0
   -1.2270    2.7111    6.1932 H   0  0  0  0  0  0  0  0  0  0  0  0
   -3.1934    2.1736    4.7799 H   0  0  0  0  0  0  0  0  0  0  0  0
   -2.7285    3.4191    3.6232 H   0  0  0  0  0  0  0  0  0  0  0  0
   -3.2162    3.8724    5.2597 H   0  0  0  0  0  0  0  0  0  0  0  0
   -1.5397    0.6890    0.9685 H   0  0  0  0  0  0  0  0  0  0  0  0
   -2.4583    2.0654   -0.5639 H   0  0  0  0  0  0  0  0  0  0  0  0
   -2.0575    7.2369    1.8062 H   0  0  0  0  0  0  0  0  0  0  0  0
   -2.8921    5.8715    2.5721 H   0  0  0  0  0  0  0  0  0  0  0  0
   -0.0815    5.7919    1.3641 H   0  0  0  0  0  0  0  0  0  0  0  0
   -0.4599    5.8186    3.0873 H   0  0  0  0  0  0  0  0  0  0  0  0
   -0.9010    4.4170    2.1068 H   0  0  0  0  0  0  0  0  0  0  0  0
   -8.0949   -2.2433   -7.9515 H   0  0  0  0  0  0  0  0  0  0  0  0
   -7.3816   -0.8141   -8.7255 H   0  0  0  0  0  0  0  0  0  0  0  0
   -5.8290   -3.2659   -7.7617 H   0  0  0  0  0  0  0  0  0  0  0  0
   -5.1163   -1.8420   -8.5260 H   0  0  0  0  0  0  0  0  0  0  0  0
   -6.2099   -2.8838   -9.4440 H   0  0  0  0  0  0  0  0  0  0  0  0
   -7.3497    2.7965   -5.6934 H   0  0  0  0  0  0  0  0  0  0  0  0
   -8.7276    4.2900   -6.9863 H   0  0  0  0  0  0  0  0  0  0  0  0
  -11.0260    6.3090   -8.1946 H   0  0  0  0  0  0  0  0  0  0  0  0
   -9.6902    6.3354   -9.3466 H   0  0  0  0  0  0  0  0  0  0  0  0
  -11.3573    9.0974   -9.9169 H   0  0  0  0  0  0  0  0  0  0  0  0
   -9.6574   13.1587   -7.9144 H   0  0  0  0  0  0  0  0  0  0  0  0
   -9.9040   15.9221   -9.6667 H   0  0  0  0  0  0  0  0  0  0  0  0
  -11.2645   15.9552   -8.5442 H   0  0  0  0  0  0  0  0  0  0  0  0
  -12.0926   17.9912  -11.0009 H   0  0  0  0  0  0  0  0  0  0  0  0
  -13.7098   17.3165  -12.9432 H   0  0  0  0  0  0  0  0  0  0  0  0
  1  2  2  0  0  0  0
  2  3  1  0  0  0  0
  3  4  2  0  0  0  0
  4  5  1  0  0  0  0
  4  6  1  0  0  0  0
  6  7  2  0  0  0  0
  7  8  1  0  0  0  0
  7  9  1  0  0  0  0
  9 10  2  0  0  0  0
 10 11  1  0  0  0  0
 10 12  1  0  0  0  0
 12 13  2  0  0  0  0
 13 14  1  0  0  0  0
 14 15  2  0  0  0  0
 15 16  1  0  0  0  0
 16 17  1  0  0  0  0
 17 18  1  0  0  0  0
 18 19  1  0  0  0  0
 19 20  1  0  0  0  0
 18 21  2  0  0  0  0
 21 22  1  0  0  0  0
 21 23  1  0  0  0  0
 23 24  1  0  0  0  0
 15 25  1  0  0  0  0
 25 26  2  0  0  0  0
 26 27  1  0  0  0  0
 27 28  1  0  0  0  0
 28 29  1  0  0  0  0
 29 30  1  0  0  0  0
 30 31  1  0  0  0  0
 31 32  1  0  0  0  0
 30 33  2  0  0  0  0
 33 34  1  0  0  0  0
 34 35  1  0  0  0  0
 33 36  1  0  0  0  0
 27 37  2  0  0  0  0
 37 38  1  0  0  0  0
 26 39  1  0  0  0  0
 39 40  2  0  0  0  0
 40 41  1  0  0  0  0
 40 42  1  0  0  0  0
 42 43  2  0  0  0  0
 43 44  1  0  0  0  0
 44 45  2  0  0  0  0
 45 46  1  0  0  0  0
 46 47  1  0  0  0  0
 47 48  1  0  0  0  0
 48 49  1  0  0  0  0
 49 50  1  0  0  0  0
 48 51  2  0  0  0  0
 51 52  1  0  0  0  0
 51 53  1  0  0  0  0
 53 54  1  0  0  0  0
 45 55  1  0  0  0  0
 55 56  2  0  0  0  0
 56 57  1  0  0  0  0
 57 58  1  0  0  0  0
 58 59  1  0  0  0  0
 59 60  1  0  0  0  0
 60 61  1  0  0  0  0
 61 62  1  0  0  0  0
 60 63  2  0  0  0  0
 63 64  1  0  0  0  0
 64 65  1  0  0  0  0
 63 66  1  0  0  0  0
 57 67  2  0  0  0  0
 67 68  1  0  0  0  0
 56 69  1  0  0  0  0
 69 70  2  0  0  0  0
 70 71  1  0  0  0  0
 70 72  1  0  0  0  0
 72 73  2  0  0  0  0
 73 74  1  0  0  0  0
 74 75  2  0  0  0  0
 75 76  1  0  0  0  0
 76 77  1  0  0  0  0
 77 78  1  0  0  0  0
 78 79  1  0  0  0  0
 79 80  1  0  0  0  0
 78 81  2  0  0  0  0
 81 82  1  0  0  0  0
 81 83  1  0  0  0  0
 83 84  1  0  0  0  0
 75 85  1  0  0  0  0
 85 86  2  0  0  0  0
 86 87  1  0  0  0  0
 87 88  1  0  0  0  0
 88 89  1  0  0  0  0
 89 90  1  0  0  0  0
 90 91  1  0  0  0  0
 91 92  1  0  0  0  0
 90 93  2  0  0  0  0
 93 94  1  0  0  0  0
 94 95  1  0  0  0  0
 93 96  1  0  0  0  0
 87 97  2  0  0  0  0
 97 98  1  0  0  0  0
 86 99  1  0  0  0  0
 99100  2  0  0  0  0
100101  1  0  0  0  0
100102  1  0  0  0  0
102103  2  0  0  0  0
103104  1  0  0  0  0
104105  2  0  0  0  0
105106  1  0  0  0  0
105107  1  0  0  0  0
107108  2  0  0  0  0
108109  1  0  0  0  0
108110  1  0  0  0  0
110111  2  0  0  0  0
111112  1  0  0  0  0
111113  1  0  0  0  0
113114  2  0  0  0  0
114115  1  0  0  0  0
115116  2  0  0  0  0
116117  1  0  0  0  0
116118  1  0  0  0  0
118119  2  0  0  0  0
119120  1  0  0  0  0
119121  1  0  0  0  0
121122  2  0  0  0  0
122123  1  0  0  0  0
  5  1  1  0  0  0  0
 11  6  1  0  0  0  0
 38 12  1  0  0  0  0
 68 42  1  0  0  0  0
 98 72  1  0  0  0  0
106102  1  0  0  0  0
112107  1  0  0  0  0
117113  1  0  0  0  0
123118  1  0  0  0  0
  8  3  1  0  0  0  0
 37 14  1  0  0  0  0
 67 44  1  0  0  0  0
 97 74  1  0  0  0  0
109104  1  0  0  0  0
120115  1  0  0  0  0
 23 16  2  0  0  0  0
 41 25  1  0  0  0  0
 53 46  2  0  0  0  0
 71 55  1  0  0  0  0
 83 76  2  0  0  0  0
101 85  1  0  0  0  0
 34 28  2  0  0  0  0
 64 58  2  0  0  0  0
 94 88  2  0  0  0  0
  1124  1  0  0  0  0
  2125  1  0  0  0  0
  8126  1  0  0  0  0
  8127  1  0  0  0  0
  9128  1  0  0  0  0
 13129  1  0  0  0  0
 19130  1  0  0  0  0
 19131  1  0  0  0  0
 20132  1  0  0  0  0
 20133  1  0  0  0  0
 20134  1  0  0  0  0
 31135  1  0  0  0  0
 31136  1  0  0  0  0
 32137  1  0  0  0  0
 32138  1  0  0  0  0
 32139  1  0  0  0  0
 39140  1  0  0  0  0
 43141  1  0  0  0  0
 49142  1  0  0  0  0
 49143  1  0  0  0  0
 50144  1  0  0  0  0
 50145  1  0  0  0  0
 50146  1  0  0  0  0
 61147  1  0  0  0  0
 61148  1  0  0  0  0
 62149  1  0  0  0  0
 62150  1  0  0  0  0
 62151  1  0  0  0  0
 69152  1  0  0  0  0
 73153  1  0  0  0  0
 79154  1  0  0  0  0
 79155  1  0  0  0  0
 80156  1  0  0  0  0
 80157  1  0  0  0  0
 80158  1  0  0  0  0
 91159  1  0  0  0  0
 91160  1  0  0  0  0
 92161  1  0  0  0  0
 92162  1  0  0  0  0
 92163  1  0  0  0  0
 99164  1  0  0  0  0
103165  1  0  0  0  0
109166  1  0  0  0  0
109167  1  0  0  0  0
110168  1  0  0  0  0
114169  1  0  0  0  0
120170  1  0  0  0  0
120171  1  0  0  0  0
121172  1  0  0  0  0
122173  1  0  0  0  0
M  END
