146

C         -2.57790        5.53270       19.60320
C         -1.55570        6.02100       18.84390
C         -1.24630        5.16140       17.77970
C         -2.05080        4.03010       17.75880
S         -3.19030        4.01530       19.04430
C         -1.68130        3.22150       16.65350
C         -0.63870        3.83970       15.96990
C         -0.27290        5.13210       16.63870
C         -0.21870        3.11970       14.85470
C         -0.93800        1.95250       14.68200
S         -2.15470        1.73870       15.93030
C         -0.81250        1.00100       13.63790
C         -1.55590       -0.14780       13.43820
C         -1.19590       -0.81420       12.27080
C         -0.16920       -0.17660       11.57720
S          0.36950        1.25170       12.36470
C          0.08600       -0.88130       10.37950
C         -0.77840       -1.97290       10.30040
C         -1.64970       -2.03190       11.52070
C         -0.64460       -2.68160        9.11080
C          0.31770       -2.13780        8.28160
S          1.09020       -0.73270        8.99670
C          0.64640       -2.51750        6.95360
C          1.57370       -1.94500        6.13020
C          1.55980       -2.45980        4.81330
C          2.30200       -2.01350        3.70510
C          3.34600       -1.01210        3.84850
S          4.63840       -1.25510        4.98910
C          5.43390        0.20980        4.52410
C          6.68230        0.65620        5.20130
C          6.36810        1.33220        6.53790
C          4.72020        0.84470        3.55290
Cl         5.18720        2.33300        2.83990
C          3.53920        0.15560        3.16400
Cl         2.44540        0.80650        2.01620
C          1.99470       -2.57840        2.47510
C          1.01250       -3.58730        2.30940
C          0.28670       -4.04770        3.42230
C         -0.74940       -5.05760        3.27740
S         -0.72690       -6.50850        4.23460
C         -2.16060       -7.12040        3.48290
C         -2.76120       -8.41410        3.90920
C         -3.62450       -8.22740        5.15920
C         -2.62490       -6.23350        2.55840
C         -1.82770       -5.06350        2.43680
Cl        -2.25180       -3.76810        1.39070
Cl        -4.02980       -6.48900        1.60710
C          0.57960       -3.46890        4.64830
S         -0.26590       -3.77790        6.14000
C          0.87610       -3.97390        0.95440
C          1.67260       -3.26360        0.10560
S          2.72610       -2.15320        0.95700
C          1.58920       -3.18610       -1.31360
C          2.19900       -2.25780       -2.10450
C          1.71150       -2.23650       -3.43150
C          2.05290       -1.34260       -4.46280
C          3.01960       -0.28060       -4.24150
S          2.87050        0.78500       -2.87330
C          4.28510        1.68070       -3.31150
C          4.76800        2.80330       -2.46060
C          5.02850        2.34610       -1.02530
C          4.82350        1.17700       -4.45730
Cl         6.23790        1.79510       -5.20810
C          4.10640        0.07120       -4.99160
Cl         4.62730       -0.77330       -6.38840
C          1.36230       -1.47350       -5.65900
C          0.37260       -2.46620       -5.87730
C          0.07000       -3.39160       -4.86050
C         -0.92190       -4.43400       -5.05380
S         -2.20080       -4.68690       -3.90260
C         -2.85580       -6.01360       -4.80170
C         -4.04170       -6.76100       -4.29970
C         -3.72980       -7.47240       -2.98230
C         -2.11420       -6.23640       -5.92300
C         -1.02090       -5.34080       -6.07250
Cl         0.10000       -5.46230       -7.36770
Cl        -2.44470       -7.47460       -7.06590
C          0.72660       -3.22980       -3.64770
S          0.43410       -4.15830       -2.20210
C         -0.28700       -2.29060       -7.11590
C          0.16220       -1.21290       -7.82860
S          1.46770       -0.38190       -7.00770
C         -0.34550       -0.70570       -9.05630
C         -1.30970       -1.26940       -9.87380
C         -1.62920       -0.45130      -10.95140
C         -0.90780        0.74310      -10.95790
S          0.18560        0.85800       -9.64320
C         -1.33180        1.53030      -12.05240
C         -2.32270        0.84380      -12.75140
C         -2.57990       -0.48900      -12.11210
C         -2.82720        1.56790      -13.82720
C         -2.22940        2.80850      -13.95190
S         -1.00920        3.07970      -12.71970
C         -2.51140        3.82120      -14.90390
C         -1.93730        5.07410      -15.00430
C         -2.47630        5.82060      -16.04890
C         -3.46450        5.13700      -16.75050
S         -3.74110        3.56070      -16.13030
C         -3.95710        5.97330      -17.78490
C         -3.28540        7.18750      -17.74280
C         -2.28080        7.19070      -16.62880
C         -3.71950        8.07630      -18.73720
C         -4.70160        7.52740      -19.50790
S         -5.12400        5.91580      -19.04450
H         -3.02160        5.97480       20.47300
H         -1.05840        6.95230       19.04730
H         -0.40070        5.98590       15.97000
H          0.76280        5.13240       16.98460
H          0.56740        3.41580       14.18300
H         -2.32820       -0.45800       14.11920
H         -2.71070       -1.98390       11.26820
H         -1.48500       -2.94680       12.09400
H         -1.22050       -3.54590        8.83100
H          2.21970       -1.14880        6.45340
H          7.32910       -0.20570        5.37490
H          7.20220        1.35830        4.54720
H          5.85230        0.63940        7.19870
H          5.73370        2.20090        6.38110
H          7.28780        1.65430        7.01850
H         -3.37430       -8.80180        3.09370
H         -1.96600       -9.13070        4.12190
H         -4.05090       -9.17910        5.46450
H         -4.43430       -7.53100        4.95690
H         -3.02360       -7.83420        5.97570
H          0.18820       -4.72190        0.60590
H          2.94460       -1.58370       -1.72470
H          4.01910        3.60010       -2.45220
H          5.68400        3.20010       -2.90150
H          5.77830        1.55880       -1.00670
H          5.38560        3.17940       -0.42620
H          4.11420        1.96320       -0.57780
H         -4.87010       -6.06550       -4.14390
H         -4.33910       -7.48850       -5.05670
H         -3.44160       -6.74920       -2.22300
H         -4.60470       -8.01470       -2.63380
H         -2.91320       -8.17750       -3.11690
H         -1.10070       -2.91000       -7.44290
H         -1.74940       -2.23030       -9.67950
H         -3.61720       -0.59210      -11.78780
H         -2.35970       -1.31480      -12.79190
H         -3.59890        1.23180      -14.49660
H         -1.16550        5.40860      -14.33410
H         -2.48500        7.97450      -15.89630
H         -1.26280        7.33560      -16.99620
H         -3.33530        9.06950      -18.88510
H         -5.21620        7.97350      -20.33550
