
  xtb     03012210103D
 energy: -337.903131674581 gnorm: 0.000209631910 xtb: 6.4.1 (unknown)
173196  0     0  0            999 V2000
   13.6190   -4.3761   17.9243 C   0  0  0  0  0  0  0  0  0  0  0  0
   12.4434   -4.4976   18.6051 C   0  0  0  0  0  0  0  0  0  0  0  0
   11.4027   -4.9232   17.7667 C   0  0  0  0  0  0  0  0  0  0  0  0
   11.8199   -5.1157   16.4568 C   0  0  0  0  0  0  0  0  0  0  0  0
   13.4907   -4.7759   16.2470 S   0  0  0  0  0  0  0  0  0  0  0  0
   10.7135   -5.5396   15.6766 C   0  0  0  0  0  0  0  0  0  0  0  0
    9.5893   -5.6181   16.4934 C   0  0  0  0  0  0  0  0  0  0  0  0
    9.9402   -5.2296   17.9002 C   0  0  0  0  0  0  0  0  0  0  0  0
    8.4470   -6.0223   15.8082 C   0  0  0  0  0  0  0  0  0  0  0  0
    8.6937   -6.2520   14.4659 C   0  0  0  0  0  0  0  0  0  0  0  0
   10.3737   -5.9654   14.0506 S   0  0  0  0  0  0  0  0  0  0  0  0
    7.7631   -6.6460   13.4676 C   0  0  0  0  0  0  0  0  0  0  0  0
    6.4115   -6.9026   13.6272 C   0  0  0  0  0  0  0  0  0  0  0  0
    5.7894   -7.2226   12.4252 C   0  0  0  0  0  0  0  0  0  0  0  0
    6.6652   -7.2166   11.3407 C   0  0  0  0  0  0  0  0  0  0  0  0
    8.2714   -6.8202   11.7990 S   0  0  0  0  0  0  0  0  0  0  0  0
    5.9386   -7.4963   10.1607 C   0  0  0  0  0  0  0  0  0  0  0  0
    4.5952   -7.6810   10.4868 C   0  0  0  0  0  0  0  0  0  0  0  0
    4.3971   -7.5445   11.9676 C   0  0  0  0  0  0  0  0  0  0  0  0
    3.7932   -7.8956    9.3713 C   0  0  0  0  0  0  0  0  0  0  0  0
    4.5169   -7.8785    8.1941 C   0  0  0  0  0  0  0  0  0  0  0  0
    6.2288   -7.6093    8.4731 S   0  0  0  0  0  0  0  0  0  0  0  0
    4.0172   -7.9435    6.8668 C   0  0  0  0  0  0  0  0  0  0  0  0
    4.7261   -7.9081    5.6999 C   0  0  0  0  0  0  0  0  0  0  0  0
    3.9151   -7.8216    4.5443 C   0  0  0  0  0  0  0  0  0  0  0  0
    4.3205   -7.7290    3.1997 C   0  0  0  0  0  0  0  0  0  0  0  0
    5.7179   -7.7968    2.8080 C   0  0  0  0  0  0  0  0  0  0  0  0
    6.9297   -6.7755    3.5249 S   0  0  0  0  0  0  0  0  0  0  0  0
    8.1849   -7.4282    2.5297 C   0  0  0  0  0  0  0  0  0  0  0  0
    9.5813   -6.9176    2.6081 C   0  0  0  0  0  0  0  0  0  0  0  0
    9.8083   -5.7919    1.5960 C   0  0  0  0  0  0  0  0  0  0  0  0
    7.6783   -8.3746    1.6903 C   0  0  0  0  0  0  0  0  0  0  0  0
    8.6245   -9.2487    0.5568 Cl  0  0  0  0  0  0  0  0  0  0  0  0
    6.2826   -8.5869    1.8447 C   0  0  0  0  0  0  0  0  0  0  0  0
    5.4304   -9.7800    0.9573 Cl  0  0  0  0  0  0  0  0  0  0  0  0
    3.3237   -7.5157    2.2565 C   0  0  0  0  0  0  0  0  0  0  0  0
    1.9485   -7.4556    2.5865 C   0  0  0  0  0  0  0  0  0  0  0  0
    1.5344   -7.6827    3.9131 C   0  0  0  0  0  0  0  0  0  0  0  0
    0.1242   -7.7460    4.2459 C   0  0  0  0  0  0  0  0  0  0  0  0
   -0.5575   -6.8538    5.5729 S   0  0  0  0  0  0  0  0  0  0  0  0
   -2.1484   -7.4639    5.2686 C   0  0  0  0  0  0  0  0  0  0  0  0
   -3.2931   -7.0999    6.1479 C   0  0  0  0  0  0  0  0  0  0  0  0
   -3.2889   -7.9439    7.4246 C   0  0  0  0  0  0  0  0  0  0  0  0
   -2.1338   -8.3182    4.2067 C   0  0  0  0  0  0  0  0  0  0  0  0
   -0.8504   -8.4753    3.6195 C   0  0  0  0  0  0  0  0  0  0  0  0
   -0.5631   -9.5452    2.3087 Cl  0  0  0  0  0  0  0  0  0  0  0  0
   -3.5222   -9.1350    3.6145 Cl  0  0  0  0  0  0  0  0  0  0  0  0
    2.5348   -7.8126    4.8657 C   0  0  0  0  0  0  0  0  0  0  0  0
    2.2847   -7.9496    6.5835 S   0  0  0  0  0  0  0  0  0  0  0  0
    1.1592   -7.0281    1.4938 C   0  0  0  0  0  0  0  0  0  0  0  0
    1.8817   -6.7703    0.3640 C   0  0  0  0  0  0  0  0  0  0  0  0
    3.5875   -7.1199    0.5814 S   0  0  0  0  0  0  0  0  0  0  0  0
    1.4292   -6.1495   -0.8315 C   0  0  0  0  0  0  0  0  0  0  0  0
    2.1688   -5.8323   -1.9548 C   0  0  0  0  0  0  0  0  0  0  0  0
    1.4543   -5.0422   -2.8502 C   0  0  0  0  0  0  0  0  0  0  0  0
    0.1629   -4.7589   -2.4080 C   0  0  0  0  0  0  0  0  0  0  0  0
   -0.1972   -5.4960   -0.9013 S   0  0  0  0  0  0  0  0  0  0  0  0
   -0.4341   -3.8306   -3.2915 C   0  0  0  0  0  0  0  0  0  0  0  0
    0.4738   -3.5183   -4.3039 C   0  0  0  0  0  0  0  0  0  0  0  0
    1.7339   -4.3160   -4.1335 C   0  0  0  0  0  0  0  0  0  0  0  0
    0.0227   -2.5009   -5.1377 C   0  0  0  0  0  0  0  0  0  0  0  0
   -1.2241   -2.0311   -4.7623 C   0  0  0  0  0  0  0  0  0  0  0  0
   -1.8655   -2.8932   -3.3783 S   0  0  0  0  0  0  0  0  0  0  0  0
   -1.9155   -0.8924   -5.2626 C   0  0  0  0  0  0  0  0  0  0  0  0
   -1.4560    0.0500   -6.1413 C   0  0  0  0  0  0  0  0  0  0  0  0
   -2.3179    1.1630   -6.2811 C   0  0  0  0  0  0  0  0  0  0  0  0
   -2.1306    2.3151   -7.0659 C   0  0  0  0  0  0  0  0  0  0  0  0
   -0.9552    2.4952   -7.9015 C   0  0  0  0  0  0  0  0  0  0  0  0
    0.6549    2.3487   -7.2587 S   0  0  0  0  0  0  0  0  0  0  0  0
    1.3852    2.7547   -8.7750 C   0  0  0  0  0  0  0  0  0  0  0  0
    2.8646    2.7669   -8.9414 C   0  0  0  0  0  0  0  0  0  0  0  0
    3.4008    1.3537   -9.1815 C   0  0  0  0  0  0  0  0  0  0  0  0
    0.4252    2.9742   -9.7164 C   0  0  0  0  0  0  0  0  0  0  0  0
    0.7612    3.3882  -11.3473 Cl  0  0  0  0  0  0  0  0  0  0  0  0
   -0.9009    2.8358   -9.2247 C   0  0  0  0  0  0  0  0  0  0  0  0
   -2.2746    3.0006  -10.2357 Cl  0  0  0  0  0  0  0  0  0  0  0  0
   -3.1066    3.3013   -6.9832 C   0  0  0  0  0  0  0  0  0  0  0  0
   -4.2704    3.1658   -6.1884 C   0  0  0  0  0  0  0  0  0  0  0  0
   -4.4768    1.9995   -5.4295 C   0  0  0  0  0  0  0  0  0  0  0  0
   -5.6674    1.8485   -4.6084 C   0  0  0  0  0  0  0  0  0  0  0  0
   -7.2546    2.0291   -5.2996 S   0  0  0  0  0  0  0  0  0  0  0  0
   -8.0367    1.7358   -3.7841 C   0  0  0  0  0  0  0  0  0  0  0  0
   -9.5211    1.7029   -3.6723 C   0  0  0  0  0  0  0  0  0  0  0  0
  -10.0629    0.3050   -3.9805 C   0  0  0  0  0  0  0  0  0  0  0  0
   -7.1099    1.5032   -2.8129 C   0  0  0  0  0  0  0  0  0  0  0  0
   -5.7668    1.5715   -3.2733 C   0  0  0  0  0  0  0  0  0  0  0  0
   -4.4294    1.4134   -2.2142 Cl  0  0  0  0  0  0  0  0  0  0  0  0
   -7.5046    1.1760   -1.1755 Cl  0  0  0  0  0  0  0  0  0  0  0  0
   -3.4858    1.0310   -5.4855 C   0  0  0  0  0  0  0  0  0  0  0  0
   -3.4889   -0.4744   -4.6175 S   0  0  0  0  0  0  0  0  0  0  0  0
   -5.0595    4.3390   -6.2003 C   0  0  0  0  0  0  0  0  0  0  0  0
   -4.5299    5.3447   -6.9566 C   0  0  0  0  0  0  0  0  0  0  0  0
   -3.0292    4.8758   -7.7206 S   0  0  0  0  0  0  0  0  0  0  0  0
   -5.0644    6.6606   -7.1057 C   0  0  0  0  0  0  0  0  0  0  0  0
   -6.2914    7.0876   -6.6888 C   0  0  0  0  0  0  0  0  0  0  0  0
   -6.5098    8.4710   -6.8944 C   0  0  0  0  0  0  0  0  0  0  0  0
   -7.6566    9.2218   -6.5829 C   0  0  0  0  0  0  0  0  0  0  0  0
   -8.8114    8.6045   -5.9525 C   0  0  0  0  0  0  0  0  0  0  0  0
   -8.6450    7.6574   -4.5012 S   0  0  0  0  0  0  0  0  0  0  0  0
  -10.3424    7.3313   -4.4206 C   0  0  0  0  0  0  0  0  0  0  0  0
  -10.9222    6.5373   -3.3025 C   0  0  0  0  0  0  0  0  0  0  0  0
  -11.1885    7.4218   -2.0822 C   0  0  0  0  0  0  0  0  0  0  0  0
  -10.9879    7.9367   -5.4565 C   0  0  0  0  0  0  0  0  0  0  0  0
  -12.6813    7.8398   -5.7146 Cl  0  0  0  0  0  0  0  0  0  0  0  0
  -10.1252    8.6556   -6.3282 C   0  0  0  0  0  0  0  0  0  0  0  0
  -10.6936    9.4201   -7.7520 Cl  0  0  0  0  0  0  0  0  0  0  0  0
   -7.6167   10.5803   -6.8761 C   0  0  0  0  0  0  0  0  0  0  0  0
   -6.4977   11.2050   -7.4784 C   0  0  0  0  0  0  0  0  0  0  0  0
   -5.3714   10.4447   -7.8304 C   0  0  0  0  0  0  0  0  0  0  0  0
   -4.2264   11.0500   -8.4902 C   0  0  0  0  0  0  0  0  0  0  0  0
   -2.6160   10.8637   -7.8638 S   0  0  0  0  0  0  0  0  0  0  0  0
   -1.9278   11.8124   -9.1371 C   0  0  0  0  0  0  0  0  0  0  0  0
   -0.4570   12.0243   -9.2263 C   0  0  0  0  0  0  0  0  0  0  0  0
    0.2350   10.7955   -9.8208 C   0  0  0  0  0  0  0  0  0  0  0  0
   -2.8999   12.2300   -9.9963 C   0  0  0  0  0  0  0  0  0  0  0  0
   -4.2054   11.8052   -9.6297 C   0  0  0  0  0  0  0  0  0  0  0  0
   -5.5915   12.1502  -10.5817 Cl  0  0  0  0  0  0  0  0  0  0  0  0
   -2.6023   13.1853  -11.3908 Cl  0  0  0  0  0  0  0  0  0  0  0  0
   -5.3971    9.0937   -7.5095 C   0  0  0  0  0  0  0  0  0  0  0  0
   -4.1200    7.9509   -7.8156 S   0  0  0  0  0  0  0  0  0  0  0  0
   -6.6778   12.6152   -7.5839 C   0  0  0  0  0  0  0  0  0  0  0  0
   -7.8655   13.0288   -7.0978 C   0  0  0  0  0  0  0  0  0  0  0  0
   -8.8474   11.7461   -6.4821 S   0  0  0  0  0  0  0  0  0  0  0  0
   14.5727   -4.0711   18.3067 H   0  0  0  0  0  0  0  0  0  0  0  0
   12.3419   -4.2889   19.6549 H   0  0  0  0  0  0  0  0  0  0  0  0
    9.3702   -4.3608   18.2361 H   0  0  0  0  0  0  0  0  0  0  0  0
    9.7557   -6.0425   18.6056 H   0  0  0  0  0  0  0  0  0  0  0  0
    7.4767   -6.1419   16.2538 H   0  0  0  0  0  0  0  0  0  0  0  0
    5.9142   -6.8475   14.5778 H   0  0  0  0  0  0  0  0  0  0  0  0
    3.6916   -6.7483   12.2131 H   0  0  0  0  0  0  0  0  0  0  0  0
    4.0256   -8.4690   12.4149 H   0  0  0  0  0  0  0  0  0  0  0  0
    2.7281   -8.0440    9.3875 H   0  0  0  0  0  0  0  0  0  0  0  0
    5.8006   -7.9131    5.6803 H   0  0  0  0  0  0  0  0  0  0  0  0
    9.7743   -6.5477    3.6163 H   0  0  0  0  0  0  0  0  0  0  0  0
   10.2690   -7.7392    2.3974 H   0  0  0  0  0  0  0  0  0  0  0  0
   10.8289   -5.4260    1.6677 H   0  0  0  0  0  0  0  0  0  0  0  0
    9.1264   -4.9671    1.7894 H   0  0  0  0  0  0  0  0  0  0  0  0
    9.6376   -6.1548    0.5857 H   0  0  0  0  0  0  0  0  0  0  0  0
   -4.2220   -7.2664    5.5999 H   0  0  0  0  0  0  0  0  0  0  0  0
   -3.2262   -6.0430    6.4121 H   0  0  0  0  0  0  0  0  0  0  0  0
   -4.1276   -7.6677    8.0580 H   0  0  0  0  0  0  0  0  0  0  0  0
   -2.3652   -7.7859    7.9764 H   0  0  0  0  0  0  0  0  0  0  0  0
   -3.3705   -8.9995    7.1784 H   0  0  0  0  0  0  0  0  0  0  0  0
    0.0997   -6.8553    1.5538 H   0  0  0  0  0  0  0  0  0  0  0  0
    3.1891   -6.1490   -2.0783 H   0  0  0  0  0  0  0  0  0  0  0  0
    2.6162   -3.6781   -4.0586 H   0  0  0  0  0  0  0  0  0  0  0  0
    1.8917   -5.0079   -4.9638 H   0  0  0  0  0  0  0  0  0  0  0  0
    0.5732   -2.0960   -5.9667 H   0  0  0  0  0  0  0  0  0  0  0  0
   -0.5119   -0.0321   -6.6457 H   0  0  0  0  0  0  0  0  0  0  0  0
    3.3280    3.1834   -8.0452 H   0  0  0  0  0  0  0  0  0  0  0  0
    3.1137    3.4026   -9.7928 H   0  0  0  0  0  0  0  0  0  0  0  0
    3.1653    0.7127   -8.3352 H   0  0  0  0  0  0  0  0  0  0  0  0
    4.4794    1.3802   -9.3099 H   0  0  0  0  0  0  0  0  0  0  0  0
    2.9535    0.9283  -10.0764 H   0  0  0  0  0  0  0  0  0  0  0  0
   -9.9531    2.4222   -4.3703 H   0  0  0  0  0  0  0  0  0  0  0  0
   -9.8015    1.9862   -2.6558 H   0  0  0  0  0  0  0  0  0  0  0  0
   -9.7928    0.0102   -4.9916 H   0  0  0  0  0  0  0  0  0  0  0  0
   -9.6496   -0.4205   -3.2846 H   0  0  0  0  0  0  0  0  0  0  0  0
  -11.1458    0.2964   -3.8914 H   0  0  0  0  0  0  0  0  0  0  0  0
   -5.9662    4.4464   -5.6357 H   0  0  0  0  0  0  0  0  0  0  0  0
   -7.0211    6.4313   -6.2542 H   0  0  0  0  0  0  0  0  0  0  0  0
  -10.2295    5.7395   -3.0277 H   0  0  0  0  0  0  0  0  0  0  0  0
  -11.8584    6.0895   -3.6409 H   0  0  0  0  0  0  0  0  0  0  0  0
  -10.2623    7.8729   -1.7344 H   0  0  0  0  0  0  0  0  0  0  0  0
  -11.8873    8.2144   -2.3371 H   0  0  0  0  0  0  0  0  0  0  0  0
  -11.6125    6.8286   -1.2766 H   0  0  0  0  0  0  0  0  0  0  0  0
   -0.0569   12.2176   -8.2292 H   0  0  0  0  0  0  0  0  0  0  0  0
   -0.2663   12.8954   -9.8554 H   0  0  0  0  0  0  0  0  0  0  0  0
    1.3076   10.9610   -9.8753 H   0  0  0  0  0  0  0  0  0  0  0  0
    0.0458    9.9210   -9.2029 H   0  0  0  0  0  0  0  0  0  0  0  0
   -0.1390   10.6001  -10.8226 H   0  0  0  0  0  0  0  0  0  0  0  0
   -5.9369   13.2785   -7.9897 H   0  0  0  0  0  0  0  0  0  0  0  0
   -8.2471   14.0302   -7.0555 H   0  0  0  0  0  0  0  0  0  0  0  0
  1  2  2  0  0  0  0
  2  3  1  0  0  0  0
  3  4  2  0  0  0  0
  4  5  1  0  0  0  0
  4  6  1  0  0  0  0
  6  7  2  0  0  0  0
  7  8  1  0  0  0  0
  7  9  1  0  0  0  0
  9 10  2  0  0  0  0
 10 11  1  0  0  0  0
 10 12  1  0  0  0  0
 12 13  2  0  0  0  0
 13 14  1  0  0  0  0
 14 15  2  0  0  0  0
 15 16  1  0  0  0  0
 15 17  1  0  0  0  0
 17 18  2  0  0  0  0
 18 19  1  0  0  0  0
 18 20  1  0  0  0  0
 20 21  2  0  0  0  0
 21 22  1  0  0  0  0
 21 23  1  0  0  0  0
 23 24  2  0  0  0  0
 24 25  1  0  0  0  0
 25 26  2  0  0  0  0
 26 27  1  0  0  0  0
 27 28  1  0  0  0  0
 28 29  1  0  0  0  0
 29 30  1  0  0  0  0
 30 31  1  0  0  0  0
 29 32  2  0  0  0  0
 32 33  1  0  0  0  0
 32 34  1  0  0  0  0
 34 35  1  0  0  0  0
 26 36  1  0  0  0  0
 36 37  2  0  0  0  0
 37 38  1  0  0  0  0
 38 39  1  0  0  0  0
 39 40  1  0  0  0  0
 40 41  1  0  0  0  0
 41 42  1  0  0  0  0
 42 43  1  0  0  0  0
 41 44  2  0  0  0  0
 44 45  1  0  0  0  0
 45 46  1  0  0  0  0
 44 47  1  0  0  0  0
 38 48  2  0  0  0  0
 48 49  1  0  0  0  0
 37 50  1  0  0  0  0
 50 51  2  0  0  0  0
 51 52  1  0  0  0  0
 51 53  1  0  0  0  0
 53 54  2  0  0  0  0
 54 55  1  0  0  0  0
 55 56  2  0  0  0  0
 56 57  1  0  0  0  0
 56 58  1  0  0  0  0
 58 59  2  0  0  0  0
 59 60  1  0  0  0  0
 59 61  1  0  0  0  0
 61 62  2  0  0  0  0
 62 63  1  0  0  0  0
 62 64  1  0  0  0  0
 64 65  2  0  0  0  0
 65 66  1  0  0  0  0
 66 67  2  0  0  0  0
 67 68  1  0  0  0  0
 68 69  1  0  0  0  0
 69 70  1  0  0  0  0
 70 71  1  0  0  0  0
 71 72  1  0  0  0  0
 70 73  2  0  0  0  0
 73 74  1  0  0  0  0
 73 75  1  0  0  0  0
 75 76  1  0  0  0  0
 67 77  1  0  0  0  0
 77 78  2  0  0  0  0
 78 79  1  0  0  0  0
 79 80  1  0  0  0  0
 80 81  1  0  0  0  0
 81 82  1  0  0  0  0
 82 83  1  0  0  0  0
 83 84  1  0  0  0  0
 82 85  2  0  0  0  0
 85 86  1  0  0  0  0
 86 87  1  0  0  0  0
 85 88  1  0  0  0  0
 79 89  2  0  0  0  0
 89 90  1  0  0  0  0
 78 91  1  0  0  0  0
 91 92  2  0  0  0  0
 92 93  1  0  0  0  0
 92 94  1  0  0  0  0
 94 95  2  0  0  0  0
 95 96  1  0  0  0  0
 96 97  2  0  0  0  0
 97 98  1  0  0  0  0
 98 99  1  0  0  0  0
 99100  1  0  0  0  0
100101  1  0  0  0  0
101102  1  0  0  0  0
100103  2  0  0  0  0
103104  1  0  0  0  0
103105  1  0  0  0  0
105106  1  0  0  0  0
 97107  1  0  0  0  0
107108  2  0  0  0  0
108109  1  0  0  0  0
109110  1  0  0  0  0
110111  1  0  0  0  0
111112  1  0  0  0  0
112113  1  0  0  0  0
113114  1  0  0  0  0
112115  2  0  0  0  0
115116  1  0  0  0  0
116117  1  0  0  0  0
115118  1  0  0  0  0
109119  2  0  0  0  0
119120  1  0  0  0  0
108121  1  0  0  0  0
121122  2  0  0  0  0
122123  1  0  0  0  0
  5  1  1  0  0  0  0
 11  6  1  0  0  0  0
 16 12  1  0  0  0  0
 22 17  1  0  0  0  0
 49 23  1  0  0  0  0
 57 53  1  0  0  0  0
 63 58  1  0  0  0  0
 90 64  1  0  0  0  0
120 94  1  0  0  0  0
  8  3  1  0  0  0  0
 19 14  1  0  0  0  0
 48 25  1  0  0  0  0
 60 55  1  0  0  0  0
 89 66  1  0  0  0  0
119 96  1  0  0  0  0
 34 27  2  0  0  0  0
 52 36  1  0  0  0  0
 75 68  2  0  0  0  0
 93 77  1  0  0  0  0
105 98  2  0  0  0  0
123107  1  0  0  0  0
 45 39  2  0  0  0  0
 86 80  2  0  0  0  0
116110  2  0  0  0  0
  1124  1  0  0  0  0
  2125  1  0  0  0  0
  8126  1  0  0  0  0
  8127  1  0  0  0  0
  9128  1  0  0  0  0
 13129  1  0  0  0  0
 19130  1  0  0  0  0
 19131  1  0  0  0  0
 20132  1  0  0  0  0
 24133  1  0  0  0  0
 30134  1  0  0  0  0
 30135  1  0  0  0  0
 31136  1  0  0  0  0
 31137  1  0  0  0  0
 31138  1  0  0  0  0
 42139  1  0  0  0  0
 42140  1  0  0  0  0
 43141  1  0  0  0  0
 43142  1  0  0  0  0
 43143  1  0  0  0  0
 50144  1  0  0  0  0
 54145  1  0  0  0  0
 60146  1  0  0  0  0
 60147  1  0  0  0  0
 61148  1  0  0  0  0
 65149  1  0  0  0  0
 71150  1  0  0  0  0
 71151  1  0  0  0  0
 72152  1  0  0  0  0
 72153  1  0  0  0  0
 72154  1  0  0  0  0
 83155  1  0  0  0  0
 83156  1  0  0  0  0
 84157  1  0  0  0  0
 84158  1  0  0  0  0
 84159  1  0  0  0  0
 91160  1  0  0  0  0
 95161  1  0  0  0  0
101162  1  0  0  0  0
101163  1  0  0  0  0
102164  1  0  0  0  0
102165  1  0  0  0  0
102166  1  0  0  0  0
113167  1  0  0  0  0
113168  1  0  0  0  0
114169  1  0  0  0  0
114170  1  0  0  0  0
114171  1  0  0  0  0
121172  1  0  0  0  0
122173  1  0  0  0  0
M  END
