298

C         -7.56690       -8.09820        5.94980
S         -7.37180       -8.07470        4.23920
C         -6.36890       -6.67240        4.35960
C         -5.84030       -5.88000        3.30930
C         -5.33060       -4.63230        3.62980
O         -5.28620       -4.14210        4.88910
C         -5.30250       -5.08800        5.97710
C         -3.86720       -5.53580        6.24610
C         -2.84860       -4.60120        6.12700
C         -1.54660       -4.93690        6.44700
C         -1.23100       -6.21270        6.89280
C          0.16670       -6.57010        7.31090
C          0.24330       -6.79060        8.82320
C         -2.25010       -7.15360        6.97570
C         -3.55380       -6.82350        6.65770
C         -5.81230       -4.34910        7.20580
C         -6.51690       -3.16040        7.08710
C         -6.98520       -2.50440        8.21110
C         -6.77880       -3.02620        9.48020
C         -7.33520       -2.34400       10.69600
C         -8.73290       -2.87910       11.01470
C         -6.08060       -4.22220        9.59300
C         -5.59050       -4.87020        8.47510
C         -6.20370       -6.26230        5.66580
C         -6.90340       -7.08640        6.57090
C         -4.97960       -3.88110        2.50160
C         -5.22340       -4.54560        1.32000
S         -5.85990       -6.14120        1.60280
C         -5.07020       -4.01490        0.00560
C         -4.90340       -2.69800       -0.31510
C         -4.85490       -2.45190       -1.70780
C         -4.69840       -1.21630       -2.35690
C         -4.61000        0.03900       -1.59760
C         -5.55280        0.35860       -0.62160
C         -5.44190        1.51940        0.11710
C         -4.38790        2.39790       -0.09710
S         -4.23120        3.90330        0.83480
C         -4.06630        3.22500        2.52440
C         -2.74600        2.50250        2.70520
C         -3.47250        2.09050       -1.09660
F         -2.45210        2.93140       -1.35290
C         -3.56580        0.92820       -1.83500
C         -4.58020       -1.25670       -3.73730
C         -4.57010       -2.45910       -4.48910
C         -4.76850       -3.68920       -3.83890
C         -4.76660       -4.96030       -4.57440
C         -5.80690       -5.87520       -4.42470
C         -5.80600       -7.06000       -5.12900
C         -4.76420       -7.38930       -5.99370
S         -4.85140       -8.95380       -6.81500
C         -4.25680       -8.59300       -8.50960
C         -5.08680       -7.52090       -9.18630
C         -3.71120       -6.48580       -6.09970
C         -3.71070       -5.28450       -5.42050
F         -2.63860       -6.75830       -6.87650
C         -4.93630       -3.64920       -2.46210
S         -5.15130       -5.03360       -1.41890
C         -4.31960       -2.21640       -5.86820
C         -4.17000       -0.89940       -6.17170
S         -4.38670        0.13460       -4.76500
C         -3.61060       -0.25780       -7.32480
C         -3.71700        1.06280       -7.63820
C         -2.65750        1.54060       -8.45100
C         -2.32790        2.88960       -8.66810
C         -3.32030        3.94140       -8.41710
C         -3.06610        5.02230       -7.57920
C         -4.01750        6.00150       -7.36910
C         -5.25510        5.94270       -7.99950
S         -6.54950        7.12370       -7.82400
C         -5.72820        8.57870       -7.08690
C         -4.77610        9.25630       -8.05380
C         -5.50580        4.83890       -8.81750
F         -6.70270        4.73500       -9.42960
C         -4.57210        3.84980       -9.02510
C         -1.00630        3.14240       -8.99300
C         -0.04770        2.12120       -9.23270
C         -0.44120        0.77180       -9.20620
C          0.47430       -0.35020       -9.45990
C          1.66880       -0.51500       -8.76180
C          2.46970       -1.61520       -8.98690
C          2.11120       -2.59080       -9.91430
S          3.20450       -3.96380      -10.13600
C          2.06230       -5.39680      -10.18890
C          1.19150       -5.47480       -8.95110
C          0.92720       -2.40260      -10.62080
C          0.10830       -1.31630      -10.39110
F          0.53620       -3.28620      -11.56490
C         -1.73250        0.51910       -8.76700
S         -2.29200       -1.03760       -8.19400
C          1.27700        2.62900       -9.21690
C          1.34510        3.95430       -8.88220
S         -0.24100        4.70830       -8.89710
C          2.37570        4.55700       -8.09000
C          3.58150        4.01920       -7.73570
C          4.03400        4.43770       -6.45620
C          5.07530        3.88900       -5.68690
C          5.96300        2.83960       -6.20810
C          7.34530        2.96140       -6.13000
C          8.17820        1.95990       -6.59280
C          7.65600        0.79600       -7.14530
S          8.59230       -0.56780       -7.75060
C         10.29730        0.07310       -7.87020
C         10.46100        1.06990       -9.00190
C          6.26550        0.67750       -7.19200
F          5.71550       -0.44940       -7.69080
C          5.42580        1.66840       -6.73860
C          5.12380        4.25200       -4.34940
C          4.18350        5.12690       -3.75380
C          3.19930        5.74680       -4.53680
C          2.16500        6.57400       -3.89690
C          0.82940        6.18670       -3.94470
C         -0.14170        6.89740       -3.26870
C          0.18920        8.02320       -2.52280
S         -0.97150        8.98550       -1.60900
C         -2.29560        7.78580       -1.21630
C         -1.80760        6.65310       -0.33670
C          1.52700        8.41960       -2.51320
C          2.50850        7.71110       -3.17200
F          1.88510        9.51950       -1.82080
C          3.14810        5.37770       -5.86830
S          1.85820        5.80120       -6.95740
C          4.21780        5.06370       -2.33860
C          5.13710        4.18520       -1.85230
S          6.11520        3.47600       -3.13290
C          5.18630        3.65750       -0.52710
S          3.68930        3.59470        0.37720
C          4.43920        2.61790        1.58670
C          3.84470        2.00140        2.71300
C          4.67460        1.37620        3.63340
O          6.01910        1.42080        3.56220
C          6.62260        1.56250        2.25280
C          6.83440        0.15510        1.70650
C          6.35290       -0.26750        0.47720
C          6.57860       -1.56450        0.04990
C          7.27830       -2.46690        0.83840
C          7.48530       -3.88390        0.38690
C          6.33740       -4.77250        0.87030
C          7.74340       -2.04120        2.07730
C          7.52730       -0.74700        2.50600
C          7.95000        2.27400        2.45960
C          9.03740        2.00720        1.63930
C         10.22160        2.70050        1.80740
C         10.34800        3.67230        2.79130
C         11.65130        4.38720        3.00400
C         12.51050        3.63610        4.02320
C          9.25450        3.93430        3.60600
C          8.06560        3.24980        3.43900
C          5.78110        2.41010        1.33010
C          6.19530        2.98980        0.12300
C          3.96710        0.74520        4.66330
C          2.59940        0.85900        4.51940
S          2.17840        1.78310        3.10490
C          1.60530        0.26590        5.35050
C          1.82350       -0.45140        6.49110
C          0.64380       -0.97200        7.07650
C          0.54480       -1.75340        8.23730
C          1.72620       -2.05120        9.05650
C          2.05160       -3.35710        9.41490
C          3.17270       -3.61740       10.17290
C          4.00280       -2.59120       10.62140
S          5.38380       -3.05260       11.62430
C          6.71950       -1.90470       11.12200
C          7.01830       -1.99180        9.63900
C          3.64280       -1.28870       10.28780
F          4.36590       -0.23300       10.72480
C          2.53990       -1.01550        9.50490
C         -0.72180       -2.20320        8.57640
C         -1.88620       -1.85590        7.85000
C         -1.78920       -1.05690        6.69820
C         -2.98980       -0.66650        5.94520
C         -4.08960       -0.11370        6.60040
C         -5.21500        0.26080        5.89740
C         -5.28470        0.10970        4.51610
S         -6.72860        0.71670        3.67960
C         -7.21300       -0.67420        2.59160
C         -7.65180       -1.88760        3.38350
C         -4.17280       -0.41870        3.87250
C         -3.04760       -0.82000        4.56320
F         -4.16420       -0.54820        2.52410
C         -0.51430       -0.65130        6.32430
S         -0.10010        0.33600        4.94190
C         -3.05260       -2.43990        8.42870
C         -2.78460       -3.16770        9.53050
S         -1.10800       -3.20720        9.94790
H         -8.16470       -8.86740        6.39570
H         -3.08490       -3.60580        5.78170
H         -0.76800       -4.19220        6.35470
H          0.48140       -7.48410        6.80070
H          0.85120       -5.76970        7.02160
H          1.26910       -6.98620        9.12760
H         -0.36990       -7.63900        9.11730
H         -0.11950       -5.91330        9.35580
H         -2.02180       -8.16030        7.29500
H         -4.32770       -7.57350        6.73370
H         -6.69120       -2.73920        6.11060
H         -7.52280       -1.57410        8.09700
H         -7.39290       -1.26760       10.52270
H         -6.67940       -2.51800       11.55160
H         -9.40360       -2.70780       10.17570
H         -9.13950       -2.38230       11.89230
H         -8.69380       -3.94890       11.20780
H         -5.91420       -4.64970       10.57220
H         -5.02020       -5.77990        8.59130
H         -6.92100       -6.93370        7.63440
H         -4.55830       -2.89810        2.55210
H         -4.80070       -1.92110        0.41790
H         -6.39500       -0.29850       -0.46540
H         -6.18100        1.75830        0.86680
H         -4.13200        4.09840        3.17210
H         -4.91860        2.57500        2.71600
H         -2.69110        1.63440        2.05080
H         -2.64210        2.16660        3.73590
H         -1.91400        3.16190        2.46840
H         -2.80770        0.71630       -2.57210
H         -6.63460       -5.64180       -3.77310
H         -6.62120       -7.75840       -5.02330
H         -4.36140       -9.55110       -9.01880
H         -3.20290       -8.32750       -8.46730
H         -4.98400       -6.56740       -8.67140
H         -6.13880       -7.79860       -9.19160
H         -4.75290       -7.39330      -10.21410
H         -2.86100       -4.62800       -5.52890
H         -4.24080       -2.99250       -6.60760
H         -4.46180        1.70730       -7.20520
H         -2.12300        5.09230       -7.06070
H         -3.78470        6.81260       -6.69880
H         -5.23870        8.27390       -6.16280
H         -6.56000        9.23710       -6.83630
H         -3.97150        8.58540       -8.34750
H         -4.34040       10.13710       -7.58620
H         -5.30910        9.56530       -8.94980
H         -4.81380        3.02370       -9.67580
H          1.94760        0.19830       -8.00150
H          3.39110       -1.74170       -8.44000
H          2.73740       -6.25030      -10.24990
H          1.47180       -5.34670      -11.10110
H          0.51890       -4.62080       -8.89310
H          1.80550       -5.49150       -8.05310
H          0.59040       -6.38130       -8.98010
H         -0.80400       -1.22110      -10.95990
H          2.14660        2.00600       -9.31140
H          4.08950        3.28100       -8.32870
H          7.77710        3.85640       -5.70830
H          9.24430        2.09340       -6.50900
H         10.58460        0.48530       -6.90380
H         10.89130       -0.82210       -8.05480
H          9.82870        1.94220       -8.85070
H         11.49740        1.39710       -9.06010
H         10.18790        0.60940       -9.94840
H          4.35910        1.51090       -6.77120
H          0.54870        5.30030       -4.49240
H         -1.16450        6.56090       -3.31860
H         -2.73520        7.42700       -2.14600
H         -3.03550        8.39340       -0.69560
H         -1.04820        6.06130       -0.84330
H         -2.63940        5.99830       -0.08670
H         -1.38270        7.04720        0.58360
H          3.53230        8.04750       -3.11680
H          3.52730        5.59440       -1.70750
H          5.80660        0.41220       -0.15990
H          6.20470       -1.87650       -0.91480
H          7.53450       -3.92160       -0.70300
H          8.42750       -4.26520        0.78590
H          6.27770       -4.75680        1.95640
H          5.39020       -4.41690        0.47110
H          6.48820       -5.79920        0.54500
H          8.28740       -2.72980        2.70820
H          7.89460       -0.41910        3.46740
H          8.96000        1.25200        0.87040
H         11.06090        2.48290        1.16210
H         12.19360        4.45890        2.05910
H         11.46340        5.39910        3.36850
H         13.45430        4.15300        4.18040
H         11.99040        3.56410        4.97570
H         12.71980        2.62830        3.67130
H          9.33160        4.68860        4.37610
H          7.22180        3.46470        4.07710
H          7.19260        2.91370       -0.27170
H          4.44780        0.21620        5.46370
H          2.80210       -0.62330        6.89800
H          1.43720       -4.17350        9.07220
H          3.43080       -4.63160       10.43480
H          7.57010       -2.24230       11.71420
H          6.45470       -0.89480       11.42690
H          7.25030       -3.01640        9.35530
H          7.87140       -1.36010        9.39970
H          6.16700       -1.65480        9.05050
H          2.30330        0.01360        9.28170
H         -4.05110        0.04140        7.66750
H         -6.06130        0.69160        6.40960
H         -6.38380       -0.90330        1.92750
H         -8.03640       -0.26460        2.00620
H         -6.82250       -2.28290        3.96580
H         -7.99140       -2.66650        2.70290
H         -8.46700       -1.63220        4.05770
H         -2.22150       -1.24230        4.01210
H         -4.04100       -2.32950        8.02350
H         -3.47890       -3.70710       10.14270
