202

C          7.45410        0.19440        7.71800
C          7.28220       -1.14020        7.63440
C          6.03340       -1.50530        7.05020
C          5.54760       -2.79600        6.77850
C          6.31580       -3.98810        7.10040
S          6.89530       -4.29160        8.71160
C          7.58780       -5.81260        8.26200
C          8.34210       -6.63940        9.24390
C          9.81150       -6.21460        9.30210
C          7.38480       -6.05000        6.93580
Cl         7.94050       -7.45380        6.12130
C          6.65710       -5.02330        6.27540
Cl         6.32480       -5.06400        4.59460
C          4.28810       -2.88730        6.19780
C          3.53310       -1.73960        5.86380
C          4.04900       -0.44820        6.05390
C          3.29890        0.69830        5.56970
S          2.89720        2.04410        6.59320
C          2.01680        2.84290        5.33150
C          1.35270        4.15400        5.57200
C          0.39070        4.09280        6.75750
C          2.05070        2.10220        4.18800
C          2.76940        0.88320        4.32070
Cl         2.98460       -0.19260        2.99960
Cl         1.32320        2.57250        2.70550
C          5.28110       -0.36170        6.68600
S          6.12640        1.10530        7.08870
C          2.25390       -2.07360        5.37260
C          2.02620       -3.41640        5.29360
S          3.40000       -4.34770        5.84120
C          0.81790       -3.93860        4.73160
C         -0.32330       -3.19810        4.63630
C         -1.27560       -3.73960        3.74750
C         -2.41740       -3.09340        3.25100
C         -2.74400       -1.74970        3.71000
S         -4.23780       -1.38040        4.51670
C         -3.76160        0.25850        4.81430
C         -4.62620        1.18830        5.59230
C         -4.26070        1.16040        7.07830
C         -2.51600        0.48830        4.31210
Cl        -1.67900        1.97590        4.44880
C         -1.94250       -0.64320        3.67290
Cl        -0.41560       -0.58240        2.88750
C         -3.11540       -3.74800        2.25390
C         -2.75420       -5.02750        1.76100
C         -1.62950       -5.68870        2.29130
C         -1.21370       -7.00260        1.83120
S         -0.99640       -7.37550        0.14520
C         -0.48800       -8.99470        0.48290
C         -0.06580       -9.91850       -0.60560
C          1.43280       -9.78040       -0.88570
C         -0.48560       -9.21700        1.82710
C         -0.89640       -8.09350        2.59340
Cl        -1.05150       -8.15590        4.29900
Cl        -0.04580      -10.71150        2.54600
C         -0.88350       -5.00190        3.24540
S          0.69170       -5.44790        3.85320
C         -3.57910       -5.41520        0.67240
C         -4.47760       -4.45770        0.30120
S         -4.42890       -3.05900        1.35220
C         -5.31470       -4.36860       -0.84970
N         -5.59180       -5.38940       -1.71150
C         -6.29700       -4.92740       -2.78620
C         -6.66340       -5.77570       -3.88340
C         -6.62610       -7.10880       -3.88470
C         -6.48610       -3.54730       -2.60200
C         -5.87010       -3.21980       -1.37920
C         -7.09740       -2.53170       -3.40840
C         -7.93840       -2.64060       -4.45230
C         -8.42610       -1.48940       -5.14880
N         -9.31120       -1.56600       -6.18630
C         -9.60800       -0.32250       -6.66280
C        -10.49820       -0.16110       -7.77790
C        -10.58370        0.90470       -8.57270
C         -8.89020        0.59890       -5.88630
C         -8.15210       -0.14700       -4.95170
C         -9.00460        2.03680       -5.94600
C         -8.10270        2.94350       -5.56230
C         -6.73930        2.71500       -5.08940
C         -5.60650        2.81200       -5.82350
C         -4.41030        2.69170       -5.06250
C         -3.08330        2.81600       -5.49380
C         -2.73560        3.13890       -6.86880
S         -1.59180        2.17590       -7.75600
C         -1.67430        3.21110       -9.14020
C         -0.81100        2.96570      -10.32800
C          0.63590        3.37250      -10.03840
C         -2.54160        4.23720       -8.91270
Cl        -2.88310        5.47640      -10.05060
C         -3.14840        4.19740       -7.62790
Cl        -4.21850        5.42010       -7.07560
C         -2.09100        2.65800       -4.53490
C         -2.34730        2.39050       -3.16910
C         -3.68090        2.27940       -2.73860
C         -4.02910        2.03090       -1.34840
S         -5.05680        0.70030       -0.90570
C         -5.06170        1.15560        0.76470
C         -5.83740        0.38650        1.77490
C         -7.28640        0.17560        1.34210
C         -4.29900        2.26920        0.94840
C         -3.70230        2.76280       -0.24340
Cl        -2.73830        4.18350       -0.28030
Cl        -4.08970        3.05100        2.45770
C         -4.67620        2.44330       -3.69590
S         -6.39140        2.44480       -3.38770
C         -1.14400        2.27840       -2.41680
C         -0.01970        2.47850       -3.15970
S         -0.39200        2.80350       -4.84650
C          1.36970        2.43910       -2.82460
C          2.36570        2.51550       -3.75200
C          3.66650        2.41430       -3.21310
C          4.87690        2.41680       -3.92320
C          4.88040        2.47340       -5.37590
S          5.76540        3.69670       -6.23690
C          5.22160        3.11870       -7.77400
C          5.58860        3.81250       -9.03920
C          4.56790        4.90160       -9.37890
C          4.40330        2.04070       -7.61240
Cl         3.66750        1.19670       -8.91220
C          4.21120        1.66770       -6.25590
Cl         3.28680        0.29410       -5.79920
C          6.04220        2.36470       -3.17250
C          6.03180        2.29030       -1.76120
C          4.81570        2.25720       -1.05530
C          4.88220        2.19410        0.40150
S          4.46610        3.54970        1.40320
C          5.10650        2.79430        2.82360
C          5.18270        3.52560        4.11760
C          6.47830        4.33560        4.20400
C          5.59240        1.55650        2.52470
C          5.46790        1.21510        1.15210
Cl         5.99510       -0.28670        0.50920
Cl         6.31420        0.50090        3.66880
C          3.64690        2.31750       -1.79880
S          2.00540        2.27740       -1.19680
C          7.35680        2.26690       -1.23220
C          8.30440        2.29660       -2.19030
S          7.66660        2.36430       -3.79750
H          8.29630        0.72650        8.11520
H          8.01020       -1.85540        7.97030
H          8.27680       -7.68650        8.94250
H          7.89220       -6.52950       10.23200
H         10.27530       -6.32990        8.32580
H         10.34970       -6.82930       10.01850
H          9.89170       -5.17340        9.60550
H          0.81350        4.43410        4.66560
H          2.11290        4.91590        5.76810
H          0.92620        3.81960        7.66380
H         -0.08030        5.06060        6.90690
H         -0.38500        3.35360        6.57560
H          1.53150       -1.33890        5.07490
H         -0.47030       -2.27460        5.16270
H         -4.49300        2.20060        5.20560
H         -5.67110        0.89930        5.46890
H         -4.89660        1.84610        7.63140
H         -4.39260        0.15900        7.48110
H         -3.22440        1.45770        7.21670
H         -0.62830       -9.69260       -1.51320
H         -0.28610      -10.94350       -0.30060
H          2.00520      -10.01380        0.00830
H          1.66750       -8.76420       -1.19310
H          1.72920      -10.46270       -1.67780
H         -3.46230       -6.34710        0.15010
H         -5.28510       -6.34050       -1.59990
H         -6.97790       -5.25480       -4.77570
H         -6.89870       -7.67460       -4.75760
H         -6.34280       -7.68700       -3.02080
H         -5.81470       -2.23980       -0.94690
H         -6.83060       -1.53300       -3.08840
H         -8.29700       -3.60150       -4.79480
H         -9.67120       -2.42360       -6.57320
H        -11.13330       -1.01830       -7.97650
H         -9.94070        1.75850       -8.45680
H        -11.29380        0.94130       -9.38040
H         -7.52180        0.25550       -4.18820
H         -9.94960        2.39950       -6.33100
H         -8.36040        3.99450       -5.63850
H         -5.61560        2.96490       -6.88710
H         -0.84140        1.90590      -10.58850
H         -1.19770        3.54430      -11.16850
H          0.68680        4.42910       -9.78590
H          1.02790        2.79550       -9.20410
H          1.25710        3.19040      -10.91150
H         -5.36750       -0.58850        1.92820
H         -5.80150        0.93280        2.71890
H         -7.32620       -0.38590        0.41200
H         -7.78190        1.13130        1.18960
H         -7.82350       -0.38010        2.10560
H         -1.11520        2.04980       -1.36650
H          2.16910        2.64550       -4.80040
H          5.61910        3.07840       -9.84670
H          6.57810        4.25930       -8.93290
H          3.57890        4.46630       -9.49710
H          4.52960        5.64300       -8.58450
H          4.84510        5.39670      -10.30560
H          5.15840        2.80610        4.93760
H          4.32660        4.19540        4.20740
H          6.52230        5.06860        3.40180
H          7.33810        3.67580        4.12230
H          6.52780        4.85390        5.15750
H          7.57600        2.23110       -0.18090
H          9.36920        2.28520       -2.06340
