
  xtb     02282216363D
 energy: -214.123387053296 gnorm: 0.000298474329 xtb: 6.4.1 (unknown)
143154  0     0  0            999 V2000
    3.6740   -2.6860    1.8231 C   0  0  0  0  0  0  0  0  0  0  0  0
    3.3449   -1.8756    2.8790 C   0  0  0  0  0  0  0  0  0  0  0  0
    2.8662   -2.3123    4.1885 C   0  0  0  0  0  0  0  0  0  0  0  0
    2.8409   -3.4859    4.4908 O   0  0  0  0  0  0  0  0  0  0  0  0
    2.3703   -1.2168    5.0978 C   0  0  0  0  0  0  0  0  0  0  0  0
    3.4575   -0.2017    2.4332 S   0  0  0  0  0  0  0  0  0  0  0  0
    3.8868   -0.6216    0.8348 C   0  0  0  0  0  0  0  0  0  0  0  0
    3.9598   -1.9762    0.6357 C   0  0  0  0  0  0  0  0  0  0  0  0
    4.2424   -2.5848   -0.6607 C   0  0  0  0  0  0  0  0  0  0  0  0
    3.6562   -2.1859   -1.7917 C   0  0  0  0  0  0  0  0  0  0  0  0
    2.5866   -1.2001   -1.8313 C   0  0  0  0  0  0  0  0  0  0  0  0
    2.5985   -0.0954   -2.6579 C   0  0  0  0  0  0  0  0  0  0  0  0
    3.6413    0.2519   -3.6117 C   0  0  0  0  0  0  0  0  0  0  0  0
    4.6462   -0.4197   -3.7305 O   0  0  0  0  0  0  0  0  0  0  0  0
    3.3913    1.4955   -4.4290 C   0  0  0  0  0  0  0  0  0  0  0  0
    1.1759    0.8773   -2.4248 S   0  0  0  0  0  0  0  0  0  0  0  0
    0.5710   -0.2162   -1.2621 C   0  0  0  0  0  0  0  0  0  0  0  0
    1.4114   -1.2678   -1.0165 C   0  0  0  0  0  0  0  0  0  0  0  0
    1.1633   -2.4046   -0.1451 C   0  0  0  0  0  0  0  0  0  0  0  0
    0.5729   -2.4985    1.0553 C   0  0  0  0  0  0  0  0  0  0  0  0
   -0.0122   -1.4916    1.9221 C   0  0  0  0  0  0  0  0  0  0  0  0
    0.1978   -0.1151    1.7734 C   0  0  0  0  0  0  0  0  0  0  0  0
   -0.5020    0.7674    2.5577 C   0  0  0  0  0  0  0  0  0  0  0  0
   -1.4032    0.3125    3.5343 C   0  0  0  0  0  0  0  0  0  0  0  0
   -1.5423   -1.0482    3.7632 C   0  0  0  0  0  0  0  0  0  0  0  0
   -0.8459   -1.9314    2.9602 C   0  0  0  0  0  0  0  0  0  0  0  0
   -2.0567    1.4627    4.1269 C   0  0  0  0  0  0  0  0  0  0  0  0
   -1.5584    2.6224    3.5111 C   0  0  0  0  0  0  0  0  0  0  0  0
   -0.4795    2.2771    2.5094 C   0  0  0  0  0  0  0  0  0  0  0  0
   -0.8068    2.7991    1.1093 C   0  0  0  0  0  0  0  0  0  0  0  0
    0.8811    2.8082    2.9774 C   0  0  0  0  0  0  0  0  0  0  0  0
   -2.0474    3.8578    3.8560 C   0  0  0  0  0  0  0  0  0  0  0  0
   -3.0596    3.9614    4.8194 C   0  0  0  0  0  0  0  0  0  0  0  0
   -3.5111    2.8042    5.4590 C   0  0  0  0  0  0  0  0  0  0  0  0
   -3.0222    1.5581    5.1174 C   0  0  0  0  0  0  0  0  0  0  0  0
   -3.5817    5.2851    5.1213 C   0  0  0  0  0  0  0  0  0  0  0  0
   -4.7885    5.6165    5.5983 C   0  0  0  0  0  0  0  0  0  0  0  0
   -5.9254    4.7387    5.8322 C   0  0  0  0  0  0  0  0  0  0  0  0
   -6.7058    4.7542    6.9735 C   0  0  0  0  0  0  0  0  0  0  0  0
   -6.5985    5.4438    8.2516 C   0  0  0  0  0  0  0  0  0  0  0  0
   -7.4714    5.3136    9.0875 O   0  0  0  0  0  0  0  0  0  0  0  0
   -5.3752    6.2906    8.5039 C   0  0  0  0  0  0  0  0  0  0  0  0
   -8.0384    3.6383    6.8649 S   0  0  0  0  0  0  0  0  0  0  0  0
   -7.5378    3.1572    5.3082 C   0  0  0  0  0  0  0  0  0  0  0  0
   -6.4121    3.8030    4.8642 C   0  0  0  0  0  0  0  0  0  0  0  0
   -5.7949    3.5781    3.5746 C   0  0  0  0  0  0  0  0  0  0  0  0
   -5.8411    2.4053    2.9291 C   0  0  0  0  0  0  0  0  0  0  0  0
   -5.2080    2.0926    1.6651 C   0  0  0  0  0  0  0  0  0  0  0  0
   -5.0436    0.7430    1.3216 C   0  0  0  0  0  0  0  0  0  0  0  0
   -4.3938    0.4068    0.1605 C   0  0  0  0  0  0  0  0  0  0  0  0
   -3.9115    1.4055   -0.7016 C   0  0  0  0  0  0  0  0  0  0  0  0
   -4.1053    2.7450   -0.3940 C   0  0  0  0  0  0  0  0  0  0  0  0
   -4.7439    3.0759    0.7851 C   0  0  0  0  0  0  0  0  0  0  0  0
   -3.1827    0.7688   -1.7796 C   0  0  0  0  0  0  0  0  0  0  0  0
   -3.1913   -0.6198   -1.5640 C   0  0  0  0  0  0  0  0  0  0  0  0
   -4.0688   -0.9668   -0.3824 C   0  0  0  0  0  0  0  0  0  0  0  0
   -5.3483   -1.6642   -0.8629 C   0  0  0  0  0  0  0  0  0  0  0  0
   -3.3410   -1.8319    0.6434 C   0  0  0  0  0  0  0  0  0  0  0  0
   -2.4244   -1.4510   -2.3419 C   0  0  0  0  0  0  0  0  0  0  0  0
   -1.6235   -0.9136   -3.3622 C   0  0  0  0  0  0  0  0  0  0  0  0
   -1.7262    0.4559   -3.6412 C   0  0  0  0  0  0  0  0  0  0  0  0
   -2.4865    1.2991   -2.8563 C   0  0  0  0  0  0  0  0  0  0  0  0
   -0.6321   -1.7736   -3.9723 C   0  0  0  0  0  0  0  0  0  0  0  0
    0.3761   -1.3769   -4.7666 C   0  0  0  0  0  0  0  0  0  0  0  0
    1.4915   -2.1814   -5.2168 C   0  0  0  0  0  0  0  0  0  0  0  0
    1.7699   -3.4526   -4.6939 C   0  0  0  0  0  0  0  0  0  0  0  0
    2.8582   -4.1527   -5.1531 C   0  0  0  0  0  0  0  0  0  0  0  0
    3.7036   -3.6062   -6.1329 C   0  0  0  0  0  0  0  0  0  0  0  0
    3.4527   -2.3425   -6.6445 C   0  0  0  0  0  0  0  0  0  0  0  0
    2.3542   -1.6474   -6.1825 C   0  0  0  0  0  0  0  0  0  0  0  0
    4.7416   -4.5695   -6.4377 C   0  0  0  0  0  0  0  0  0  0  0  0
    4.5340   -5.7151   -5.6527 C   0  0  0  0  0  0  0  0  0  0  0  0
    3.3248   -5.5384   -4.7602 C   0  0  0  0  0  0  0  0  0  0  0  0
    3.7252   -5.6021   -3.2830 C   0  0  0  0  0  0  0  0  0  0  0  0
    2.2489   -6.5839   -5.0696 C   0  0  0  0  0  0  0  0  0  0  0  0
    5.3718   -6.7989   -5.7539 C   0  0  0  0  0  0  0  0  0  0  0  0
    6.4453   -6.7622   -6.6521 C   0  0  0  0  0  0  0  0  0  0  0  0
    6.6416   -5.6115   -7.4229 C   0  0  0  0  0  0  0  0  0  0  0  0
    5.8036   -4.5175   -7.3268 C   0  0  0  0  0  0  0  0  0  0  0  0
    7.3684   -7.8760   -6.8186 C   0  0  0  0  0  0  0  0  0  0  0  0
    7.3089   -9.0600   -6.2190 C   0  0  0  0  0  0  0  0  0  0  0  0
    3.6664   -3.7583    1.9004 H   0  0  0  0  0  0  0  0  0  0  0  0
    2.1048   -1.6342    6.0652 H   0  0  0  0  0  0  0  0  0  0  0  0
    3.1338   -0.4519    5.2210 H   0  0  0  0  0  0  0  0  0  0  0  0
    1.4916   -0.7530    4.6510 H   0  0  0  0  0  0  0  0  0  0  0  0
    4.0909    0.1490    0.1170 H   0  0  0  0  0  0  0  0  0  0  0  0
    4.9728   -3.3816   -0.6711 H   0  0  0  0  0  0  0  0  0  0  0  0
    3.9596   -2.5858   -2.7486 H   0  0  0  0  0  0  0  0  0  0  0  0
    3.3580    2.3621   -3.7710 H   0  0  0  0  0  0  0  0  0  0  0  0
    2.4343    1.4251   -4.9400 H   0  0  0  0  0  0  0  0  0  0  0  0
    4.1895    1.6214   -5.1552 H   0  0  0  0  0  0  0  0  0  0  0  0
   -0.3990   -0.0402   -0.8402 H   0  0  0  0  0  0  0  0  0  0  0  0
    1.5623   -3.3250   -0.5580 H   0  0  0  0  0  0  0  0  0  0  0  0
    0.4987   -3.4995    1.4654 H   0  0  0  0  0  0  0  0  0  0  0  0
    0.9039    0.2477    1.0459 H   0  0  0  0  0  0  0  0  0  0  0  0
   -2.1953   -1.4150    4.5408 H   0  0  0  0  0  0  0  0  0  0  0  0
   -0.9678   -2.9939    3.1135 H   0  0  0  0  0  0  0  0  0  0  0  0
   -0.8711    3.8844    1.1161 H   0  0  0  0  0  0  0  0  0  0  0  0
   -0.0337    2.5039    0.4034 H   0  0  0  0  0  0  0  0  0  0  0  0
   -1.7603    2.3984    0.7720 H   0  0  0  0  0  0  0  0  0  0  0  0
    0.8799    3.8954    2.9834 H   0  0  0  0  0  0  0  0  0  0  0  0
    1.6695    2.4612    2.3135 H   0  0  0  0  0  0  0  0  0  0  0  0
    1.0977    2.4556    3.9838 H   0  0  0  0  0  0  0  0  0  0  0  0
   -1.6751    4.7531    3.3780 H   0  0  0  0  0  0  0  0  0  0  0  0
   -4.2455    2.8885    6.2453 H   0  0  0  0  0  0  0  0  0  0  0  0
   -3.3887    0.6740    5.6174 H   0  0  0  0  0  0  0  0  0  0  0  0
   -2.8889    6.0944    4.9202 H   0  0  0  0  0  0  0  0  0  0  0  0
   -4.9803    6.6626    5.8031 H   0  0  0  0  0  0  0  0  0  0  0  0
   -4.4739    5.7928    8.1561 H   0  0  0  0  0  0  0  0  0  0  0  0
   -5.3050    6.4961    9.5693 H   0  0  0  0  0  0  0  0  0  0  0  0
   -5.4778    7.2377    7.9770 H   0  0  0  0  0  0  0  0  0  0  0  0
   -8.1162    2.4332    4.7688 H   0  0  0  0  0  0  0  0  0  0  0  0
   -5.2402    4.4116    3.1685 H   0  0  0  0  0  0  0  0  0  0  0  0
   -6.3438    1.5734    3.4061 H   0  0  0  0  0  0  0  0  0  0  0  0
   -5.4087   -0.0216    1.9924 H   0  0  0  0  0  0  0  0  0  0  0  0
   -3.7486    3.5184   -1.0585 H   0  0  0  0  0  0  0  0  0  0  0  0
   -4.8919    4.1166    1.0299 H   0  0  0  0  0  0  0  0  0  0  0  0
   -5.8653   -1.0442   -1.5924 H   0  0  0  0  0  0  0  0  0  0  0  0
   -5.1048   -2.6173   -1.3269 H   0  0  0  0  0  0  0  0  0  0  0  0
   -6.0158   -1.8430   -0.0232 H   0  0  0  0  0  0  0  0  0  0  0  0
   -3.9747   -2.0131    1.5080 H   0  0  0  0  0  0  0  0  0  0  0  0
   -3.0672   -2.7907    0.2097 H   0  0  0  0  0  0  0  0  0  0  0  0
   -2.4367   -1.3310    0.9777 H   0  0  0  0  0  0  0  0  0  0  0  0
   -2.3890   -2.5133   -2.1454 H   0  0  0  0  0  0  0  0  0  0  0  0
   -1.1742    0.8738   -4.4687 H   0  0  0  0  0  0  0  0  0  0  0  0
   -2.5140    2.3587   -3.0625 H   0  0  0  0  0  0  0  0  0  0  0  0
   -0.6820   -2.8077   -3.6573 H   0  0  0  0  0  0  0  0  0  0  0  0
    0.4010   -0.3504   -5.1097 H   0  0  0  0  0  0  0  0  0  0  0  0
    1.1349   -3.8725   -3.9281 H   0  0  0  0  0  0  0  0  0  0  0  0
    4.1018   -1.9095   -7.3905 H   0  0  0  0  0  0  0  0  0  0  0  0
    2.1424   -0.6660   -6.5841 H   0  0  0  0  0  0  0  0  0  0  0  0
    4.0576   -6.6054   -3.0265 H   0  0  0  0  0  0  0  0  0  0  0  0
    2.8815   -5.3414   -2.6477 H   0  0  0  0  0  0  0  0  0  0  0  0
    4.5391   -4.9083   -3.0849 H   0  0  0  0  0  0  0  0  0  0  0  0
    1.9612   -6.5280   -6.1175 H   0  0  0  0  0  0  0  0  0  0  0  0
    1.3664   -6.4118   -4.4576 H   0  0  0  0  0  0  0  0  0  0  0  0
    2.6235   -7.5843   -4.8661 H   0  0  0  0  0  0  0  0  0  0  0  0
    5.2061   -7.6743   -5.1450 H   0  0  0  0  0  0  0  0  0  0  0  0
    7.4725   -5.5834   -8.1141 H   0  0  0  0  0  0  0  0  0  0  0  0
    5.9745   -3.6402   -7.9329 H   0  0  0  0  0  0  0  0  0  0  0  0
    8.1755   -7.6882   -7.5169 H   0  0  0  0  0  0  0  0  0  0  0  0
    8.0439   -9.8222   -6.4134 H   0  0  0  0  0  0  0  0  0  0  0  0
    6.5357   -9.3234   -5.5178 H   0  0  0  0  0  0  0  0  0  0  0  0
  1  2  2  0  0  0  0
  2  3  1  0  0  0  0
  3  4  2  0  0  0  0
  3  5  1  0  0  0  0
  2  6  1  0  0  0  0
  6  7  1  0  0  0  0
  7  8  2  0  0  0  0
  8  9  1  0  0  0  0
  9 10  2  0  0  0  0
 10 11  1  0  0  0  0
 11 12  2  0  0  0  0
 12 13  1  0  0  0  0
 13 14  2  0  0  0  0
 13 15  1  0  0  0  0
 12 16  1  0  0  0  0
 16 17  1  0  0  0  0
 17 18  2  0  0  0  0
 18 19  1  0  0  0  0
 19 20  2  0  0  0  0
 20 21  1  0  0  0  0
 21 22  2  0  0  0  0
 22 23  1  0  0  0  0
 23 24  2  0  0  0  0
 24 25  1  0  0  0  0
 25 26  2  0  0  0  0
 24 27  1  0  0  0  0
 27 28  2  0  0  0  0
 28 29  1  0  0  0  0
 29 30  1  0  0  0  0
 29 31  1  0  0  0  0
 28 32  1  0  0  0  0
 32 33  2  0  0  0  0
 33 34  1  0  0  0  0
 34 35  2  0  0  0  0
 33 36  1  0  0  0  0
 36 37  2  0  0  0  0
 37 38  1  0  0  0  0
 38 39  2  0  0  0  0
 39 40  1  0  0  0  0
 40 41  2  0  0  0  0
 40 42  1  0  0  0  0
 39 43  1  0  0  0  0
 43 44  1  0  0  0  0
 44 45  2  0  0  0  0
 45 46  1  0  0  0  0
 46 47  2  0  0  0  0
 47 48  1  0  0  0  0
 48 49  2  0  0  0  0
 49 50  1  0  0  0  0
 50 51  2  0  0  0  0
 51 52  1  0  0  0  0
 52 53  2  0  0  0  0
 51 54  1  0  0  0  0
 54 55  2  0  0  0  0
 55 56  1  0  0  0  0
 56 57  1  0  0  0  0
 56 58  1  0  0  0  0
 55 59  1  0  0  0  0
 59 60  2  0  0  0  0
 60 61  1  0  0  0  0
 61 62  2  0  0  0  0
 60 63  1  0  0  0  0
 63 64  2  0  0  0  0
 64 65  1  0  0  0  0
 65 66  2  0  0  0  0
 66 67  1  0  0  0  0
 67 68  2  0  0  0  0
 68 69  1  0  0  0  0
 69 70  2  0  0  0  0
 68 71  1  0  0  0  0
 71 72  2  0  0  0  0
 72 73  1  0  0  0  0
 73 74  1  0  0  0  0
 73 75  1  0  0  0  0
 72 76  1  0  0  0  0
 76 77  2  0  0  0  0
 77 78  1  0  0  0  0
 78 79  2  0  0  0  0
 77 80  1  0  0  0  0
 80 81  2  0  0  0  0
  8  1  1  0  0  0  0
 18 11  1  0  0  0  0
 26 21  1  0  0  0  0
 35 27  1  0  0  0  0
 45 38  1  0  0  0  0
 53 48  1  0  0  0  0
 62 54  1  0  0  0  0
 70 65  1  0  0  0  0
 79 71  1  0  0  0  0
 29 23  1  0  0  0  0
 56 50  1  0  0  0  0
 73 67  1  0  0  0  0
  1 82  1  0  0  0  0
  5 83  1  0  0  0  0
  5 84  1  0  0  0  0
  5 85  1  0  0  0  0
  7 86  1  0  0  0  0
  9 87  1  0  0  0  0
 10 88  1  0  0  0  0
 15 89  1  0  0  0  0
 15 90  1  0  0  0  0
 15 91  1  0  0  0  0
 17 92  1  0  0  0  0
 19 93  1  0  0  0  0
 20 94  1  0  0  0  0
 22 95  1  0  0  0  0
 25 96  1  0  0  0  0
 26 97  1  0  0  0  0
 30 98  1  0  0  0  0
 30 99  1  0  0  0  0
 30100  1  0  0  0  0
 31101  1  0  0  0  0
 31102  1  0  0  0  0
 31103  1  0  0  0  0
 32104  1  0  0  0  0
 34105  1  0  0  0  0
 35106  1  0  0  0  0
 36107  1  0  0  0  0
 37108  1  0  0  0  0
 42109  1  0  0  0  0
 42110  1  0  0  0  0
 42111  1  0  0  0  0
 44112  1  0  0  0  0
 46113  1  0  0  0  0
 47114  1  0  0  0  0
 49115  1  0  0  0  0
 52116  1  0  0  0  0
 53117  1  0  0  0  0
 57118  1  0  0  0  0
 57119  1  0  0  0  0
 57120  1  0  0  0  0
 58121  1  0  0  0  0
 58122  1  0  0  0  0
 58123  1  0  0  0  0
 59124  1  0  0  0  0
 61125  1  0  0  0  0
 62126  1  0  0  0  0
 63127  1  0  0  0  0
 64128  1  0  0  0  0
 66129  1  0  0  0  0
 69130  1  0  0  0  0
 70131  1  0  0  0  0
 74132  1  0  0  0  0
 74133  1  0  0  0  0
 74134  1  0  0  0  0
 75135  1  0  0  0  0
 75136  1  0  0  0  0
 75137  1  0  0  0  0
 76138  1  0  0  0  0
 78139  1  0  0  0  0
 79140  1  0  0  0  0
 80141  1  0  0  0  0
 81142  1  0  0  0  0
 81143  1  0  0  0  0
M  END
