234

C         -2.61110       -6.29660       11.39930
C         -2.93600       -5.16410       10.70110
C         -2.49220       -4.71870        9.38830
O         -2.96310       -3.74110        8.84460
C         -1.39790       -5.54540        8.75540
S         -4.07180       -4.19170       11.59130
C         -4.08680       -5.32250       12.86900
C         -3.28360       -6.41430       12.63930
C         -3.11100       -7.58460       13.47540
C         -3.94340       -8.13330       14.36970
C         -5.27170       -7.73060       14.79770
C         -5.60650       -7.75990       16.14470
C         -4.74140       -8.11570       17.26320
O         -3.55700       -8.34310       17.11950
C         -5.41750       -8.18690       18.61090
S         -7.25110       -7.26920       16.41620
C         -7.48120       -7.02170       14.74770
C         -6.37790       -7.31600       13.98680
C         -6.39220       -7.13340       12.55340
C         -5.67320       -7.83090       11.65960
C         -5.51820       -7.42950       10.29500
C         -5.94410       -6.28200        9.69260
C         -5.41450       -6.08510        8.39510
C         -5.54730       -4.94840        7.58780
C         -6.38240       -3.79660        7.94500
C         -5.82930       -2.51840        7.94500
C         -6.61530       -1.40590        8.16150
C         -7.98430       -1.53150        8.37330
S         -9.08380       -0.16860        8.58070
C         -8.22780        1.19440        7.71170
C         -8.06500        0.92700        6.22870
C         -8.51100       -2.82170        8.43490
F         -9.82750       -2.98800        8.68450
C         -7.73760       -3.94360        8.22680
C         -4.81200       -4.93710        6.41510
C         -3.98010       -6.00310        5.99270
C         -3.85100       -7.14610        6.80260
C         -2.97550       -8.26380        6.43100
C         -1.66560       -8.05040        6.00960
C         -0.83920       -9.10390        5.66870
C         -1.29170      -10.41620        5.73980
S         -0.36610      -11.85250        5.31510
C          1.33860      -11.24280        5.07860
C          2.01610      -10.89590        6.39110
C         -2.60750      -10.61630        6.16380
C         -3.44000       -9.57630        6.50680
F         -3.08440      -11.87490        6.23480
C         -4.56960       -7.14880        7.99090
S         -4.47070       -8.36420        9.24100
C         -3.37210       -5.72550        4.74020
C         -3.70140       -4.50140        4.23710
S         -4.81530       -3.62970        5.27130
C         -3.21040       -3.83310        3.07750
C         -3.57250       -2.58360        2.67130
C         -2.83240       -2.10180        1.56600
C         -2.95060       -0.84930        0.93940
C         -3.89270        0.15770        1.44200
C         -4.77580        0.81110        0.58850
C         -5.68990        1.72950        1.06940
C         -5.75490        2.02610        2.42560
S         -6.86530        3.16790        3.17930
C         -8.12740        3.48430        1.90050
C         -9.03010        2.28620        1.67640
C         -4.84220        1.38620        3.26630
F         -4.86190        1.66790        4.58580
C         -3.92520        0.47300        2.80060
C         -2.11740       -0.62100       -0.14450
C         -1.18200       -1.57880       -0.60930
C         -1.07570       -2.83910        0.00810
C         -0.12710       -3.83620       -0.49930
C          0.75340       -4.50810        0.34700
C          1.67900       -5.39270       -0.16220
C          1.76410       -5.65520       -1.52990
S          2.99190       -6.80480       -2.05870
C          3.46480       -6.21920       -3.73610
C          4.84980       -6.74030       -4.06140
C          0.84450       -5.01610       -2.35700
C         -0.07740       -4.11730       -1.86210
F          0.81830       -5.25600       -3.68860
C         -1.89610       -3.06080        1.10260
S         -1.95020       -4.51580        2.06940
C         -0.38210       -1.06470       -1.65750
C         -0.68820        0.21900       -2.00610
S         -2.00250        0.86710       -1.04850
C         -0.03750        0.99540       -3.01240
C          0.97300        0.57510       -3.82850
C          1.43930        1.57250       -4.71730
C          2.49040        1.46880       -5.64470
C          3.18510        0.19400       -5.85900
C          2.46890       -0.97940       -6.09580
C          3.12430       -2.17500       -6.29770
C          4.51510       -2.25190       -6.26110
S          5.25250       -3.84290       -6.49250
C          6.70390       -3.50350       -7.55630
C          6.31580       -2.80130       -8.84140
C          5.21640       -1.07860       -6.00100
F          6.56300       -1.08630       -5.90270
C          4.57370        0.12940       -5.82050
C          2.82770        2.62500       -6.32940
C          2.14990        3.85630       -6.14520
C          1.08530        3.95430       -5.23240
C          0.38280        5.22660       -5.03390
C          1.09320        6.40490       -4.81350
C          0.44310        7.61550       -4.68920
C         -0.94170        7.69500       -4.78870
S         -1.85480        9.20040       -4.68740
C         -0.68200       10.43300       -5.36030
C         -0.31050       10.13860       -6.80020
C         -1.64400        6.50170       -4.95680
C         -1.00790        5.28560       -5.07880
F         -2.98840        6.53310       -5.02750
C          0.75180        2.79940       -4.54170
S         -0.47510        2.66390       -3.30890
C          2.66590        4.86970       -6.99050
C          3.69780        4.45680       -7.77780
S          4.08170        2.76410       -7.53650
C          4.45930        5.25750       -8.67950
C          5.38850        4.86000       -9.59100
C          5.98400        5.93540      -10.30210
C          6.97370        5.87530      -11.29520
C          7.57920        4.60000      -11.69800
C          7.65730        4.23090      -13.03940
C          8.24700        3.04030      -13.40630
C          8.77680        2.16950      -12.45640
S          9.47240        0.65150      -13.04140
C         10.96960        0.42540      -12.01070
C         11.91810        1.60200      -12.12080
C          8.66910        2.53900      -11.11910
F          9.12660        1.73070      -10.13760
C          8.09590        3.73510      -10.73810
C          7.36160        7.08240      -11.86100
C          6.85090        8.33490      -11.44330
C          5.88580        8.39850      -10.42770
C          5.39710        9.67640       -9.89480
C          6.29390       10.66310       -9.48510
C          5.84060       11.83330       -8.91700
C          4.47810       12.07530       -8.74150
S          4.01930       13.61770       -8.01630
C          2.48570       13.22190       -7.08260
C          2.32750       14.21770       -5.95060
C          3.59450       11.09730       -9.18730
C          4.03540        9.91230       -9.74040
F          2.25630       11.27840       -9.09470
C          5.45380        7.18790       -9.90560
S          4.25780        6.99990       -8.65070
C          7.42700        9.41050      -12.18320
C          8.33850        8.99690      -13.08610
S          8.56290        7.28120      -13.11130
H         -1.93400       -7.04790       11.03380
H         -0.51360       -5.53080        9.38890
H         -1.72250       -6.57640        8.63730
H         -1.15400       -5.12660        7.78270
H         -4.67440       -5.12240       13.74280
H         -2.17170       -8.09650       13.30650
H         -3.56720       -8.98830       14.91810
H         -6.22120       -8.92000       18.58840
H         -5.84720       -7.21950       18.86300
H         -4.68860       -8.46810       19.36620
H         -8.43470       -6.68610       14.38770
H         -7.03570       -6.33460       12.20910
H         -5.09730       -8.68950       11.97350
H         -6.57650       -5.55560       10.16860
H         -4.76650       -2.40360        7.80470
H         -6.15350       -0.43220        8.15860
H         -8.88090        2.04960        7.88490
H         -7.27430        1.38200        8.20300
H         -7.58140        1.77780        5.75300
H         -7.45220        0.04430        6.05680
H         -9.03650        0.76870        5.76550
H         -8.20370       -4.91700        8.24400
H         -1.27550       -7.04520        5.96520
H          0.16430       -8.88760        5.34070
H          1.31580      -10.40470        4.38350
H          1.84230      -12.07930        4.59430
H          2.04280      -11.76800        7.04000
H          3.03730      -10.56870        6.20530
H          1.48440      -10.10090        6.90970
H         -4.45100       -9.79480        6.81160
H         -2.71930       -6.40580        4.22280
H         -4.35400       -2.02780        3.15660
H         -4.76510        0.58500       -0.46680
H         -6.35350        2.21340        0.37160
H         -8.69190        4.32550        2.30300
H         -7.62680        3.80860        0.98920
H         -8.46120        1.42640        1.32880
H         -9.78620        2.52740        0.93180
H         -9.52880        2.01400        2.60360
H         -3.23090        0.02650        3.49470
H          0.73490       -4.30760        1.40680
H          2.37200       -5.89480        0.49460
H          2.72950       -6.58520       -4.45050
H          3.45260       -5.13060       -3.71670
H          5.57120       -6.39230       -3.32570
H          5.14840       -6.37720       -5.04200
H          4.85860       -7.82780       -4.06810
H         -0.77600       -3.66370       -2.54840
H          0.41790       -1.61920       -2.11070
H          1.39550       -0.41110       -3.78330
H          1.39160       -0.94440       -6.15290
H          2.56670       -3.07860       -6.49010
H          7.43500       -2.93550       -6.98520
H          7.10320       -4.49820       -7.75560
H          5.92010       -1.80770       -8.63880
H          7.19160       -2.69610       -9.47830
H          5.56000       -3.37220       -9.37710
H          5.16850        1.00550       -5.61520
H          2.16780        6.36970       -4.71650
H          1.02360        8.50650       -4.51020
H         -1.23210       11.37050       -5.28200
H          0.18940       10.48670       -4.70830
H          0.32200       10.93040       -7.19490
H         -1.20630       10.07490       -7.41320
H          0.22770        9.19600       -6.87940
H         -1.59990        4.39900       -5.24160
H          2.27710        5.87120       -7.03170
H          5.62580        3.82500       -9.76080
H          7.24420        4.87750      -13.79770
H          8.30850        2.75940      -14.44600
H         10.66830        0.23860      -10.98240
H         11.41740       -0.48030      -12.41990
H         11.46530        2.50570      -11.71680
H         12.18300        1.78380      -13.16020
H         12.82640        1.39290      -11.55920
H          8.06730        3.98570       -9.68880
H          7.35520       10.49160       -9.58040
H          6.53870       12.58630       -8.58580
H          1.64270       13.27210       -7.77050
H          2.59700       12.20780       -6.70130
H          1.42040       13.99760       -5.39150
H          3.17800       14.16630       -5.27460
H          2.25870       15.23030       -6.34090
H          3.30190        9.19460      -10.07260
H          7.14730       10.43900      -12.04430
H          8.91050        9.59650      -13.76700
