
  xtb     03032204513D
 energy: -453.495597879091 gnorm: 0.000218518411 xtb: 6.4.1 (unknown)
231257  0     0  0            999 V2000
   10.9841   -0.1418   11.2354 C   0  0  0  0  0  0  0  0  0  0  0  0
   10.3964    1.0353   10.9411 C   0  0  0  0  0  0  0  0  0  0  0  0
   10.1035    1.1743    9.5529 C   0  0  0  0  0  0  0  0  0  0  0  0
    9.4749    2.2438    8.8970 C   0  0  0  0  0  0  0  0  0  0  0  0
    8.9303    3.3797    9.6229 C   0  0  0  0  0  0  0  0  0  0  0  0
    9.3301    5.0117    9.1791 S   0  0  0  0  0  0  0  0  0  0  0  0
    8.2902    5.6791   10.3916 C   0  0  0  0  0  0  0  0  0  0  0  0
    8.1199    7.1522   10.5224 C   0  0  0  0  0  0  0  0  0  0  0  0
    7.3883    7.7282    9.3084 C   0  0  0  0  0  0  0  0  0  0  0  0
    7.6759    4.6825   11.0890 C   0  0  0  0  0  0  0  0  0  0  0  0
    6.5617    4.9474   12.3680 Cl  0  0  0  0  0  0  0  0  0  0  0  0
    8.0395    3.3772   10.6596 C   0  0  0  0  0  0  0  0  0  0  0  0
    7.3469    1.9574   11.3314 Cl  0  0  0  0  0  0  0  0  0  0  0  0
    9.3699    2.1608    7.5149 C   0  0  0  0  0  0  0  0  0  0  0  0
    9.8214    1.0443    6.7711 C   0  0  0  0  0  0  0  0  0  0  0  0
   10.3845   -0.0579    7.4359 C   0  0  0  0  0  0  0  0  0  0  0  0
   10.7584   -1.2574    6.7063 C   0  0  0  0  0  0  0  0  0  0  0  0
   12.3375   -1.9680    6.8532 S   0  0  0  0  0  0  0  0  0  0  0  0
   11.9510   -3.2442    5.7514 C   0  0  0  0  0  0  0  0  0  0  0  0
   12.9645   -4.2610    5.3572 C   0  0  0  0  0  0  0  0  0  0  0  0
   13.7743   -3.7851    4.1485 C   0  0  0  0  0  0  0  0  0  0  0  0
   10.6709   -3.1118    5.3015 C   0  0  0  0  0  0  0  0  0  0  0  0
    9.9899   -1.9896    5.8428 C   0  0  0  0  0  0  0  0  0  0  0  0
    8.3409   -1.6577    5.4979 Cl  0  0  0  0  0  0  0  0  0  0  0  0
    9.9295   -4.1937    4.1951 Cl  0  0  0  0  0  0  0  0  0  0  0  0
   10.5357    0.0476    8.8134 C   0  0  0  0  0  0  0  0  0  0  0  0
   11.2314   -1.1592    9.8581 S   0  0  0  0  0  0  0  0  0  0  0  0
    9.6153    1.2196    5.3794 C   0  0  0  0  0  0  0  0  0  0  0  0
    8.9888    2.3884    5.0676 C   0  0  0  0  0  0  0  0  0  0  0  0
    8.6452    3.3610    6.4846 S   0  0  0  0  0  0  0  0  0  0  0  0
    8.5756    2.8479    3.7836 C   0  0  0  0  0  0  0  0  0  0  0  0
    7.8629    3.9765    3.5054 C   0  0  0  0  0  0  0  0  0  0  0  0
    7.5379    4.1174    2.1355 C   0  0  0  0  0  0  0  0  0  0  0  0
    6.7301    5.1035    1.5382 C   0  0  0  0  0  0  0  0  0  0  0  0
    6.2765    6.2540    2.2964 C   0  0  0  0  0  0  0  0  0  0  0  0
    4.6123    6.7610    2.2827 S   0  0  0  0  0  0  0  0  0  0  0  0
    4.9183    8.0669    3.3747 C   0  0  0  0  0  0  0  0  0  0  0  0
    3.8377    9.0112    3.7710 C   0  0  0  0  0  0  0  0  0  0  0  0
    3.7498   10.1772    2.7831 C   0  0  0  0  0  0  0  0  0  0  0  0
    6.2390    8.1057    3.7099 C   0  0  0  0  0  0  0  0  0  0  0  0
    6.9212    9.2674    4.7724 Cl  0  0  0  0  0  0  0  0  0  0  0  0
    7.0123    7.0804    3.1037 C   0  0  0  0  0  0  0  0  0  0  0  0
    8.7135    6.9763    3.3090 Cl  0  0  0  0  0  0  0  0  0  0  0  0
    6.3577    4.8865    0.2182 C   0  0  0  0  0  0  0  0  0  0  0  0
    6.8282    3.7910   -0.5474 C   0  0  0  0  0  0  0  0  0  0  0  0
    7.7153    2.8595    0.0219 C   0  0  0  0  0  0  0  0  0  0  0  0
    8.2216    1.7240   -0.7301 C   0  0  0  0  0  0  0  0  0  0  0  0
    7.1553    0.6554   -1.5965 S   0  0  0  0  0  0  0  0  0  0  0  0
    8.4583   -0.3582   -2.1141 C   0  0  0  0  0  0  0  0  0  0  0  0
    8.2061   -1.5809   -2.9249 C   0  0  0  0  0  0  0  0  0  0  0  0
    7.7889   -2.7530   -2.0334 C   0  0  0  0  0  0  0  0  0  0  0  0
    9.6424    0.1104   -1.6290 C   0  0  0  0  0  0  0  0  0  0  0  0
    9.5135    1.2895   -0.8463 C   0  0  0  0  0  0  0  0  0  0  0  0
   10.8700    2.1133   -0.2009 Cl  0  0  0  0  0  0  0  0  0  0  0  0
   11.1605   -0.6291   -1.9319 Cl  0  0  0  0  0  0  0  0  0  0  0  0
    8.0273    3.0337    1.3648 C   0  0  0  0  0  0  0  0  0  0  0  0
    8.9111    1.9033    2.3497 S   0  0  0  0  0  0  0  0  0  0  0  0
    6.2473    3.7627   -1.8375 C   0  0  0  0  0  0  0  0  0  0  0  0
    5.3360    4.7552   -2.0467 C   0  0  0  0  0  0  0  0  0  0  0  0
    5.2292    5.8557   -0.6875 S   0  0  0  0  0  0  0  0  0  0  0  0
    4.3757    4.8176   -3.0971 C   0  0  0  0  0  0  0  0  0  0  0  0
    3.2603    5.6005   -3.1452 C   0  0  0  0  0  0  0  0  0  0  0  0
    2.3174    5.1828   -4.1157 C   0  0  0  0  0  0  0  0  0  0  0  0
    1.0094    5.6642   -4.3152 C   0  0  0  0  0  0  0  0  0  0  0  0
    0.4828    6.7906   -3.5650 C   0  0  0  0  0  0  0  0  0  0  0  0
    0.6187    6.8780   -1.8328 S   0  0  0  0  0  0  0  0  0  0  0  0
   -0.2336    8.3828   -1.7589 C   0  0  0  0  0  0  0  0  0  0  0  0
   -0.4517    9.0714   -0.4569 C   0  0  0  0  0  0  0  0  0  0  0  0
    0.8724    9.3786    0.2432 C   0  0  0  0  0  0  0  0  0  0  0  0
   -0.5987    8.7790   -3.0105 C   0  0  0  0  0  0  0  0  0  0  0  0
   -1.4557   10.2267   -3.3499 Cl  0  0  0  0  0  0  0  0  0  0  0  0
   -0.2038    7.8761   -4.0351 C   0  0  0  0  0  0  0  0  0  0  0  0
   -0.4963    8.1856   -5.6945 Cl  0  0  0  0  0  0  0  0  0  0  0  0
    0.2034    4.9416   -5.1875 C   0  0  0  0  0  0  0  0  0  0  0  0
    0.6735    3.8186   -5.9107 C   0  0  0  0  0  0  0  0  0  0  0  0
    2.0137    3.4020   -5.7948 C   0  0  0  0  0  0  0  0  0  0  0  0
    2.4880    2.2462   -6.5318 C   0  0  0  0  0  0  0  0  0  0  0  0
    3.3467    0.9567   -5.7397 S   0  0  0  0  0  0  0  0  0  0  0  0
    3.4307    0.0142   -7.1899 C   0  0  0  0  0  0  0  0  0  0  0  0
    4.1185   -1.3062   -7.2009 C   0  0  0  0  0  0  0  0  0  0  0  0
    5.6197   -1.1477   -6.9550 C   0  0  0  0  0  0  0  0  0  0  0  0
    2.8368    0.6782   -8.2212 C   0  0  0  0  0  0  0  0  0  0  0  0
    2.3013    1.9423   -7.8538 C   0  0  0  0  0  0  0  0  0  0  0  0
    1.5716    2.9951   -8.9978 Cl  0  0  0  0  0  0  0  0  0  0  0  0
    2.7087    0.0605   -9.8180 Cl  0  0  0  0  0  0  0  0  0  0  0  0
    2.7881    4.0700   -4.8574 C   0  0  0  0  0  0  0  0  0  0  0  0
    4.3850    3.5960   -4.3532 S   0  0  0  0  0  0  0  0  0  0  0  0
   -0.3807    3.1094   -6.5264 C   0  0  0  0  0  0  0  0  0  0  0  0
   -1.6161    3.6379   -6.2801 C   0  0  0  0  0  0  0  0  0  0  0  0
   -1.5231    5.1173   -5.3529 S   0  0  0  0  0  0  0  0  0  0  0  0
   -2.8487    2.9605   -6.5263 C   0  0  0  0  0  0  0  0  0  0  0  0
   -2.9741    1.7656   -7.1745 C   0  0  0  0  0  0  0  0  0  0  0  0
   -4.2203    1.1345   -6.9618 C   0  0  0  0  0  0  0  0  0  0  0  0
   -4.5785   -0.1713   -7.3481 C   0  0  0  0  0  0  0  0  0  0  0  0
   -3.7120   -0.9120   -8.2457 C   0  0  0  0  0  0  0  0  0  0  0  0
   -3.0786   -2.4805   -7.8419 S   0  0  0  0  0  0  0  0  0  0  0  0
   -2.1006   -2.5376   -9.2681 C   0  0  0  0  0  0  0  0  0  0  0  0
   -1.1583   -3.6618   -9.5224 C   0  0  0  0  0  0  0  0  0  0  0  0
    0.2388   -3.3247   -8.9931 C   0  0  0  0  0  0  0  0  0  0  0  0
   -2.2755   -1.4079  -10.0116 C   0  0  0  0  0  0  0  0  0  0  0  0
   -1.4689   -1.1073  -11.4962 Cl  0  0  0  0  0  0  0  0  0  0  0  0
   -3.1875   -0.4848   -9.4362 C   0  0  0  0  0  0  0  0  0  0  0  0
   -3.6182    0.9898  -10.2019 Cl  0  0  0  0  0  0  0  0  0  0  0  0
   -5.7054   -0.7061   -6.7427 C   0  0  0  0  0  0  0  0  0  0  0  0
   -6.5350    0.0457   -5.8764 C   0  0  0  0  0  0  0  0  0  0  0  0
   -6.2694    1.4076   -5.6338 C   0  0  0  0  0  0  0  0  0  0  0  0
   -7.1943    2.2113   -4.8605 C   0  0  0  0  0  0  0  0  0  0  0  0
   -6.6682    3.2784   -3.5924 S   0  0  0  0  0  0  0  0  0  0  0  0
   -8.2846    3.7841   -3.2391 C   0  0  0  0  0  0  0  0  0  0  0  0
   -8.5591    4.8163   -2.2024 C   0  0  0  0  0  0  0  0  0  0  0  0
   -8.4019    6.2236   -2.7839 C   0  0  0  0  0  0  0  0  0  0  0  0
   -9.1693    3.1666   -4.0728 C   0  0  0  0  0  0  0  0  0  0  0  0
   -8.5572    2.2723   -4.9888 C   0  0  0  0  0  0  0  0  0  0  0  0
   -9.4555    1.4429   -6.1918 Cl  0  0  0  0  0  0  0  0  0  0  0  0
  -10.8662    3.4236   -4.0312 Cl  0  0  0  0  0  0  0  0  0  0  0  0
   -5.0682    1.9019   -6.1285 C   0  0  0  0  0  0  0  0  0  0  0  0
   -4.3330    3.4295   -5.7219 S   0  0  0  0  0  0  0  0  0  0  0  0
   -7.4973   -0.7706   -5.2312 C   0  0  0  0  0  0  0  0  0  0  0  0
   -7.4404   -2.0845   -5.5909 C   0  0  0  0  0  0  0  0  0  0  0  0
   -6.2163   -2.3663   -6.8189 S   0  0  0  0  0  0  0  0  0  0  0  0
   -8.0891   -3.1994   -4.9412 C   0  0  0  0  0  0  0  0  0  0  0  0
   -7.4092   -4.4005   -4.8244 C   0  0  0  0  0  0  0  0  0  0  0  0
   -7.8367   -5.4007   -3.9633 C   0  0  0  0  0  0  0  0  0  0  0  0
   -8.9564   -5.2405   -3.1625 C   0  0  0  0  0  0  0  0  0  0  0  0
   -9.7608   -4.0749   -3.3684 C   0  0  0  0  0  0  0  0  0  0  0  0
   -9.3480   -3.0688   -4.2861 C   0  0  0  0  0  0  0  0  0  0  0  0
  -10.2469   -2.0092   -4.5237 C   0  0  0  0  0  0  0  0  0  0  0  0
  -11.4172   -1.9396   -3.8155 C   0  0  0  0  0  0  0  0  0  0  0  0
  -11.6842   -2.9413   -2.8705 C   0  0  0  0  0  0  0  0  0  0  0  0
  -10.9058   -3.9678   -2.6714 N   0  0  0  0  0  0  0  0  0  0  0  0
   -9.3259   -6.1467   -2.1076 C   0  0  0  0  0  0  0  0  0  0  0  0
   -8.6183   -7.2243   -1.7137 C   0  0  0  0  0  0  0  0  0  0  0  0
   -8.9381   -8.0403   -0.5862 C   0  0  0  0  0  0  0  0  0  0  0  0
   -9.9078   -7.8858    0.3629 C   0  0  0  0  0  0  0  0  0  0  0  0
   -9.8813   -8.8785    1.3729 C   0  0  0  0  0  0  0  0  0  0  0  0
  -10.7031   -8.9870    2.5082 C   0  0  0  0  0  0  0  0  0  0  0  0
  -11.8017   -8.0634    2.7342 C   0  0  0  0  0  0  0  0  0  0  0  0
  -11.9524   -7.1884    4.2286 S   0  0  0  0  0  0  0  0  0  0  0  0
  -13.3951   -6.3889    3.7049 C   0  0  0  0  0  0  0  0  0  0  0  0
  -14.1237   -5.4553    4.6070 C   0  0  0  0  0  0  0  0  0  0  0  0
  -14.9429   -6.2274    5.6436 C   0  0  0  0  0  0  0  0  0  0  0  0
  -13.7335   -6.7961    2.4491 C   0  0  0  0  0  0  0  0  0  0  0  0
  -15.1127   -6.2327    1.5971 Cl  0  0  0  0  0  0  0  0  0  0  0  0
  -12.8292   -7.7401    1.8921 C   0  0  0  0  0  0  0  0  0  0  0  0
  -13.0691   -8.4501    0.3474 Cl  0  0  0  0  0  0  0  0  0  0  0  0
  -10.4184  -10.0137    3.3998 C   0  0  0  0  0  0  0  0  0  0  0  0
   -9.3691  -10.9409    3.2007 C   0  0  0  0  0  0  0  0  0  0  0  0
   -8.5404  -10.8277    2.0735 C   0  0  0  0  0  0  0  0  0  0  0  0
   -7.4068  -11.7167    1.8752 C   0  0  0  0  0  0  0  0  0  0  0  0
   -7.1855  -12.6045    0.3981 S   0  0  0  0  0  0  0  0  0  0  0  0
   -5.7078  -13.3122    0.9540 C   0  0  0  0  0  0  0  0  0  0  0  0
   -4.9599  -14.2958    0.1234 C   0  0  0  0  0  0  0  0  0  0  0  0
   -5.4628  -15.7194    0.3741 C   0  0  0  0  0  0  0  0  0  0  0  0
   -5.4197  -12.8807    2.2145 C   0  0  0  0  0  0  0  0  0  0  0  0
   -6.3780  -11.9728    2.7386 C   0  0  0  0  0  0  0  0  0  0  0  0
   -6.2002  -11.2228    4.2728 Cl  0  0  0  0  0  0  0  0  0  0  0  0
   -4.0284  -13.3636    3.0960 Cl  0  0  0  0  0  0  0  0  0  0  0  0
   -8.8293   -9.8080    1.1767 C   0  0  0  0  0  0  0  0  0  0  0  0
   -7.9290   -9.4410   -0.2629 S   0  0  0  0  0  0  0  0  0  0  0  0
   -9.3396  -11.9299    4.2271 C   0  0  0  0  0  0  0  0  0  0  0  0
  -10.2996  -11.7482    5.1559 C   0  0  0  0  0  0  0  0  0  0  0  0
  -11.3098  -10.3767    4.8518 S   0  0  0  0  0  0  0  0  0  0  0  0
   11.3040   -0.4961   12.1958 H   0  0  0  0  0  0  0  0  0  0  0  0
   10.1819    1.7948   11.6699 H   0  0  0  0  0  0  0  0  0  0  0  0
    7.5522    7.3569   11.4315 H   0  0  0  0  0  0  0  0  0  0  0  0
    9.0998    7.6268   10.6103 H   0  0  0  0  0  0  0  0  0  0  0  0
    7.2591    8.8009    9.4240 H   0  0  0  0  0  0  0  0  0  0  0  0
    6.4085    7.2683    9.2042 H   0  0  0  0  0  0  0  0  0  0  0  0
    7.9574    7.5399    8.4010 H   0  0  0  0  0  0  0  0  0  0  0  0
   12.4499   -5.1909    5.1076 H   0  0  0  0  0  0  0  0  0  0  0  0
   13.6365   -4.4458    6.1965 H   0  0  0  0  0  0  0  0  0  0  0  0
   13.1172   -3.6089    3.3007 H   0  0  0  0  0  0  0  0  0  0  0  0
   14.2946   -2.8598    4.3837 H   0  0  0  0  0  0  0  0  0  0  0  0
   14.5073   -4.5376    3.8709 H   0  0  0  0  0  0  0  0  0  0  0  0
    9.9237    0.5111    4.6322 H   0  0  0  0  0  0  0  0  0  0  0  0
    7.5435    4.6576    4.2728 H   0  0  0  0  0  0  0  0  0  0  0  0
    4.0531    9.3944    4.7702 H   0  0  0  0  0  0  0  0  0  0  0  0
    2.8847    8.4807    3.7949 H   0  0  0  0  0  0  0  0  0  0  0  0
    3.5456    9.8077    1.7814 H   0  0  0  0  0  0  0  0  0  0  0  0
    4.6868   10.7277    2.7675 H   0  0  0  0  0  0  0  0  0  0  0  0
    2.9530   10.8555    3.0758 H   0  0  0  0  0  0  0  0  0  0  0  0
    9.1200   -1.8370   -3.4639 H   0  0  0  0  0  0  0  0  0  0  0  0
    7.4158   -1.3782   -3.6501 H   0  0  0  0  0  0  0  0  0  0  0  0
    6.8742   -2.5116   -1.4973 H   0  0  0  0  0  0  0  0  0  0  0  0
    7.6166   -3.6392   -2.6380 H   0  0  0  0  0  0  0  0  0  0  0  0
    8.5690   -2.9716   -1.3088 H   0  0  0  0  0  0  0  0  0  0  0  0
    6.4472    3.0039   -2.5716 H   0  0  0  0  0  0  0  0  0  0  0  0
    3.0995    6.4085   -2.4557 H   0  0  0  0  0  0  0  0  0  0  0  0
   -1.0604    8.4357    0.1916 H   0  0  0  0  0  0  0  0  0  0  0  0
   -1.0007    9.9954   -0.6444 H   0  0  0  0  0  0  0  0  0  0  0  0
    1.4887   10.0217   -0.3804 H   0  0  0  0  0  0  0  0  0  0  0  0
    0.6862    9.8842    1.1868 H   0  0  0  0  0  0  0  0  0  0  0  0
    1.4172    8.4577    0.4401 H   0  0  0  0  0  0  0  0  0  0  0  0
    3.9454   -1.7799   -8.1683 H   0  0  0  0  0  0  0  0  0  0  0  0
    3.6924   -1.9431   -6.4221 H   0  0  0  0  0  0  0  0  0  0  0  0
    5.7929   -0.6652   -5.9957 H   0  0  0  0  0  0  0  0  0  0  0  0
    6.0683   -0.5377   -7.7349 H   0  0  0  0  0  0  0  0  0  0  0  0
    6.1036   -2.1207   -6.9526 H   0  0  0  0  0  0  0  0  0  0  0  0
   -0.2351    2.1854   -7.0518 H   0  0  0  0  0  0  0  0  0  0  0  0
   -2.1751    1.3099   -7.7275 H   0  0  0  0  0  0  0  0  0  0  0  0
   -1.1043   -3.8418  -10.5980 H   0  0  0  0  0  0  0  0  0  0  0  0
   -1.5286   -4.5636   -9.0331 H   0  0  0  0  0  0  0  0  0  0  0  0
    0.9197   -4.1490   -9.1871 H   0  0  0  0  0  0  0  0  0  0  0  0
    0.6229   -2.4334   -9.4825 H   0  0  0  0  0  0  0  0  0  0  0  0
    0.2039   -3.1442   -7.9212 H   0  0  0  0  0  0  0  0  0  0  0  0
   -7.8652    4.6879   -1.3701 H   0  0  0  0  0  0  0  0  0  0  0  0
   -9.5780    4.6832   -1.8342 H   0  0  0  0  0  0  0  0  0  0  0  0
   -7.3895    6.3674   -3.1537 H   0  0  0  0  0  0  0  0  0  0  0  0
   -8.6045    6.9683   -2.0190 H   0  0  0  0  0  0  0  0  0  0  0  0
   -9.0970    6.3712   -3.6066 H   0  0  0  0  0  0  0  0  0  0  0  0
   -8.1273   -0.4048   -4.4414 H   0  0  0  0  0  0  0  0  0  0  0  0
   -6.4847   -4.5334   -5.3680 H   0  0  0  0  0  0  0  0  0  0  0  0
   -7.2426   -6.2976   -3.8863 H   0  0  0  0  0  0  0  0  0  0  0  0
  -10.0241   -1.2795   -5.2872 H   0  0  0  0  0  0  0  0  0  0  0  0
  -12.1276   -1.1456   -3.9845 H   0  0  0  0  0  0  0  0  0  0  0  0
  -12.5876   -2.9125   -2.2743 H   0  0  0  0  0  0  0  0  0  0  0  0
  -10.2302   -5.8726   -1.5847 H   0  0  0  0  0  0  0  0  0  0  0  0
   -7.7218   -7.5180   -2.2424 H   0  0  0  0  0  0  0  0  0  0  0  0
  -10.6050   -7.0695    0.3595 H   0  0  0  0  0  0  0  0  0  0  0  0
  -13.4062   -4.8119    5.1200 H   0  0  0  0  0  0  0  0  0  0  0  0
  -14.7852   -4.8310    4.0041 H   0  0  0  0  0  0  0  0  0  0  0  0
  -15.4646   -5.5352    6.2990 H   0  0  0  0  0  0  0  0  0  0  0  0
  -15.6760   -6.8600    5.1495 H   0  0  0  0  0  0  0  0  0  0  0  0
  -14.2908   -6.8562    6.2452 H   0  0  0  0  0  0  0  0  0  0  0  0
   -3.8997  -14.2342    0.3765 H   0  0  0  0  0  0  0  0  0  0  0  0
   -5.0842  -14.0458   -0.9314 H   0  0  0  0  0  0  0  0  0  0  0  0
   -6.5190  -15.7951    0.1269 H   0  0  0  0  0  0  0  0  0  0  0  0
   -5.3296  -15.9870    1.4192 H   0  0  0  0  0  0  0  0  0  0  0  0
   -4.9088  -16.4246   -0.2395 H   0  0  0  0  0  0  0  0  0  0  0  0
   -8.6354  -12.7409    4.2481 H   0  0  0  0  0  0  0  0  0  0  0  0
  -10.4954  -12.3438    6.0260 H   0  0  0  0  0  0  0  0  0  0  0  0
  1  2  2  0  0  0  0
  2  3  1  0  0  0  0
  3  4  2  0  0  0  0
  4  5  1  0  0  0  0
  5  6  1  0  0  0  0
  6  7  1  0  0  0  0
  7  8  1  0  0  0  0
  8  9  1  0  0  0  0
  7 10  2  0  0  0  0
 10 11  1  0  0  0  0
 10 12  1  0  0  0  0
 12 13  1  0  0  0  0
  4 14  1  0  0  0  0
 14 15  2  0  0  0  0
 15 16  1  0  0  0  0
 16 17  1  0  0  0  0
 17 18  1  0  0  0  0
 18 19  1  0  0  0  0
 19 20  1  0  0  0  0
 20 21  1  0  0  0  0
 19 22  2  0  0  0  0
 22 23  1  0  0  0  0
 23 24  1  0  0  0  0
 22 25  1  0  0  0  0
 16 26  2  0  0  0  0
 26 27  1  0  0  0  0
 15 28  1  0  0  0  0
 28 29  2  0  0  0  0
 29 30  1  0  0  0  0
 29 31  1  0  0  0  0
 31 32  2  0  0  0  0
 32 33  1  0  0  0  0
 33 34  2  0  0  0  0
 34 35  1  0  0  0  0
 35 36  1  0  0  0  0
 36 37  1  0  0  0  0
 37 38  1  0  0  0  0
 38 39  1  0  0  0  0
 37 40  2  0  0  0  0
 40 41  1  0  0  0  0
 40 42  1  0  0  0  0
 42 43  1  0  0  0  0
 34 44  1  0  0  0  0
 44 45  2  0  0  0  0
 45 46  1  0  0  0  0
 46 47  1  0  0  0  0
 47 48  1  0  0  0  0
 48 49  1  0  0  0  0
 49 50  1  0  0  0  0
 50 51  1  0  0  0  0
 49 52  2  0  0  0  0
 52 53  1  0  0  0  0
 53 54  1  0  0  0  0
 52 55  1  0  0  0  0
 46 56  2  0  0  0  0
 56 57  1  0  0  0  0
 45 58  1  0  0  0  0
 58 59  2  0  0  0  0
 59 60  1  0  0  0  0
 59 61  1  0  0  0  0
 61 62  2  0  0  0  0
 62 63  1  0  0  0  0
 63 64  2  0  0  0  0
 64 65  1  0  0  0  0
 65 66  1  0  0  0  0
 66 67  1  0  0  0  0
 67 68  1  0  0  0  0
 68 69  1  0  0  0  0
 67 70  2  0  0  0  0
 70 71  1  0  0  0  0
 70 72  1  0  0  0  0
 72 73  1  0  0  0  0
 64 74  1  0  0  0  0
 74 75  2  0  0  0  0
 75 76  1  0  0  0  0
 76 77  1  0  0  0  0
 77 78  1  0  0  0  0
 78 79  1  0  0  0  0
 79 80  1  0  0  0  0
 80 81  1  0  0  0  0
 79 82  2  0  0  0  0
 82 83  1  0  0  0  0
 83 84  1  0  0  0  0
 82 85  1  0  0  0  0
 76 86  2  0  0  0  0
 86 87  1  0  0  0  0
 75 88  1  0  0  0  0
 88 89  2  0  0  0  0
 89 90  1  0  0  0  0
 89 91  1  0  0  0  0
 91 92  2  0  0  0  0
 92 93  1  0  0  0  0
 93 94  2  0  0  0  0
 94 95  1  0  0  0  0
 95 96  1  0  0  0  0
 96 97  1  0  0  0  0
 97 98  1  0  0  0  0
 98 99  1  0  0  0  0
 97100  2  0  0  0  0
100101  1  0  0  0  0
100102  1  0  0  0  0
102103  1  0  0  0  0
 94104  1  0  0  0  0
104105  2  0  0  0  0
105106  1  0  0  0  0
106107  1  0  0  0  0
107108  1  0  0  0  0
108109  1  0  0  0  0
109110  1  0  0  0  0
110111  1  0  0  0  0
109112  2  0  0  0  0
112113  1  0  0  0  0
113114  1  0  0  0  0
112115  1  0  0  0  0
106116  2  0  0  0  0
116117  1  0  0  0  0
105118  1  0  0  0  0
118119  2  0  0  0  0
119120  1  0  0  0  0
119121  1  0  0  0  0
121122  2  0  0  0  0
122123  1  0  0  0  0
123124  2  0  0  0  0
124125  1  0  0  0  0
125126  2  0  0  0  0
126127  1  0  0  0  0
127128  2  0  0  0  0
128129  1  0  0  0  0
129130  2  0  0  0  0
124131  1  0  0  0  0
131132  2  0  0  0  0
132133  1  0  0  0  0
133134  2  0  0  0  0
134135  1  0  0  0  0
135136  2  0  0  0  0
136137  1  0  0  0  0
137138  1  0  0  0  0
138139  1  0  0  0  0
139140  1  0  0  0  0
140141  1  0  0  0  0
139142  2  0  0  0  0
142143  1  0  0  0  0
142144  1  0  0  0  0
144145  1  0  0  0  0
136146  1  0  0  0  0
146147  2  0  0  0  0
147148  1  0  0  0  0
148149  1  0  0  0  0
149150  1  0  0  0  0
150151  1  0  0  0  0
151152  1  0  0  0  0
152153  1  0  0  0  0
151154  2  0  0  0  0
154155  1  0  0  0  0
155156  1  0  0  0  0
154157  1  0  0  0  0
148158  2  0  0  0  0
158159  1  0  0  0  0
147160  1  0  0  0  0
160161  2  0  0  0  0
161162  1  0  0  0  0
 27  1  1  0  0  0  0
 57 31  1  0  0  0  0
 87 61  1  0  0  0  0
117 91  1  0  0  0  0
126121  1  0  0  0  0
159133  1  0  0  0  0
 26  3  1  0  0  0  0
 56 33  1  0  0  0  0
 86 63  1  0  0  0  0
116 93  1  0  0  0  0
130125  1  0  0  0  0
158135  1  0  0  0  0
 12  5  2  0  0  0  0
 30 14  1  0  0  0  0
 42 35  2  0  0  0  0
 60 44  1  0  0  0  0
 72 65  2  0  0  0  0
 90 74  1  0  0  0  0
102 95  2  0  0  0  0
120104  1  0  0  0  0
144137  2  0  0  0  0
162146  1  0  0  0  0
 23 17  2  0  0  0  0
 53 47  2  0  0  0  0
 83 77  2  0  0  0  0
113107  2  0  0  0  0
155149  2  0  0  0  0
  1163  1  0  0  0  0
  2164  1  0  0  0  0
  8165  1  0  0  0  0
  8166  1  0  0  0  0
  9167  1  0  0  0  0
  9168  1  0  0  0  0
  9169  1  0  0  0  0
 20170  1  0  0  0  0
 20171  1  0  0  0  0
 21172  1  0  0  0  0
 21173  1  0  0  0  0
 21174  1  0  0  0  0
 28175  1  0  0  0  0
 32176  1  0  0  0  0
 38177  1  0  0  0  0
 38178  1  0  0  0  0
 39179  1  0  0  0  0
 39180  1  0  0  0  0
 39181  1  0  0  0  0
 50182  1  0  0  0  0
 50183  1  0  0  0  0
 51184  1  0  0  0  0
 51185  1  0  0  0  0
 51186  1  0  0  0  0
 58187  1  0  0  0  0
 62188  1  0  0  0  0
 68189  1  0  0  0  0
 68190  1  0  0  0  0
 69191  1  0  0  0  0
 69192  1  0  0  0  0
 69193  1  0  0  0  0
 80194  1  0  0  0  0
 80195  1  0  0  0  0
 81196  1  0  0  0  0
 81197  1  0  0  0  0
 81198  1  0  0  0  0
 88199  1  0  0  0  0
 92200  1  0  0  0  0
 98201  1  0  0  0  0
 98202  1  0  0  0  0
 99203  1  0  0  0  0
 99204  1  0  0  0  0
 99205  1  0  0  0  0
110206  1  0  0  0  0
110207  1  0  0  0  0
111208  1  0  0  0  0
111209  1  0  0  0  0
111210  1  0  0  0  0
118211  1  0  0  0  0
122212  1  0  0  0  0
123213  1  0  0  0  0
127214  1  0  0  0  0
128215  1  0  0  0  0
129216  1  0  0  0  0
131217  1  0  0  0  0
132218  1  0  0  0  0
134219  1  0  0  0  0
140220  1  0  0  0  0
140221  1  0  0  0  0
141222  1  0  0  0  0
141223  1  0  0  0  0
141224  1  0  0  0  0
152225  1  0  0  0  0
152226  1  0  0  0  0
153227  1  0  0  0  0
153228  1  0  0  0  0
153229  1  0  0  0  0
160230  1  0  0  0  0
161231  1  0  0  0  0
M  END
