
  xtb     03012201223D
 energy: -385.347459707376 gnorm: 0.000526626717 xtb: 6.4.1 (unknown)
212238  0     0  0            999 V2000
  -11.4859    6.5053   -8.0147 C   0  0  0  0  0  0  0  0  0  0  0  0
  -10.7207    5.5663   -8.6069 C   0  0  0  0  0  0  0  0  0  0  0  0
   -9.6749    5.0922   -7.7621 C   0  0  0  0  0  0  0  0  0  0  0  0
   -8.6633    4.1695   -8.0688 C   0  0  0  0  0  0  0  0  0  0  0  0
   -8.6139    3.4888   -9.3536 C   0  0  0  0  0  0  0  0  0  0  0  0
   -9.9659    2.5591   -9.9309 S   0  0  0  0  0  0  0  0  0  0  0  0
   -9.1309    2.0909  -11.3726 C   0  0  0  0  0  0  0  0  0  0  0  0
   -9.7547    1.1731  -12.3652 C   0  0  0  0  0  0  0  0  0  0  0  0
   -9.5157   -0.2895  -11.9825 C   0  0  0  0  0  0  0  0  0  0  0  0
   -7.8782    2.6267  -11.3875 C   0  0  0  0  0  0  0  0  0  0  0  0
   -6.7514    2.3869  -12.6595 Cl  0  0  0  0  0  0  0  0  0  0  0  0
   -7.5823    3.4222  -10.2477 C   0  0  0  0  0  0  0  0  0  0  0  0
   -6.1019    4.2702  -10.0799 Cl  0  0  0  0  0  0  0  0  0  0  0  0
   -7.7106    3.9306   -7.0869 C   0  0  0  0  0  0  0  0  0  0  0  0
   -7.7344    4.5616   -5.8199 C   0  0  0  0  0  0  0  0  0  0  0  0
   -8.7589    5.4681   -5.5036 C   0  0  0  0  0  0  0  0  0  0  0  0
   -8.8356    6.1078   -4.1997 C   0  0  0  0  0  0  0  0  0  0  0  0
   -7.4951    6.9922   -3.5266 S   0  0  0  0  0  0  0  0  0  0  0  0
   -8.3802    7.4134   -2.1000 C   0  0  0  0  0  0  0  0  0  0  0  0
   -7.7593    8.1958   -0.9957 C   0  0  0  0  0  0  0  0  0  0  0  0
   -7.0411    7.2783   -0.0035 C   0  0  0  0  0  0  0  0  0  0  0  0
   -9.6330    6.8802   -2.1507 C   0  0  0  0  0  0  0  0  0  0  0  0
   -9.8963    6.1448   -3.3375 C   0  0  0  0  0  0  0  0  0  0  0  0
  -11.3770    5.3201   -3.5911 Cl  0  0  0  0  0  0  0  0  0  0  0  0
  -10.8027    7.0726   -0.9099 Cl  0  0  0  0  0  0  0  0  0  0  0  0
   -9.7011    5.7219   -6.4951 C   0  0  0  0  0  0  0  0  0  0  0  0
  -11.0022    6.8744   -6.3968 S   0  0  0  0  0  0  0  0  0  0  0  0
   -6.6656    4.1274   -4.9963 C   0  0  0  0  0  0  0  0  0  0  0  0
   -5.8487    3.2101   -5.5846 C   0  0  0  0  0  0  0  0  0  0  0  0
   -6.3868    2.8130   -7.2052 S   0  0  0  0  0  0  0  0  0  0  0  0
   -4.6390    2.6179   -5.0587 C   0  0  0  0  0  0  0  0  0  0  0  0
   -4.0218    1.5539   -5.7345 C   0  0  0  0  0  0  0  0  0  0  0  0
   -2.8271    1.0555   -5.2686 C   0  0  0  0  0  0  0  0  0  0  0  0
   -2.2545    1.5759   -4.0795 C   0  0  0  0  0  0  0  0  0  0  0  0
   -1.0191    0.8678   -3.8423 C   0  0  0  0  0  0  0  0  0  0  0  0
   -0.8816   -0.1029   -4.7732 C   0  0  0  0  0  0  0  0  0  0  0  0
   -1.9729   -0.0490   -5.7210 C   0  0  0  0  0  0  0  0  0  0  0  0
   -2.1207   -0.8463   -6.8216 C   0  0  0  0  0  0  0  0  0  0  0  0
   -2.9326   -0.5717   -7.9917 C   0  0  0  0  0  0  0  0  0  0  0  0
   -2.7396   -1.5252   -8.9265 C   0  0  0  0  0  0  0  0  0  0  0  0
   -1.8362   -2.5271   -8.3997 C   0  0  0  0  0  0  0  0  0  0  0  0
   -1.4437   -2.1173   -7.1035 C   0  0  0  0  0  0  0  0  0  0  0  0
   -0.6466   -2.9499   -6.3421 C   0  0  0  0  0  0  0  0  0  0  0  0
   -0.1998   -4.1470   -6.8946 C   0  0  0  0  0  0  0  0  0  0  0  0
   -0.5547   -4.5212   -8.1782 C   0  0  0  0  0  0  0  0  0  0  0  0
   -1.3907   -3.7147   -8.9425 C   0  0  0  0  0  0  0  0  0  0  0  0
   -2.8873    2.5920   -3.3660 C   0  0  0  0  0  0  0  0  0  0  0  0
   -4.0674    3.1144   -3.8900 C   0  0  0  0  0  0  0  0  0  0  0  0
   -2.3894    3.0837   -2.0768 C   0  0  0  0  0  0  0  0  0  0  0  0
   -2.4731    4.4445   -1.7502 C   0  0  0  0  0  0  0  0  0  0  0  0
   -2.0792    4.8597   -0.4986 C   0  0  0  0  0  0  0  0  0  0  0  0
   -1.4752    3.9479    0.4064 C   0  0  0  0  0  0  0  0  0  0  0  0
   -1.0904    4.6932    1.5804 C   0  0  0  0  0  0  0  0  0  0  0  0
   -1.4059    5.9961    1.4032 C   0  0  0  0  0  0  0  0  0  0  0  0
   -2.0631    6.1866    0.1291 C   0  0  0  0  0  0  0  0  0  0  0  0
   -2.6308    7.3424   -0.3323 C   0  0  0  0  0  0  0  0  0  0  0  0
   -3.6067    7.4581   -1.4004 C   0  0  0  0  0  0  0  0  0  0  0  0
   -4.0258    8.7346   -1.5173 C   0  0  0  0  0  0  0  0  0  0  0  0
   -3.3152    9.5528   -0.5587 C   0  0  0  0  0  0  0  0  0  0  0  0
   -2.4497    8.7072    0.1762 C   0  0  0  0  0  0  0  0  0  0  0  0
   -1.5858    9.2649    1.0989 C   0  0  0  0  0  0  0  0  0  0  0  0
   -1.6381   10.6364    1.3312 C   0  0  0  0  0  0  0  0  0  0  0  0
   -2.5198   11.4487    0.6409 C   0  0  0  0  0  0  0  0  0  0  0  0
   -3.3615   10.9121   -0.3265 C   0  0  0  0  0  0  0  0  0  0  0  0
   -1.3471    2.5995    0.0775 C   0  0  0  0  0  0  0  0  0  0  0  0
   -1.8644    2.1903   -1.1603 C   0  0  0  0  0  0  0  0  0  0  0  0
   -0.6601    1.6041    0.8743 C   0  0  0  0  0  0  0  0  0  0  0  0
   -0.7846    0.2535    0.7431 C   0  0  0  0  0  0  0  0  0  0  0  0
    0.1438   -0.4925    1.5076 C   0  0  0  0  0  0  0  0  0  0  0  0
    0.3377   -1.8840    1.5037 C   0  0  0  0  0  0  0  0  0  0  0  0
   -0.4263   -2.7420    0.6127 C   0  0  0  0  0  0  0  0  0  0  0  0
   -0.5013   -2.3966   -1.0936 S   0  0  0  0  0  0  0  0  0  0  0  0
   -1.4886   -3.7827   -1.4162 C   0  0  0  0  0  0  0  0  0  0  0  0
   -1.9680   -4.0756   -2.7954 C   0  0  0  0  0  0  0  0  0  0  0  0
   -2.8139   -2.9301   -3.3519 C   0  0  0  0  0  0  0  0  0  0  0  0
   -1.7339   -4.4612   -0.2609 C   0  0  0  0  0  0  0  0  0  0  0  0
   -2.6810   -5.8902   -0.1677 Cl  0  0  0  0  0  0  0  0  0  0  0  0
   -1.1311   -3.8788    0.8887 C   0  0  0  0  0  0  0  0  0  0  0  0
   -1.3605   -4.5153    2.4634 Cl  0  0  0  0  0  0  0  0  0  0  0  0
    1.3408   -2.3764    2.3267 C   0  0  0  0  0  0  0  0  0  0  0  0
    2.1547   -1.5443    3.1360 C   0  0  0  0  0  0  0  0  0  0  0  0
    1.9863   -0.1499    3.1037 C   0  0  0  0  0  0  0  0  0  0  0  0
    2.8730    0.7559    3.8167 C   0  0  0  0  0  0  0  0  0  0  0  0
    2.2416    2.0116    4.8398 S   0  0  0  0  0  0  0  0  0  0  0  0
    3.8168    2.6493    5.1646 C   0  0  0  0  0  0  0  0  0  0  0  0
    3.9923    3.8677    6.0016 C   0  0  0  0  0  0  0  0  0  0  0  0
    3.6419    5.1284    5.2086 C   0  0  0  0  0  0  0  0  0  0  0  0
    4.7654    1.9246    4.5076 C   0  0  0  0  0  0  0  0  0  0  0  0
    4.2361    0.8434    3.7521 C   0  0  0  0  0  0  0  0  0  0  0  0
    5.2258   -0.1801    2.7916 Cl  0  0  0  0  0  0  0  0  0  0  0  0
    6.4425    2.2798    4.5591 Cl  0  0  0  0  0  0  0  0  0  0  0  0
    0.9696    0.3417    2.2943 C   0  0  0  0  0  0  0  0  0  0  0  0
    0.5955    2.0201    2.0248 S   0  0  0  0  0  0  0  0  0  0  0  0
    3.1098   -2.2949    3.8676 C   0  0  0  0  0  0  0  0  0  0  0  0
    3.0834   -3.6309    3.6026 C   0  0  0  0  0  0  0  0  0  0  0  0
    1.8254   -4.0379    2.4508 S   0  0  0  0  0  0  0  0  0  0  0  0
    3.9587   -4.6707    4.0957 C   0  0  0  0  0  0  0  0  0  0  0  0
    3.6522   -6.0214    3.8603 C   0  0  0  0  0  0  0  0  0  0  0  0
    4.5391   -6.9972    4.2496 C   0  0  0  0  0  0  0  0  0  0  0  0
    5.7205   -6.6499    4.9539 C   0  0  0  0  0  0  0  0  0  0  0  0
    6.3864   -7.8716    5.3279 C   0  0  0  0  0  0  0  0  0  0  0  0
    5.6485   -8.9230    4.9035 C   0  0  0  0  0  0  0  0  0  0  0  0
    4.4881   -8.4616    4.1736 C   0  0  0  0  0  0  0  0  0  0  0  0
    3.5992   -9.2380    3.4834 C   0  0  0  0  0  0  0  0  0  0  0  0
    2.7126   -8.7931    2.4239 C   0  0  0  0  0  0  0  0  0  0  0  0
    2.0845   -9.8497    1.8683 C   0  0  0  0  0  0  0  0  0  0  0  0
    2.4704  -11.0538    2.5747 C   0  0  0  0  0  0  0  0  0  0  0  0
    3.4043  -10.6894    3.5738 C   0  0  0  0  0  0  0  0  0  0  0  0
    3.8626  -11.6496    4.4546 C   0  0  0  0  0  0  0  0  0  0  0  0
    3.4457  -12.9681    4.2921 C   0  0  0  0  0  0  0  0  0  0  0  0
    2.5678  -13.3239    3.2842 C   0  0  0  0  0  0  0  0  0  0  0  0
    2.0580  -12.3610    2.4200 C   0  0  0  0  0  0  0  0  0  0  0  0
    6.0265   -5.3159    5.2094 C   0  0  0  0  0  0  0  0  0  0  0  0
    5.1364   -4.3392    4.7567 C   0  0  0  0  0  0  0  0  0  0  0  0
    7.2277   -4.8672    5.8872 C   0  0  0  0  0  0  0  0  0  0  0  0
    7.3184   -3.7844    6.7032 C   0  0  0  0  0  0  0  0  0  0  0  0
    8.6443   -3.4746    7.1000 C   0  0  0  0  0  0  0  0  0  0  0  0
    9.0893   -2.3773    7.8535 C   0  0  0  0  0  0  0  0  0  0  0  0
    8.1572   -1.3618    8.3130 C   0  0  0  0  0  0  0  0  0  0  0  0
    8.1286   -0.8577    9.9778 S   0  0  0  0  0  0  0  0  0  0  0  0
    6.8163    0.2362    9.7078 C   0  0  0  0  0  0  0  0  0  0  0  0
    6.2886    1.0962   10.8024 C   0  0  0  0  0  0  0  0  0  0  0  0
    7.1323    2.3649   10.9497 C   0  0  0  0  0  0  0  0  0  0  0  0
    6.4416    0.2110    8.3980 C   0  0  0  0  0  0  0  0  0  0  0  0
    5.1602    1.1524    7.7503 Cl  0  0  0  0  0  0  0  0  0  0  0  0
    7.1975   -0.6915    7.6032 C   0  0  0  0  0  0  0  0  0  0  0  0
    6.9610   -0.8224    5.9083 Cl  0  0  0  0  0  0  0  0  0  0  0  0
   10.4529   -2.3096    8.1179 C   0  0  0  0  0  0  0  0  0  0  0  0
   11.3787   -3.2642    7.6362 C   0  0  0  0  0  0  0  0  0  0  0  0
   10.9354   -4.3459    6.8597 C   0  0  0  0  0  0  0  0  0  0  0  0
   11.8567   -5.3342    6.3205 C   0  0  0  0  0  0  0  0  0  0  0  0
   13.2024   -4.8678    5.3222 S   0  0  0  0  0  0  0  0  0  0  0  0
   13.6893   -6.5097    5.0723 C   0  0  0  0  0  0  0  0  0  0  0  0
   14.9005   -6.8442    4.2737 C   0  0  0  0  0  0  0  0  0  0  0  0
   16.1662   -6.7471    5.1287 C   0  0  0  0  0  0  0  0  0  0  0  0
   12.8575   -7.3561    5.7420 C   0  0  0  0  0  0  0  0  0  0  0  0
   11.8135   -6.6947    6.4431 C   0  0  0  0  0  0  0  0  0  0  0  0
   10.6758   -7.5400    7.4056 Cl  0  0  0  0  0  0  0  0  0  0  0  0
   13.0299   -9.0636    5.7453 Cl  0  0  0  0  0  0  0  0  0  0  0  0
    9.5721   -4.4212    6.6031 C   0  0  0  0  0  0  0  0  0  0  0  0
    8.7846   -5.6138    5.6115 S   0  0  0  0  0  0  0  0  0  0  0  0
   12.7101   -2.9578    8.0456 C   0  0  0  0  0  0  0  0  0  0  0  0
   12.7858   -1.8268    8.7750 C   0  0  0  0  0  0  0  0  0  0  0  0
   11.2564   -1.0568    9.0224 S   0  0  0  0  0  0  0  0  0  0  0  0
  -12.3291    7.0241   -8.4270 H   0  0  0  0  0  0  0  0  0  0  0  0
  -10.8734    5.2187   -9.6120 H   0  0  0  0  0  0  0  0  0  0  0  0
   -9.3183    1.3697  -13.3464 H   0  0  0  0  0  0  0  0  0  0  0  0
  -10.8278    1.3656  -12.4133 H   0  0  0  0  0  0  0  0  0  0  0  0
   -9.9491   -0.5003  -11.0077 H   0  0  0  0  0  0  0  0  0  0  0  0
   -9.9719   -0.9470  -12.7175 H   0  0  0  0  0  0  0  0  0  0  0  0
   -8.4496   -0.4982  -11.9414 H   0  0  0  0  0  0  0  0  0  0  0  0
   -7.0453    8.9089   -1.4092 H   0  0  0  0  0  0  0  0  0  0  0  0
   -8.5449    8.7485   -0.4771 H   0  0  0  0  0  0  0  0  0  0  0  0
   -6.2539    6.7201   -0.5038 H   0  0  0  0  0  0  0  0  0  0  0  0
   -7.7438    6.5757    0.4370 H   0  0  0  0  0  0  0  0  0  0  0  0
   -6.5913    7.8687    0.7902 H   0  0  0  0  0  0  0  0  0  0  0  0
   -6.5299    4.4882   -3.9943 H   0  0  0  0  0  0  0  0  0  0  0  0
   -4.5128    1.1491   -6.6043 H   0  0  0  0  0  0  0  0  0  0  0  0
   -0.3112    1.1036   -3.0692 H   0  0  0  0  0  0  0  0  0  0  0  0
   -0.0317   -0.7498   -4.8690 H   0  0  0  0  0  0  0  0  0  0  0  0
   -3.5194    0.3159   -8.1250 H   0  0  0  0  0  0  0  0  0  0  0  0
   -3.1731   -1.5585   -9.9097 H   0  0  0  0  0  0  0  0  0  0  0  0
   -0.3727   -2.7054   -5.3287 H   0  0  0  0  0  0  0  0  0  0  0  0
    0.4338   -4.7953   -6.3070 H   0  0  0  0  0  0  0  0  0  0  0  0
   -0.1917   -5.4538   -8.5844 H   0  0  0  0  0  0  0  0  0  0  0  0
   -1.6920   -4.0169   -9.9348 H   0  0  0  0  0  0  0  0  0  0  0  0
   -4.5635    3.9088   -3.3558 H   0  0  0  0  0  0  0  0  0  0  0  0
   -2.8102    5.1388   -2.5015 H   0  0  0  0  0  0  0  0  0  0  0  0
   -0.6416    4.2675    2.4586 H   0  0  0  0  0  0  0  0  0  0  0  0
   -1.2813    6.7648    2.1400 H   0  0  0  0  0  0  0  0  0  0  0  0
   -3.9987    6.6305   -1.9580 H   0  0  0  0  0  0  0  0  0  0  0  0
   -4.7592    9.1061   -2.2103 H   0  0  0  0  0  0  0  0  0  0  0  0
   -0.8581    8.6733    1.6302 H   0  0  0  0  0  0  0  0  0  0  0  0
   -0.9723   11.0723    2.0615 H   0  0  0  0  0  0  0  0  0  0  0  0
   -2.5419   12.5095    0.8426 H   0  0  0  0  0  0  0  0  0  0  0  0
   -4.0286   11.5472   -0.8910 H   0  0  0  0  0  0  0  0  0  0  0  0
   -1.8351    1.1460   -1.4222 H   0  0  0  0  0  0  0  0  0  0  0  0
   -1.5292   -0.2157    0.1282 H   0  0  0  0  0  0  0  0  0  0  0  0
   -1.1097   -4.2397   -3.4521 H   0  0  0  0  0  0  0  0  0  0  0  0
   -2.5546   -4.9952   -2.7679 H   0  0  0  0  0  0  0  0  0  0  0  0
   -3.1308   -3.1571   -4.3664 H   0  0  0  0  0  0  0  0  0  0  0  0
   -2.2391   -2.0063   -3.3687 H   0  0  0  0  0  0  0  0  0  0  0  0
   -3.6969   -2.7771   -2.7362 H   0  0  0  0  0  0  0  0  0  0  0  0
    3.3471    3.8008    6.8802 H   0  0  0  0  0  0  0  0  0  0  0  0
    5.0304    3.9173    6.3344 H   0  0  0  0  0  0  0  0  0  0  0  0
    2.6099    5.0841    4.8685 H   0  0  0  0  0  0  0  0  0  0  0  0
    3.7685    6.0091    5.8326 H   0  0  0  0  0  0  0  0  0  0  0  0
    4.2897    5.2197    4.3403 H   0  0  0  0  0  0  0  0  0  0  0  0
    3.7791   -1.8412    4.5745 H   0  0  0  0  0  0  0  0  0  0  0  0
    2.7125   -6.2588    3.3883 H   0  0  0  0  0  0  0  0  0  0  0  0
    7.3186   -7.9236    5.8593 H   0  0  0  0  0  0  0  0  0  0  0  0
    5.9285   -9.9533    5.0024 H   0  0  0  0  0  0  0  0  0  0  0  0
    2.6506   -7.7814    2.0740 H   0  0  0  0  0  0  0  0  0  0  0  0
    1.4038   -9.8280    1.0364 H   0  0  0  0  0  0  0  0  0  0  0  0
    4.5175  -11.4048    5.2754 H   0  0  0  0  0  0  0  0  0  0  0  0
    3.8128  -13.7240    4.9709 H   0  0  0  0  0  0  0  0  0  0  0  0
    2.2625  -14.3546    3.1782 H   0  0  0  0  0  0  0  0  0  0  0  0
    1.3483  -12.6301    1.6513 H   0  0  0  0  0  0  0  0  0  0  0  0
    5.3920   -3.3021    4.9013 H   0  0  0  0  0  0  0  0  0  0  0  0
    6.4577   -3.2368    7.0383 H   0  0  0  0  0  0  0  0  0  0  0  0
    5.2569    1.3664   10.5696 H   0  0  0  0  0  0  0  0  0  0  0  0
    6.3029    0.5397   11.7409 H   0  0  0  0  0  0  0  0  0  0  0  0
    7.1174    2.9364   10.0251 H   0  0  0  0  0  0  0  0  0  0  0  0
    6.7377    2.9852   11.7499 H   0  0  0  0  0  0  0  0  0  0  0  0
    8.1627    2.1068   11.1821 H   0  0  0  0  0  0  0  0  0  0  0  0
   14.7953   -7.8606    3.8901 H   0  0  0  0  0  0  0  0  0  0  0  0
   14.9796   -6.1575    3.4291 H   0  0  0  0  0  0  0  0  0  0  0  0
   17.0391   -6.9997    4.5331 H   0  0  0  0  0  0  0  0  0  0  0  0
   16.2856   -5.7366    5.5124 H   0  0  0  0  0  0  0  0  0  0  0  0
   16.1067   -7.4343    5.9690 H   0  0  0  0  0  0  0  0  0  0  0  0
   13.5599   -3.5674    7.7997 H   0  0  0  0  0  0  0  0  0  0  0  0
   13.6598   -1.3756    9.2023 H   0  0  0  0  0  0  0  0  0  0  0  0
  1  2  2  0  0  0  0
  2  3  1  0  0  0  0
  3  4  2  0  0  0  0
  4  5  1  0  0  0  0
  5  6  1  0  0  0  0
  6  7  1  0  0  0  0
  7  8  1  0  0  0  0
  8  9  1  0  0  0  0
  7 10  2  0  0  0  0
 10 11  1  0  0  0  0
 10 12  1  0  0  0  0
 12 13  1  0  0  0  0
  4 14  1  0  0  0  0
 14 15  2  0  0  0  0
 15 16  1  0  0  0  0
 16 17  1  0  0  0  0
 17 18  1  0  0  0  0
 18 19  1  0  0  0  0
 19 20  1  0  0  0  0
 20 21  1  0  0  0  0
 19 22  2  0  0  0  0
 22 23  1  0  0  0  0
 23 24  1  0  0  0  0
 22 25  1  0  0  0  0
 16 26  2  0  0  0  0
 26 27  1  0  0  0  0
 15 28  1  0  0  0  0
 28 29  2  0  0  0  0
 29 30  1  0  0  0  0
 29 31  1  0  0  0  0
 31 32  2  0  0  0  0
 32 33  1  0  0  0  0
 33 34  2  0  0  0  0
 34 35  1  0  0  0  0
 35 36  2  0  0  0  0
 36 37  1  0  0  0  0
 37 38  2  0  0  0  0
 38 39  1  0  0  0  0
 39 40  2  0  0  0  0
 40 41  1  0  0  0  0
 41 42  2  0  0  0  0
 42 43  1  0  0  0  0
 43 44  2  0  0  0  0
 44 45  1  0  0  0  0
 45 46  2  0  0  0  0
 34 47  1  0  0  0  0
 47 48  2  0  0  0  0
 47 49  1  0  0  0  0
 49 50  2  0  0  0  0
 50 51  1  0  0  0  0
 51 52  2  0  0  0  0
 52 53  1  0  0  0  0
 53 54  2  0  0  0  0
 54 55  1  0  0  0  0
 55 56  2  0  0  0  0
 56 57  1  0  0  0  0
 57 58  2  0  0  0  0
 58 59  1  0  0  0  0
 59 60  2  0  0  0  0
 60 61  1  0  0  0  0
 61 62  2  0  0  0  0
 62 63  1  0  0  0  0
 63 64  2  0  0  0  0
 52 65  1  0  0  0  0
 65 66  2  0  0  0  0
 65 67  1  0  0  0  0
 67 68  2  0  0  0  0
 68 69  1  0  0  0  0
 69 70  2  0  0  0  0
 70 71  1  0  0  0  0
 71 72  1  0  0  0  0
 72 73  1  0  0  0  0
 73 74  1  0  0  0  0
 74 75  1  0  0  0  0
 73 76  2  0  0  0  0
 76 77  1  0  0  0  0
 76 78  1  0  0  0  0
 78 79  1  0  0  0  0
 70 80  1  0  0  0  0
 80 81  2  0  0  0  0
 81 82  1  0  0  0  0
 82 83  1  0  0  0  0
 83 84  1  0  0  0  0
 84 85  1  0  0  0  0
 85 86  1  0  0  0  0
 86 87  1  0  0  0  0
 85 88  2  0  0  0  0
 88 89  1  0  0  0  0
 89 90  1  0  0  0  0
 88 91  1  0  0  0  0
 82 92  2  0  0  0  0
 92 93  1  0  0  0  0
 81 94  1  0  0  0  0
 94 95  2  0  0  0  0
 95 96  1  0  0  0  0
 95 97  1  0  0  0  0
 97 98  2  0  0  0  0
 98 99  1  0  0  0  0
 99100  2  0  0  0  0
100101  1  0  0  0  0
101102  2  0  0  0  0
102103  1  0  0  0  0
103104  2  0  0  0  0
104105  1  0  0  0  0
105106  2  0  0  0  0
106107  1  0  0  0  0
107108  2  0  0  0  0
108109  1  0  0  0  0
109110  2  0  0  0  0
110111  1  0  0  0  0
111112  2  0  0  0  0
100113  1  0  0  0  0
113114  2  0  0  0  0
113115  1  0  0  0  0
115116  2  0  0  0  0
116117  1  0  0  0  0
117118  2  0  0  0  0
118119  1  0  0  0  0
119120  1  0  0  0  0
120121  1  0  0  0  0
121122  1  0  0  0  0
122123  1  0  0  0  0
121124  2  0  0  0  0
124125  1  0  0  0  0
124126  1  0  0  0  0
126127  1  0  0  0  0
118128  1  0  0  0  0
128129  2  0  0  0  0
129130  1  0  0  0  0
130131  1  0  0  0  0
131132  1  0  0  0  0
132133  1  0  0  0  0
133134  1  0  0  0  0
134135  1  0  0  0  0
133136  2  0  0  0  0
136137  1  0  0  0  0
137138  1  0  0  0  0
136139  1  0  0  0  0
130140  2  0  0  0  0
140141  1  0  0  0  0
129142  1  0  0  0  0
142143  2  0  0  0  0
143144  1  0  0  0  0
 27  1  1  0  0  0  0
 48 31  1  0  0  0  0
 66 49  1  0  0  0  0
 93 67  1  0  0  0  0
114 97  1  0  0  0  0
141115  1  0  0  0  0
 26  3  1  0  0  0  0
 37 33  1  0  0  0  0
 42 38  1  0  0  0  0
 55 51  1  0  0  0  0
 60 56  1  0  0  0  0
 92 69  1  0  0  0  0
103 99  1  0  0  0  0
108104  1  0  0  0  0
140117  1  0  0  0  0
 12  5  2  0  0  0  0
 30 14  1  0  0  0  0
 46 41  1  0  0  0  0
 64 59  1  0  0  0  0
 78 71  2  0  0  0  0
 96 80  1  0  0  0  0
112107  1  0  0  0  0
126119  2  0  0  0  0
144128  1  0  0  0  0
 23 17  2  0  0  0  0
 89 83  2  0  0  0  0
137131  2  0  0  0  0
  1145  1  0  0  0  0
  2146  1  0  0  0  0
  8147  1  0  0  0  0
  8148  1  0  0  0  0
  9149  1  0  0  0  0
  9150  1  0  0  0  0
  9151  1  0  0  0  0
 20152  1  0  0  0  0
 20153  1  0  0  0  0
 21154  1  0  0  0  0
 21155  1  0  0  0  0
 21156  1  0  0  0  0
 28157  1  0  0  0  0
 32158  1  0  0  0  0
 35159  1  0  0  0  0
 36160  1  0  0  0  0
 39161  1  0  0  0  0
 40162  1  0  0  0  0
 43163  1  0  0  0  0
 44164  1  0  0  0  0
 45165  1  0  0  0  0
 46166  1  0  0  0  0
 48167  1  0  0  0  0
 50168  1  0  0  0  0
 53169  1  0  0  0  0
 54170  1  0  0  0  0
 57171  1  0  0  0  0
 58172  1  0  0  0  0
 61173  1  0  0  0  0
 62174  1  0  0  0  0
 63175  1  0  0  0  0
 64176  1  0  0  0  0
 66177  1  0  0  0  0
 68178  1  0  0  0  0
 74179  1  0  0  0  0
 74180  1  0  0  0  0
 75181  1  0  0  0  0
 75182  1  0  0  0  0
 75183  1  0  0  0  0
 86184  1  0  0  0  0
 86185  1  0  0  0  0
 87186  1  0  0  0  0
 87187  1  0  0  0  0
 87188  1  0  0  0  0
 94189  1  0  0  0  0
 98190  1  0  0  0  0
101191  1  0  0  0  0
102192  1  0  0  0  0
105193  1  0  0  0  0
106194  1  0  0  0  0
109195  1  0  0  0  0
110196  1  0  0  0  0
111197  1  0  0  0  0
112198  1  0  0  0  0
114199  1  0  0  0  0
116200  1  0  0  0  0
122201  1  0  0  0  0
122202  1  0  0  0  0
123203  1  0  0  0  0
123204  1  0  0  0  0
123205  1  0  0  0  0
134206  1  0  0  0  0
134207  1  0  0  0  0
135208  1  0  0  0  0
135209  1  0  0  0  0
135210  1  0  0  0  0
142211  1  0  0  0  0
143212  1  0  0  0  0
M  END
