198

C         -0.17430       -3.74430       13.12010
C          0.27620       -4.46880       12.07610
C          0.24630       -3.74600       10.84780
C          0.67190       -4.16990        9.58020
C          1.30550       -5.46360        9.38070
S          0.74010       -6.57840        8.17390
C          1.97600       -7.73000        8.54840
C          2.10430       -8.99690        7.77750
C          2.82420       -8.75260        6.44900
C          2.77800       -7.25900        9.54480
Cl         4.12320       -8.11520       10.17950
C          2.39820       -5.97610       10.02290
Cl         3.28940       -5.13740       11.22680
C          0.50240       -3.28070        8.52680
C         -0.03020       -1.98110        8.69900
C         -0.44990       -1.55050        9.96910
C         -1.01780       -0.22490       10.15570
S         -0.19210        1.20190        9.59600
C         -1.45900        2.24910       10.13680
C         -1.41530        3.71420        9.87630
C         -1.99640        4.03450        8.49640
C         -2.45640        1.52190       10.71320
C         -2.20920        0.12210       10.73010
Cl        -3.35960       -0.99870       11.32610
Cl        -3.88850        2.21040       11.36040
C         -0.29750       -2.44890       11.01890
S         -0.68290       -2.14930       12.68920
C         -0.06150       -1.26220        7.47880
C          0.43690       -1.96240        6.42190
S          0.95160       -3.57170        6.86960
C          0.58550       -1.45870        5.09040
C          0.75370       -0.14630        4.76400
C          0.85310        0.07920        3.37040
C          1.06210        1.29660        2.69980
C          1.31620        2.52540        3.43610
S          0.26530        3.08680        4.70630
C          1.25920        4.46210        5.04030
C          0.93310        5.40080        6.14830
C          1.57380        4.93470        7.45830
C          2.34560        4.46650        4.21870
Cl         3.56910        5.66870        4.26210
C          2.38210        3.37390        3.31040
Cl         3.70200        3.12120        2.24740
C          1.07260        1.24850        1.31160
C          0.95890        0.04690        0.56640
C          0.83100       -1.17900        1.24520
C          0.82350       -2.46880        0.57060
S          1.94320       -3.71720        1.03970
C          1.33230       -4.82740       -0.13490
C          1.92210       -6.18370       -0.30650
C          2.94980       -6.20570       -1.44010
C          0.32290       -4.25230       -0.84720
C          0.02320       -2.92650       -0.43610
Cl        -1.29510       -2.05550       -1.07050
Cl        -0.50370       -5.02610       -2.13920
C          0.76650       -1.12480        2.63370
S          0.56480       -2.49800        3.68700
C          1.09370        0.28880       -0.83000
C          1.26430        1.59810       -1.15650
S          1.24650        2.62400        0.26740
C          1.69460        2.15540       -2.43800
C          2.72100        1.48240       -3.10820
F          3.20470        0.33230       -2.59080
C          3.32490        1.95450       -4.25410
C          2.92180        3.17890       -4.75670
C          1.90370        3.86800       -4.13310
C          1.24630        3.36570       -3.00770
C          0.14710        4.13250       -2.43380
C         -0.76060        4.89790       -3.06020
C         -1.01050        5.08280       -4.48520
C         -0.77150        4.08840       -5.43900
F         -0.46220        2.83590       -5.03590
C         -0.88740        4.29840       -6.79750
C         -1.27510        5.54630       -7.25160
C         -1.63220        6.52080       -6.33790
C         -1.55930        6.29030       -4.96830
C         -2.19360        7.29710       -4.08590
C         -3.35700        7.05420       -3.47560
C         -3.91350        5.71230       -3.57380
C         -4.06780        4.98220       -4.70620
C         -3.97830        3.57960       -4.49580
C         -3.84850        2.58420       -5.48430
C         -4.25430        2.85390       -6.84540
S         -3.30960        2.35770       -8.21790
C         -4.41710        3.06710       -9.34150
C         -4.20350        2.95290      -10.81020
C         -4.69800        1.60030      -11.32840
C         -5.46540        3.63370       -8.67930
Cl        -6.77630        4.42200       -9.45800
C         -5.37600        3.52050       -7.26770
Cl        -6.61510        4.09290       -6.22820
C         -3.22260        1.40720       -5.08480
C         -2.84680        1.17480       -3.74230
C         -3.23280        2.05880       -2.71870
C         -3.02190        1.71460       -1.32950
S         -2.36150        2.83100       -0.17500
C         -2.46700        1.68400        1.11220
C         -2.12750        2.07100        2.50640
C         -3.37130        2.54790        3.25950
C         -2.98210        0.50490        0.66180
C         -3.30990        0.52130       -0.71880
Cl        -4.11510       -0.77730       -1.49670
Cl        -3.20010       -0.87170        1.66120
C         -3.73880        3.27980       -3.13600
S         -3.90490        4.69790       -2.13540
C         -1.97130        0.07180       -3.62110
C         -1.75080       -0.58070       -4.79210
S         -2.64720        0.12890       -6.12120
C         -0.84150       -1.66800       -4.99280
C         -0.91390       -2.71110       -5.86090
C          0.17950       -3.61170       -5.75170
C          0.41380       -4.78880       -6.48030
C         -0.52640       -5.26350       -7.48180
S         -2.20530       -5.51080       -7.10120
C         -2.56740       -6.07020       -8.69850
C         -3.95770       -6.42750       -9.09310
C         -4.76920       -5.17350       -9.42750
C         -1.44550       -6.05020       -9.47140
Cl        -1.41020       -6.52330      -11.12040
C         -0.28550       -5.60100       -8.78440
Cl         1.23170       -5.42590       -9.56150
C          1.57560       -5.49370       -6.18400
C          2.53080       -5.04670       -5.24060
C          2.32690       -3.83840       -4.55590
C          3.33180       -3.28370       -3.66590
S          2.92380       -2.70170       -2.08390
C          4.53960       -2.19850       -1.75460
C          4.90630       -1.59550       -0.44450
C          5.51190       -2.63760        0.49800
C          5.34300       -2.46850       -2.82220
C          4.66350       -3.07900       -3.90920
Cl         5.44000       -3.42820       -5.40010
Cl         7.01760       -2.09730       -2.87240
C          1.12640       -3.17850       -4.79290
S          0.61250       -1.71130       -4.01760
C          3.59050       -5.98730       -5.08050
C          3.44490       -7.07640       -5.86180
S          2.02450       -7.03940       -6.84680
H         -0.25400       -4.04640       14.14610
H          0.61270       -5.48570       12.15640
H          2.66790       -9.71540        8.37510
H          1.11150       -9.40560        7.58150
H          2.27020       -8.03680        5.84640
H          2.91210       -9.68360        5.89560
H          3.82120       -8.35780        6.62780
H         -0.38280        4.06250        9.92880
H         -1.99810        4.22490       10.64470
H         -3.03200        3.70920        8.44120
H         -1.95890        5.10550        8.31670
H         -1.43180        3.52590        7.71800
H         -0.45760       -0.26910        7.38070
H          0.82380        0.62980        5.50240
H          1.31000        6.39250        5.89150
H         -0.14970        5.45710        6.26870
H          2.65530        4.90250        7.35550
H          1.32140        5.62170        8.26130
H          1.22180        3.93980        7.72150
H          1.11950       -6.88790       -0.53710
H          2.39750       -6.48920        0.62670
H          3.76310       -5.51570       -1.22900
H          2.48090       -5.91510       -2.37630
H          3.35900       -7.20620       -1.55180
H          1.08450       -0.49980       -1.55960
H          4.11260        1.37750       -4.71140
H          3.40420        3.59210       -5.62890
H          1.60290        4.83110       -4.51720
H          0.08320        4.10980       -1.35460
H         -1.40020        5.49280       -2.42340
H         -0.68020        3.48510       -7.47400
H         -1.34350        5.74000       -8.31060
H         -2.01660        7.46890       -6.68470
H         -1.72940        8.27140       -4.02260
H         -3.82590        7.78090       -2.82900
H         -4.11880        5.42580       -5.68370
H         -4.74750        3.75780      -11.30750
H         -3.14000        3.05800      -11.03170
H         -4.53460        1.52850      -12.40020
H         -4.16300        0.79140      -10.83680
H         -5.76050        1.48640      -11.12920
H         -1.69860        1.21260        3.02640
H         -1.39280        2.87560        2.48100
H         -3.81130        3.40580        2.75700
H         -3.09940        2.83390        4.27190
H         -4.11170        1.75380        3.30600
H         -1.48260       -0.19040       -2.70270
H         -1.73290       -2.84110       -6.54480
H         -4.44160       -6.96470       -8.27530
H         -3.91580       -7.08150       -9.96570
H         -4.82040       -4.51590       -8.56290
H         -5.77950       -5.44870       -9.71740
H         -4.30570       -4.63290      -10.24890
H          5.63050       -0.79690       -0.61750
H          4.01350       -1.16230        0.00860
H          6.40730       -3.06880        0.05770
H          4.79660       -3.43280        0.69310
H          5.77760       -2.17270        1.44330
H          4.40410       -5.85200       -4.39230
H          4.09290       -7.92820       -5.93100
