
  xtb     03012219113D
 energy: -387.775120288223 gnorm: 0.000271459145 xtb: 6.4.1 (unknown)
198219  0     0  0            999 V2000
   -0.1743   -3.7443   13.1201 C   0  0  0  0  0  0  0  0  0  0  0  0
    0.2762   -4.4688   12.0761 C   0  0  0  0  0  0  0  0  0  0  0  0
    0.2463   -3.7460   10.8478 C   0  0  0  0  0  0  0  0  0  0  0  0
    0.6719   -4.1699    9.5802 C   0  0  0  0  0  0  0  0  0  0  0  0
    1.3055   -5.4636    9.3807 C   0  0  0  0  0  0  0  0  0  0  0  0
    0.7401   -6.5784    8.1739 S   0  0  0  0  0  0  0  0  0  0  0  0
    1.9760   -7.7300    8.5484 C   0  0  0  0  0  0  0  0  0  0  0  0
    2.1043   -8.9969    7.7775 C   0  0  0  0  0  0  0  0  0  0  0  0
    2.8242   -8.7526    6.4490 C   0  0  0  0  0  0  0  0  0  0  0  0
    2.7780   -7.2590    9.5448 C   0  0  0  0  0  0  0  0  0  0  0  0
    4.1232   -8.1152   10.1795 Cl  0  0  0  0  0  0  0  0  0  0  0  0
    2.3982   -5.9761   10.0229 C   0  0  0  0  0  0  0  0  0  0  0  0
    3.2894   -5.1374   11.2268 Cl  0  0  0  0  0  0  0  0  0  0  0  0
    0.5024   -3.2807    8.5268 C   0  0  0  0  0  0  0  0  0  0  0  0
   -0.0302   -1.9811    8.6990 C   0  0  0  0  0  0  0  0  0  0  0  0
   -0.4499   -1.5505    9.9691 C   0  0  0  0  0  0  0  0  0  0  0  0
   -1.0178   -0.2249   10.1557 C   0  0  0  0  0  0  0  0  0  0  0  0
   -0.1921    1.2019    9.5960 S   0  0  0  0  0  0  0  0  0  0  0  0
   -1.4590    2.2491   10.1368 C   0  0  0  0  0  0  0  0  0  0  0  0
   -1.4153    3.7142    9.8763 C   0  0  0  0  0  0  0  0  0  0  0  0
   -1.9964    4.0345    8.4964 C   0  0  0  0  0  0  0  0  0  0  0  0
   -2.4564    1.5219   10.7132 C   0  0  0  0  0  0  0  0  0  0  0  0
   -2.2092    0.1221   10.7301 C   0  0  0  0  0  0  0  0  0  0  0  0
   -3.3596   -0.9987   11.3261 Cl  0  0  0  0  0  0  0  0  0  0  0  0
   -3.8885    2.2104   11.3604 Cl  0  0  0  0  0  0  0  0  0  0  0  0
   -0.2975   -2.4489   11.0189 C   0  0  0  0  0  0  0  0  0  0  0  0
   -0.6829   -2.1493   12.6892 S   0  0  0  0  0  0  0  0  0  0  0  0
   -0.0615   -1.2622    7.4788 C   0  0  0  0  0  0  0  0  0  0  0  0
    0.4369   -1.9624    6.4219 C   0  0  0  0  0  0  0  0  0  0  0  0
    0.9516   -3.5717    6.8696 S   0  0  0  0  0  0  0  0  0  0  0  0
    0.5855   -1.4587    5.0904 C   0  0  0  0  0  0  0  0  0  0  0  0
    0.7537   -0.1463    4.7640 C   0  0  0  0  0  0  0  0  0  0  0  0
    0.8531    0.0792    3.3704 C   0  0  0  0  0  0  0  0  0  0  0  0
    1.0621    1.2966    2.6998 C   0  0  0  0  0  0  0  0  0  0  0  0
    1.3162    2.5254    3.4361 C   0  0  0  0  0  0  0  0  0  0  0  0
    0.2653    3.0868    4.7063 S   0  0  0  0  0  0  0  0  0  0  0  0
    1.2592    4.4621    5.0403 C   0  0  0  0  0  0  0  0  0  0  0  0
    0.9331    5.4008    6.1483 C   0  0  0  0  0  0  0  0  0  0  0  0
    1.5738    4.9347    7.4583 C   0  0  0  0  0  0  0  0  0  0  0  0
    2.3456    4.4665    4.2187 C   0  0  0  0  0  0  0  0  0  0  0  0
    3.5691    5.6687    4.2621 Cl  0  0  0  0  0  0  0  0  0  0  0  0
    2.3821    3.3739    3.3104 C   0  0  0  0  0  0  0  0  0  0  0  0
    3.7020    3.1212    2.2474 Cl  0  0  0  0  0  0  0  0  0  0  0  0
    1.0726    1.2485    1.3116 C   0  0  0  0  0  0  0  0  0  0  0  0
    0.9589    0.0469    0.5664 C   0  0  0  0  0  0  0  0  0  0  0  0
    0.8310   -1.1790    1.2452 C   0  0  0  0  0  0  0  0  0  0  0  0
    0.8235   -2.4688    0.5706 C   0  0  0  0  0  0  0  0  0  0  0  0
    1.9432   -3.7172    1.0397 S   0  0  0  0  0  0  0  0  0  0  0  0
    1.3323   -4.8274   -0.1349 C   0  0  0  0  0  0  0  0  0  0  0  0
    1.9221   -6.1837   -0.3065 C   0  0  0  0  0  0  0  0  0  0  0  0
    2.9498   -6.2057   -1.4401 C   0  0  0  0  0  0  0  0  0  0  0  0
    0.3229   -4.2523   -0.8472 C   0  0  0  0  0  0  0  0  0  0  0  0
    0.0232   -2.9265   -0.4361 C   0  0  0  0  0  0  0  0  0  0  0  0
   -1.2951   -2.0555   -1.0705 Cl  0  0  0  0  0  0  0  0  0  0  0  0
   -0.5037   -5.0261   -2.1392 Cl  0  0  0  0  0  0  0  0  0  0  0  0
    0.7665   -1.1248    2.6337 C   0  0  0  0  0  0  0  0  0  0  0  0
    0.5648   -2.4980    3.6870 S   0  0  0  0  0  0  0  0  0  0  0  0
    1.0937    0.2888   -0.8300 C   0  0  0  0  0  0  0  0  0  0  0  0
    1.2643    1.5981   -1.1565 C   0  0  0  0  0  0  0  0  0  0  0  0
    1.2465    2.6240    0.2674 S   0  0  0  0  0  0  0  0  0  0  0  0
    1.6946    2.1554   -2.4380 C   0  0  0  0  0  0  0  0  0  0  0  0
    2.7210    1.4824   -3.1082 C   0  0  0  0  0  0  0  0  0  0  0  0
    3.2047    0.3323   -2.5908 F   0  0  0  0  0  0  0  0  0  0  0  0
    3.3249    1.9545   -4.2541 C   0  0  0  0  0  0  0  0  0  0  0  0
    2.9218    3.1789   -4.7567 C   0  0  0  0  0  0  0  0  0  0  0  0
    1.9037    3.8680   -4.1331 C   0  0  0  0  0  0  0  0  0  0  0  0
    1.2463    3.3657   -3.0077 C   0  0  0  0  0  0  0  0  0  0  0  0
    0.1471    4.1325   -2.4338 C   0  0  0  0  0  0  0  0  0  0  0  0
   -0.7606    4.8979   -3.0602 C   0  0  0  0  0  0  0  0  0  0  0  0
   -1.0105    5.0828   -4.4852 C   0  0  0  0  0  0  0  0  0  0  0  0
   -0.7715    4.0884   -5.4390 C   0  0  0  0  0  0  0  0  0  0  0  0
   -0.4622    2.8359   -5.0359 F   0  0  0  0  0  0  0  0  0  0  0  0
   -0.8874    4.2984   -6.7975 C   0  0  0  0  0  0  0  0  0  0  0  0
   -1.2751    5.5463   -7.2516 C   0  0  0  0  0  0  0  0  0  0  0  0
   -1.6322    6.5208   -6.3379 C   0  0  0  0  0  0  0  0  0  0  0  0
   -1.5593    6.2903   -4.9683 C   0  0  0  0  0  0  0  0  0  0  0  0
   -2.1936    7.2971   -4.0859 C   0  0  0  0  0  0  0  0  0  0  0  0
   -3.3570    7.0542   -3.4756 C   0  0  0  0  0  0  0  0  0  0  0  0
   -3.9135    5.7123   -3.5738 C   0  0  0  0  0  0  0  0  0  0  0  0
   -4.0678    4.9822   -4.7062 C   0  0  0  0  0  0  0  0  0  0  0  0
   -3.9783    3.5796   -4.4958 C   0  0  0  0  0  0  0  0  0  0  0  0
   -3.8485    2.5842   -5.4843 C   0  0  0  0  0  0  0  0  0  0  0  0
   -4.2543    2.8539   -6.8454 C   0  0  0  0  0  0  0  0  0  0  0  0
   -3.3096    2.3577   -8.2179 S   0  0  0  0  0  0  0  0  0  0  0  0
   -4.4171    3.0671   -9.3415 C   0  0  0  0  0  0  0  0  0  0  0  0
   -4.2035    2.9529  -10.8102 C   0  0  0  0  0  0  0  0  0  0  0  0
   -4.6980    1.6003  -11.3284 C   0  0  0  0  0  0  0  0  0  0  0  0
   -5.4654    3.6337   -8.6793 C   0  0  0  0  0  0  0  0  0  0  0  0
   -6.7763    4.4220   -9.4580 Cl  0  0  0  0  0  0  0  0  0  0  0  0
   -5.3760    3.5205   -7.2677 C   0  0  0  0  0  0  0  0  0  0  0  0
   -6.6151    4.0929   -6.2282 Cl  0  0  0  0  0  0  0  0  0  0  0  0
   -3.2226    1.4072   -5.0848 C   0  0  0  0  0  0  0  0  0  0  0  0
   -2.8468    1.1748   -3.7423 C   0  0  0  0  0  0  0  0  0  0  0  0
   -3.2328    2.0588   -2.7187 C   0  0  0  0  0  0  0  0  0  0  0  0
   -3.0219    1.7146   -1.3295 C   0  0  0  0  0  0  0  0  0  0  0  0
   -2.3615    2.8310   -0.1750 S   0  0  0  0  0  0  0  0  0  0  0  0
   -2.4670    1.6840    1.1122 C   0  0  0  0  0  0  0  0  0  0  0  0
   -2.1275    2.0710    2.5064 C   0  0  0  0  0  0  0  0  0  0  0  0
   -3.3713    2.5479    3.2595 C   0  0  0  0  0  0  0  0  0  0  0  0
   -2.9821    0.5049    0.6618 C   0  0  0  0  0  0  0  0  0  0  0  0
   -3.3099    0.5213   -0.7188 C   0  0  0  0  0  0  0  0  0  0  0  0
   -4.1151   -0.7773   -1.4967 Cl  0  0  0  0  0  0  0  0  0  0  0  0
   -3.2001   -0.8717    1.6612 Cl  0  0  0  0  0  0  0  0  0  0  0  0
   -3.7388    3.2798   -3.1360 C   0  0  0  0  0  0  0  0  0  0  0  0
   -3.9049    4.6979   -2.1354 S   0  0  0  0  0  0  0  0  0  0  0  0
   -1.9713    0.0718   -3.6211 C   0  0  0  0  0  0  0  0  0  0  0  0
   -1.7508   -0.5807   -4.7921 C   0  0  0  0  0  0  0  0  0  0  0  0
   -2.6472    0.1289   -6.1212 S   0  0  0  0  0  0  0  0  0  0  0  0
   -0.8415   -1.6680   -4.9928 C   0  0  0  0  0  0  0  0  0  0  0  0
   -0.9139   -2.7111   -5.8609 C   0  0  0  0  0  0  0  0  0  0  0  0
    0.1795   -3.6117   -5.7517 C   0  0  0  0  0  0  0  0  0  0  0  0
    0.4138   -4.7888   -6.4803 C   0  0  0  0  0  0  0  0  0  0  0  0
   -0.5264   -5.2635   -7.4818 C   0  0  0  0  0  0  0  0  0  0  0  0
   -2.2053   -5.5108   -7.1012 S   0  0  0  0  0  0  0  0  0  0  0  0
   -2.5674   -6.0702   -8.6985 C   0  0  0  0  0  0  0  0  0  0  0  0
   -3.9577   -6.4275   -9.0931 C   0  0  0  0  0  0  0  0  0  0  0  0
   -4.7692   -5.1735   -9.4275 C   0  0  0  0  0  0  0  0  0  0  0  0
   -1.4455   -6.0502   -9.4714 C   0  0  0  0  0  0  0  0  0  0  0  0
   -1.4102   -6.5233  -11.1204 Cl  0  0  0  0  0  0  0  0  0  0  0  0
   -0.2855   -5.6010   -8.7844 C   0  0  0  0  0  0  0  0  0  0  0  0
    1.2317   -5.4259   -9.5615 Cl  0  0  0  0  0  0  0  0  0  0  0  0
    1.5756   -5.4937   -6.1840 C   0  0  0  0  0  0  0  0  0  0  0  0
    2.5308   -5.0467   -5.2406 C   0  0  0  0  0  0  0  0  0  0  0  0
    2.3269   -3.8384   -4.5559 C   0  0  0  0  0  0  0  0  0  0  0  0
    3.3318   -3.2837   -3.6659 C   0  0  0  0  0  0  0  0  0  0  0  0
    2.9238   -2.7017   -2.0839 S   0  0  0  0  0  0  0  0  0  0  0  0
    4.5396   -2.1985   -1.7546 C   0  0  0  0  0  0  0  0  0  0  0  0
    4.9063   -1.5955   -0.4445 C   0  0  0  0  0  0  0  0  0  0  0  0
    5.5119   -2.6376    0.4980 C   0  0  0  0  0  0  0  0  0  0  0  0
    5.3430   -2.4685   -2.8222 C   0  0  0  0  0  0  0  0  0  0  0  0
    4.6635   -3.0790   -3.9092 C   0  0  0  0  0  0  0  0  0  0  0  0
    5.4400   -3.4282   -5.4001 Cl  0  0  0  0  0  0  0  0  0  0  0  0
    7.0176   -2.0973   -2.8724 Cl  0  0  0  0  0  0  0  0  0  0  0  0
    1.1264   -3.1785   -4.7929 C   0  0  0  0  0  0  0  0  0  0  0  0
    0.6125   -1.7113   -4.0176 S   0  0  0  0  0  0  0  0  0  0  0  0
    3.5905   -5.9873   -5.0805 C   0  0  0  0  0  0  0  0  0  0  0  0
    3.4449   -7.0764   -5.8618 C   0  0  0  0  0  0  0  0  0  0  0  0
    2.0245   -7.0394   -6.8468 S   0  0  0  0  0  0  0  0  0  0  0  0
   -0.2540   -4.0464   14.1461 H   0  0  0  0  0  0  0  0  0  0  0  0
    0.6127   -5.4857   12.1564 H   0  0  0  0  0  0  0  0  0  0  0  0
    2.6679   -9.7154    8.3751 H   0  0  0  0  0  0  0  0  0  0  0  0
    1.1115   -9.4056    7.5815 H   0  0  0  0  0  0  0  0  0  0  0  0
    2.2702   -8.0368    5.8464 H   0  0  0  0  0  0  0  0  0  0  0  0
    2.9121   -9.6836    5.8956 H   0  0  0  0  0  0  0  0  0  0  0  0
    3.8212   -8.3578    6.6278 H   0  0  0  0  0  0  0  0  0  0  0  0
   -0.3828    4.0625    9.9288 H   0  0  0  0  0  0  0  0  0  0  0  0
   -1.9981    4.2249   10.6447 H   0  0  0  0  0  0  0  0  0  0  0  0
   -3.0320    3.7092    8.4412 H   0  0  0  0  0  0  0  0  0  0  0  0
   -1.9589    5.1055    8.3167 H   0  0  0  0  0  0  0  0  0  0  0  0
   -1.4318    3.5259    7.7180 H   0  0  0  0  0  0  0  0  0  0  0  0
   -0.4576   -0.2691    7.3807 H   0  0  0  0  0  0  0  0  0  0  0  0
    0.8238    0.6298    5.5024 H   0  0  0  0  0  0  0  0  0  0  0  0
    1.3100    6.3925    5.8915 H   0  0  0  0  0  0  0  0  0  0  0  0
   -0.1497    5.4571    6.2687 H   0  0  0  0  0  0  0  0  0  0  0  0
    2.6553    4.9025    7.3555 H   0  0  0  0  0  0  0  0  0  0  0  0
    1.3214    5.6217    8.2613 H   0  0  0  0  0  0  0  0  0  0  0  0
    1.2218    3.9398    7.7215 H   0  0  0  0  0  0  0  0  0  0  0  0
    1.1195   -6.8879   -0.5371 H   0  0  0  0  0  0  0  0  0  0  0  0
    2.3975   -6.4892    0.6267 H   0  0  0  0  0  0  0  0  0  0  0  0
    3.7631   -5.5157   -1.2290 H   0  0  0  0  0  0  0  0  0  0  0  0
    2.4809   -5.9151   -2.3763 H   0  0  0  0  0  0  0  0  0  0  0  0
    3.3590   -7.2062   -1.5518 H   0  0  0  0  0  0  0  0  0  0  0  0
    1.0845   -0.4998   -1.5596 H   0  0  0  0  0  0  0  0  0  0  0  0
    4.1126    1.3775   -4.7114 H   0  0  0  0  0  0  0  0  0  0  0  0
    3.4042    3.5921   -5.6289 H   0  0  0  0  0  0  0  0  0  0  0  0
    1.6029    4.8311   -4.5172 H   0  0  0  0  0  0  0  0  0  0  0  0
    0.0832    4.1098   -1.3546 H   0  0  0  0  0  0  0  0  0  0  0  0
   -1.4002    5.4928   -2.4234 H   0  0  0  0  0  0  0  0  0  0  0  0
   -0.6802    3.4851   -7.4740 H   0  0  0  0  0  0  0  0  0  0  0  0
   -1.3435    5.7400   -8.3106 H   0  0  0  0  0  0  0  0  0  0  0  0
   -2.0166    7.4689   -6.6847 H   0  0  0  0  0  0  0  0  0  0  0  0
   -1.7294    8.2714   -4.0226 H   0  0  0  0  0  0  0  0  0  0  0  0
   -3.8259    7.7809   -2.8290 H   0  0  0  0  0  0  0  0  0  0  0  0
   -4.1188    5.4258   -5.6837 H   0  0  0  0  0  0  0  0  0  0  0  0
   -4.7475    3.7578  -11.3075 H   0  0  0  0  0  0  0  0  0  0  0  0
   -3.1400    3.0580  -11.0317 H   0  0  0  0  0  0  0  0  0  0  0  0
   -4.5346    1.5285  -12.4002 H   0  0  0  0  0  0  0  0  0  0  0  0
   -4.1630    0.7914  -10.8368 H   0  0  0  0  0  0  0  0  0  0  0  0
   -5.7605    1.4864  -11.1292 H   0  0  0  0  0  0  0  0  0  0  0  0
   -1.6986    1.2126    3.0264 H   0  0  0  0  0  0  0  0  0  0  0  0
   -1.3928    2.8756    2.4810 H   0  0  0  0  0  0  0  0  0  0  0  0
   -3.8113    3.4058    2.7570 H   0  0  0  0  0  0  0  0  0  0  0  0
   -3.0994    2.8339    4.2719 H   0  0  0  0  0  0  0  0  0  0  0  0
   -4.1117    1.7538    3.3060 H   0  0  0  0  0  0  0  0  0  0  0  0
   -1.4826   -0.1904   -2.7027 H   0  0  0  0  0  0  0  0  0  0  0  0
   -1.7329   -2.8411   -6.5448 H   0  0  0  0  0  0  0  0  0  0  0  0
   -4.4416   -6.9647   -8.2753 H   0  0  0  0  0  0  0  0  0  0  0  0
   -3.9158   -7.0815   -9.9657 H   0  0  0  0  0  0  0  0  0  0  0  0
   -4.8204   -4.5159   -8.5629 H   0  0  0  0  0  0  0  0  0  0  0  0
   -5.7795   -5.4487   -9.7174 H   0  0  0  0  0  0  0  0  0  0  0  0
   -4.3057   -4.6329  -10.2489 H   0  0  0  0  0  0  0  0  0  0  0  0
    5.6305   -0.7969   -0.6175 H   0  0  0  0  0  0  0  0  0  0  0  0
    4.0135   -1.1623    0.0086 H   0  0  0  0  0  0  0  0  0  0  0  0
    6.4073   -3.0688    0.0577 H   0  0  0  0  0  0  0  0  0  0  0  0
    4.7966   -3.4328    0.6931 H   0  0  0  0  0  0  0  0  0  0  0  0
    5.7776   -2.1727    1.4433 H   0  0  0  0  0  0  0  0  0  0  0  0
    4.4041   -5.8520   -4.3923 H   0  0  0  0  0  0  0  0  0  0  0  0
    4.0929   -7.9282   -5.9310 H   0  0  0  0  0  0  0  0  0  0  0  0
  1  2  2  0  0  0  0
  2  3  1  0  0  0  0
  3  4  2  0  0  0  0
  4  5  1  0  0  0  0
  5  6  1  0  0  0  0
  6  7  1  0  0  0  0
  7  8  1  0  0  0  0
  8  9  1  0  0  0  0
  7 10  2  0  0  0  0
 10 11  1  0  0  0  0
 10 12  1  0  0  0  0
 12 13  1  0  0  0  0
  4 14  1  0  0  0  0
 14 15  2  0  0  0  0
 15 16  1  0  0  0  0
 16 17  1  0  0  0  0
 17 18  1  0  0  0  0
 18 19  1  0  0  0  0
 19 20  1  0  0  0  0
 20 21  1  0  0  0  0
 19 22  2  0  0  0  0
 22 23  1  0  0  0  0
 23 24  1  0  0  0  0
 22 25  1  0  0  0  0
 16 26  2  0  0  0  0
 26 27  1  0  0  0  0
 15 28  1  0  0  0  0
 28 29  2  0  0  0  0
 29 30  1  0  0  0  0
 29 31  1  0  0  0  0
 31 32  2  0  0  0  0
 32 33  1  0  0  0  0
 33 34  2  0  0  0  0
 34 35  1  0  0  0  0
 35 36  1  0  0  0  0
 36 37  1  0  0  0  0
 37 38  1  0  0  0  0
 38 39  1  0  0  0  0
 37 40  2  0  0  0  0
 40 41  1  0  0  0  0
 40 42  1  0  0  0  0
 42 43  1  0  0  0  0
 34 44  1  0  0  0  0
 44 45  2  0  0  0  0
 45 46  1  0  0  0  0
 46 47  1  0  0  0  0
 47 48  1  0  0  0  0
 48 49  1  0  0  0  0
 49 50  1  0  0  0  0
 50 51  1  0  0  0  0
 49 52  2  0  0  0  0
 52 53  1  0  0  0  0
 53 54  1  0  0  0  0
 52 55  1  0  0  0  0
 46 56  2  0  0  0  0
 56 57  1  0  0  0  0
 45 58  1  0  0  0  0
 58 59  2  0  0  0  0
 59 60  1  0  0  0  0
 59 61  1  0  0  0  0
 61 62  2  0  0  0  0
 62 63  1  0  0  0  0
 62 64  1  0  0  0  0
 64 65  2  0  0  0  0
 65 66  1  0  0  0  0
 66 67  2  0  0  0  0
 67 68  1  0  0  0  0
 68 69  2  0  0  0  0
 69 70  1  0  0  0  0
 70 71  2  0  0  0  0
 71 72  1  0  0  0  0
 71 73  1  0  0  0  0
 73 74  2  0  0  0  0
 74 75  1  0  0  0  0
 75 76  2  0  0  0  0
 76 77  1  0  0  0  0
 77 78  2  0  0  0  0
 78 79  1  0  0  0  0
 79 80  2  0  0  0  0
 80 81  1  0  0  0  0
 81 82  2  0  0  0  0
 82 83  1  0  0  0  0
 83 84  1  0  0  0  0
 84 85  1  0  0  0  0
 85 86  1  0  0  0  0
 86 87  1  0  0  0  0
 85 88  2  0  0  0  0
 88 89  1  0  0  0  0
 88 90  1  0  0  0  0
 90 91  1  0  0  0  0
 82 92  1  0  0  0  0
 92 93  2  0  0  0  0
 93 94  1  0  0  0  0
 94 95  1  0  0  0  0
 95 96  1  0  0  0  0
 96 97  1  0  0  0  0
 97 98  1  0  0  0  0
 98 99  1  0  0  0  0
 97100  2  0  0  0  0
100101  1  0  0  0  0
101102  1  0  0  0  0
100103  1  0  0  0  0
 94104  2  0  0  0  0
104105  1  0  0  0  0
 93106  1  0  0  0  0
106107  2  0  0  0  0
107108  1  0  0  0  0
107109  1  0  0  0  0
109110  2  0  0  0  0
110111  1  0  0  0  0
111112  2  0  0  0  0
112113  1  0  0  0  0
113114  1  0  0  0  0
114115  1  0  0  0  0
115116  1  0  0  0  0
116117  1  0  0  0  0
115118  2  0  0  0  0
118119  1  0  0  0  0
118120  1  0  0  0  0
120121  1  0  0  0  0
112122  1  0  0  0  0
122123  2  0  0  0  0
123124  1  0  0  0  0
124125  1  0  0  0  0
125126  1  0  0  0  0
126127  1  0  0  0  0
127128  1  0  0  0  0
128129  1  0  0  0  0
127130  2  0  0  0  0
130131  1  0  0  0  0
131132  1  0  0  0  0
130133  1  0  0  0  0
124134  2  0  0  0  0
134135  1  0  0  0  0
123136  1  0  0  0  0
136137  2  0  0  0  0
137138  1  0  0  0  0
 27  1  1  0  0  0  0
 57 31  1  0  0  0  0
 67 61  1  0  0  0  0
 76 70  1  0  0  0  0
105 79  1  0  0  0  0
135109  1  0  0  0  0
 26  3  1  0  0  0  0
 56 33  1  0  0  0  0
104 81  1  0  0  0  0
134111  1  0  0  0  0
 12  5  2  0  0  0  0
 30 14  1  0  0  0  0
 42 35  2  0  0  0  0
 60 44  1  0  0  0  0
 90 83  2  0  0  0  0
108 92  1  0  0  0  0
120113  2  0  0  0  0
138122  1  0  0  0  0
 23 17  2  0  0  0  0
 53 47  2  0  0  0  0
101 95  2  0  0  0  0
131125  2  0  0  0  0
  1139  1  0  0  0  0
  2140  1  0  0  0  0
  8141  1  0  0  0  0
  8142  1  0  0  0  0
  9143  1  0  0  0  0
  9144  1  0  0  0  0
  9145  1  0  0  0  0
 20146  1  0  0  0  0
 20147  1  0  0  0  0
 21148  1  0  0  0  0
 21149  1  0  0  0  0
 21150  1  0  0  0  0
 28151  1  0  0  0  0
 32152  1  0  0  0  0
 38153  1  0  0  0  0
 38154  1  0  0  0  0
 39155  1  0  0  0  0
 39156  1  0  0  0  0
 39157  1  0  0  0  0
 50158  1  0  0  0  0
 50159  1  0  0  0  0
 51160  1  0  0  0  0
 51161  1  0  0  0  0
 51162  1  0  0  0  0
 58163  1  0  0  0  0
 64164  1  0  0  0  0
 65165  1  0  0  0  0
 66166  1  0  0  0  0
 68167  1  0  0  0  0
 69168  1  0  0  0  0
 73169  1  0  0  0  0
 74170  1  0  0  0  0
 75171  1  0  0  0  0
 77172  1  0  0  0  0
 78173  1  0  0  0  0
 80174  1  0  0  0  0
 86175  1  0  0  0  0
 86176  1  0  0  0  0
 87177  1  0  0  0  0
 87178  1  0  0  0  0
 87179  1  0  0  0  0
 98180  1  0  0  0  0
 98181  1  0  0  0  0
 99182  1  0  0  0  0
 99183  1  0  0  0  0
 99184  1  0  0  0  0
106185  1  0  0  0  0
110186  1  0  0  0  0
116187  1  0  0  0  0
116188  1  0  0  0  0
117189  1  0  0  0  0
117190  1  0  0  0  0
117191  1  0  0  0  0
128192  1  0  0  0  0
128193  1  0  0  0  0
129194  1  0  0  0  0
129195  1  0  0  0  0
129196  1  0  0  0  0
136197  1  0  0  0  0
137198  1  0  0  0  0
M  END
