
  xtb     03022214013D
 energy: -450.069781811290 gnorm: 0.003326650307 xtb: 6.4.1 (unknown)
230255  0     0  0            999 V2000
   -3.6933   -5.8909   -0.9084 C   0  0  0  0  0  0  0  0  0  0  0  0
   -3.7902   -7.2160   -0.6868 C   0  0  0  0  0  0  0  0  0  0  0  0
   -4.4241   -7.5301    0.5525 C   0  0  0  0  0  0  0  0  0  0  0  0
   -4.7081   -8.7959    1.0968 C   0  0  0  0  0  0  0  0  0  0  0  0
   -4.4486  -10.0078    0.3372 C   0  0  0  0  0  0  0  0  0  0  0  0
   -4.9746  -10.1197   -1.3209 S   0  0  0  0  0  0  0  0  0  0  0  0
   -4.3351  -11.7141   -1.5111 C   0  0  0  0  0  0  0  0  0  0  0  0
   -4.3795  -12.4201   -2.8204 C   0  0  0  0  0  0  0  0  0  0  0  0
   -3.1004  -12.1546   -3.6194 C   0  0  0  0  0  0  0  0  0  0  0  0
   -3.7540  -12.1265   -0.3509 C   0  0  0  0  0  0  0  0  0  0  0  0
   -2.9704  -13.6396   -0.1570 Cl  0  0  0  0  0  0  0  0  0  0  0  0
   -3.8330  -11.1740    0.6994 C   0  0  0  0  0  0  0  0  0  0  0  0
   -3.1094  -11.4750    2.2176 Cl  0  0  0  0  0  0  0  0  0  0  0  0
   -5.3047   -8.8139    2.3546 C   0  0  0  0  0  0  0  0  0  0  0  0
   -5.6778   -7.6378    3.0488 C   0  0  0  0  0  0  0  0  0  0  0  0
   -5.4119   -6.3767    2.4965 C   0  0  0  0  0  0  0  0  0  0  0  0
   -5.7827   -5.1424    3.1673 C   0  0  0  0  0  0  0  0  0  0  0  0
   -4.6286   -3.8512    3.3403 S   0  0  0  0  0  0  0  0  0  0  0  0
   -5.7730   -2.8113    4.1121 C   0  0  0  0  0  0  0  0  0  0  0  0
   -5.3985   -1.4238    4.4984 C   0  0  0  0  0  0  0  0  0  0  0  0
   -4.7335   -0.6880    3.3356 C   0  0  0  0  0  0  0  0  0  0  0  0
   -6.9716   -3.4470    4.2364 C   0  0  0  0  0  0  0  0  0  0  0  0
   -6.9841   -4.7634    3.6991 C   0  0  0  0  0  0  0  0  0  0  0  0
   -8.4196   -5.7023    3.6338 Cl  0  0  0  0  0  0  0  0  0  0  0  0
   -8.3622   -2.7414    4.9608 Cl  0  0  0  0  0  0  0  0  0  0  0  0
   -4.7684   -6.3578    1.2633 C   0  0  0  0  0  0  0  0  0  0  0  0
   -4.3594   -4.9255    0.3602 S   0  0  0  0  0  0  0  0  0  0  0  0
   -6.2883   -7.9371    4.2963 C   0  0  0  0  0  0  0  0  0  0  0  0
   -6.3639   -9.2616    4.5692 C   0  0  0  0  0  0  0  0  0  0  0  0
   -5.7353  -10.2339    3.2653 S   0  0  0  0  0  0  0  0  0  0  0  0
   -6.8747   -9.8246    5.8229 C   0  0  0  0  0  0  0  0  0  0  0  0
   -8.0950   -9.4835    6.2503 C   0  0  0  0  0  0  0  0  0  0  0  0
   -5.9682  -10.6434    6.6058 C   0  0  0  0  0  0  0  0  0  0  0  0
   -6.2906  -10.9359    8.2957 S   0  0  0  0  0  0  0  0  0  0  0  0
   -4.8249  -11.8280    8.4798 C   0  0  0  0  0  0  0  0  0  0  0  0
   -4.4453  -12.3985    9.7996 C   0  0  0  0  0  0  0  0  0  0  0  0
   -4.1115  -11.8756    7.3055 C   0  0  0  0  0  0  0  0  0  0  0  0
   -4.7810  -11.2074    6.2460 C   0  0  0  0  0  0  0  0  0  0  0  0
   -2.8479  -12.5738    7.1690 C   0  0  0  0  0  0  0  0  0  0  0  0
   -1.8308  -12.2343    6.3634 C   0  0  0  0  0  0  0  0  0  0  0  0
   -1.7107  -11.0357    5.5724 C   0  0  0  0  0  0  0  0  0  0  0  0
   -1.0890  -10.9273    4.3673 C   0  0  0  0  0  0  0  0  0  0  0  0
   -1.1550   -9.6296    3.7936 C   0  0  0  0  0  0  0  0  0  0  0  0
   -0.6939   -9.2064    2.5300 C   0  0  0  0  0  0  0  0  0  0  0  0
    0.0182  -10.1216    1.6536 C   0  0  0  0  0  0  0  0  0  0  0  0
    1.3407  -11.0793    2.2656 S   0  0  0  0  0  0  0  0  0  0  0  0
    1.5956  -11.8630    0.7446 C   0  0  0  0  0  0  0  0  0  0  0  0
    2.6928  -12.8500    0.5520 C   0  0  0  0  0  0  0  0  0  0  0  0
    3.9548  -12.1620    0.0237 C   0  0  0  0  0  0  0  0  0  0  0  0
    0.7113  -11.3902   -0.1781 C   0  0  0  0  0  0  0  0  0  0  0  0
    0.6359  -11.9449   -1.8006 Cl  0  0  0  0  0  0  0  0  0  0  0  0
   -0.1751  -10.4028    0.3279 C   0  0  0  0  0  0  0  0  0  0  0  0
   -1.3759   -9.7079   -0.6678 Cl  0  0  0  0  0  0  0  0  0  0  0  0
   -0.9469   -7.8836    2.1849 C   0  0  0  0  0  0  0  0  0  0  0  0
   -1.6157   -6.9832    3.0515 C   0  0  0  0  0  0  0  0  0  0  0  0
   -2.0382   -7.3910    4.3278 C   0  0  0  0  0  0  0  0  0  0  0  0
   -2.6585   -6.4562    5.2488 C   0  0  0  0  0  0  0  0  0  0  0  0
   -4.1120   -6.8899    6.0946 S   0  0  0  0  0  0  0  0  0  0  0  0
   -4.2513   -5.3355    6.8345 C   0  0  0  0  0  0  0  0  0  0  0  0
   -5.4134   -4.9825    7.6981 C   0  0  0  0  0  0  0  0  0  0  0  0
   -6.0701   -6.2084    8.3204 C   0  0  0  0  0  0  0  0  0  0  0  0
   -3.1967   -4.5512    6.4716 C   0  0  0  0  0  0  0  0  0  0  0  0
   -2.2853   -5.1807    5.5844 C   0  0  0  0  0  0  0  0  0  0  0  0
   -0.8304   -4.4108    5.0971 Cl  0  0  0  0  0  0  0  0  0  0  0  0
   -2.9814   -2.9414    7.0207 Cl  0  0  0  0  0  0  0  0  0  0  0  0
   -1.8290   -8.7252    4.6486 C   0  0  0  0  0  0  0  0  0  0  0  0
   -2.3316   -9.4912    6.1255 S   0  0  0  0  0  0  0  0  0  0  0  0
   -1.7421   -5.6990    2.4803 C   0  0  0  0  0  0  0  0  0  0  0  0
   -1.1348   -5.5712    1.2683 C   0  0  0  0  0  0  0  0  0  0  0  0
   -0.4350   -7.0780    0.7236 S   0  0  0  0  0  0  0  0  0  0  0  0
   -0.9939   -4.3428    0.5594 C   0  0  0  0  0  0  0  0  0  0  0  0
   -0.4605   -4.0911   -0.6690 C   0  0  0  0  0  0  0  0  0  0  0  0
   -0.3858   -2.7080   -0.9758 C   0  0  0  0  0  0  0  0  0  0  0  0
    0.1425   -2.0924   -2.1256 C   0  0  0  0  0  0  0  0  0  0  0  0
    0.5891   -2.8800   -3.2617 C   0  0  0  0  0  0  0  0  0  0  0  0
    2.1752   -2.6840   -3.9445 S   0  0  0  0  0  0  0  0  0  0  0  0
    1.8946   -3.9000   -5.1430 C   0  0  0  0  0  0  0  0  0  0  0  0
    2.9598   -4.2965   -6.1044 C   0  0  0  0  0  0  0  0  0  0  0  0
    3.8958   -5.3378   -5.4856 C   0  0  0  0  0  0  0  0  0  0  0  0
    0.6423   -4.4211   -5.0081 C   0  0  0  0  0  0  0  0  0  0  0  0
   -0.0013   -5.6492   -6.0200 Cl  0  0  0  0  0  0  0  0  0  0  0  0
   -0.1003   -3.8429   -3.9449 C   0  0  0  0  0  0  0  0  0  0  0  0
   -1.7298   -4.2611   -3.6289 Cl  0  0  0  0  0  0  0  0  0  0  0  0
    0.2363   -0.7063   -2.1134 C   0  0  0  0  0  0  0  0  0  0  0  0
   -0.2101    0.0831   -1.0256 C   0  0  0  0  0  0  0  0  0  0  0  0
   -0.7972   -0.5237    0.0973 C   0  0  0  0  0  0  0  0  0  0  0  0
   -1.2378    0.2686    1.2332 C   0  0  0  0  0  0  0  0  0  0  0  0
   -0.6670   -0.0887    2.8372 S   0  0  0  0  0  0  0  0  0  0  0  0
   -1.4926    1.2708    3.5203 C   0  0  0  0  0  0  0  0  0  0  0  0
   -1.3904    1.5685    4.9754 C   0  0  0  0  0  0  0  0  0  0  0  0
   -2.1156    0.5216    5.8220 C   0  0  0  0  0  0  0  0  0  0  0  0
   -2.1873    1.9365    2.5546 C   0  0  0  0  0  0  0  0  0  0  0  0
   -2.0408    1.3750    1.2573 C   0  0  0  0  0  0  0  0  0  0  0  0
   -2.8622    2.0032   -0.1140 Cl  0  0  0  0  0  0  0  0  0  0  0  0
   -3.1400    3.3349    2.8445 Cl  0  0  0  0  0  0  0  0  0  0  0  0
   -0.8574   -1.9085    0.0951 C   0  0  0  0  0  0  0  0  0  0  0  0
   -1.4595   -2.8785    1.4014 S   0  0  0  0  0  0  0  0  0  0  0  0
    0.0685    1.4544   -1.2174 C   0  0  0  0  0  0  0  0  0  0  0  0
    0.6640    1.7285   -2.4137 C   0  0  0  0  0  0  0  0  0  0  0  0
    0.9258    0.2867   -3.3691 S   0  0  0  0  0  0  0  0  0  0  0  0
    1.0798    3.0291   -2.8313 C   0  0  0  0  0  0  0  0  0  0  0  0
    0.6563    4.1993   -2.2727 C   0  0  0  0  0  0  0  0  0  0  0  0
    1.3365    5.3383   -2.7596 C   0  0  0  0  0  0  0  0  0  0  0  0
    1.1725    6.6734   -2.3495 C   0  0  0  0  0  0  0  0  0  0  0  0
    0.2630    7.0088   -1.2674 C   0  0  0  0  0  0  0  0  0  0  0  0
   -0.9411    8.2496   -1.4451 S   0  0  0  0  0  0  0  0  0  0  0  0
   -1.5633    7.9839    0.1477 C   0  0  0  0  0  0  0  0  0  0  0  0
   -2.6725    8.8160    0.6891 C   0  0  0  0  0  0  0  0  0  0  0  0
   -2.1471   10.1641    1.1884 C   0  0  0  0  0  0  0  0  0  0  0  0
   -0.8574    7.0008    0.7755 C   0  0  0  0  0  0  0  0  0  0  0  0
   -1.1796    6.4522    2.3689 Cl  0  0  0  0  0  0  0  0  0  0  0  0
    0.1769    6.4445   -0.0232 C   0  0  0  0  0  0  0  0  0  0  0  0
    1.2515    5.2486    0.5820 Cl  0  0  0  0  0  0  0  0  0  0  0  0
    1.9362    7.6274   -3.0066 C   0  0  0  0  0  0  0  0  0  0  0  0
    2.8653    7.2940   -4.0228 C   0  0  0  0  0  0  0  0  0  0  0  0
    3.0254    5.9583   -4.4365 C   0  0  0  0  0  0  0  0  0  0  0  0
    3.9550    5.6174   -5.4985 C   0  0  0  0  0  0  0  0  0  0  0  0
    5.1246    4.3460   -5.2981 S   0  0  0  0  0  0  0  0  0  0  0  0
    5.8063    4.6169   -6.8649 C   0  0  0  0  0  0  0  0  0  0  0  0
    6.9137    3.7660   -7.3802 C   0  0  0  0  0  0  0  0  0  0  0  0
    6.3721    2.4516   -7.9478 C   0  0  0  0  0  0  0  0  0  0  0  0
    5.1456    5.6258   -7.4998 C   0  0  0  0  0  0  0  0  0  0  0  0
    4.0961    6.1957   -6.7314 C   0  0  0  0  0  0  0  0  0  0  0  0
    3.0695    7.4223   -7.3602 Cl  0  0  0  0  0  0  0  0  0  0  0  0
    5.5363    6.1858   -9.0742 Cl  0  0  0  0  0  0  0  0  0  0  0  0
    2.2688    5.0029   -3.7718 C   0  0  0  0  0  0  0  0  0  0  0  0
    2.2976    3.2850   -4.0608 S   0  0  0  0  0  0  0  0  0  0  0  0
    3.5862    8.4276   -4.4644 C   0  0  0  0  0  0  0  0  0  0  0  0
    3.2082    9.5876   -3.8545 C   0  0  0  0  0  0  0  0  0  0  0  0
    1.9563    9.3339   -2.6605 S   0  0  0  0  0  0  0  0  0  0  0  0
    3.7393   10.8816   -4.1463 C   0  0  0  0  0  0  0  0  0  0  0  0
    4.4024   11.2198   -5.2889 C   0  0  0  0  0  0  0  0  0  0  0  0
    4.8605   12.5585   -5.3024 C   0  0  0  0  0  0  0  0  0  0  0  0
    5.5990   13.2070   -6.3063 C   0  0  0  0  0  0  0  0  0  0  0  0
    5.9684   12.5097   -7.5277 C   0  0  0  0  0  0  0  0  0  0  0  0
    6.7762   10.9679   -7.4829 S   0  0  0  0  0  0  0  0  0  0  0  0
    6.8084   10.8393   -9.2086 C   0  0  0  0  0  0  0  0  0  0  0  0
    7.4328    9.6672   -9.8806 C   0  0  0  0  0  0  0  0  0  0  0  0
    8.9595    9.7627   -9.8560 C   0  0  0  0  0  0  0  0  0  0  0  0
    6.2354   11.9395   -9.7716 C   0  0  0  0  0  0  0  0  0  0  0  0
    6.0792   12.1790  -11.4637 Cl  0  0  0  0  0  0  0  0  0  0  0  0
    5.7549   12.8852   -8.8248 C   0  0  0  0  0  0  0  0  0  0  0  0
    4.9094   14.2989   -9.2949 Cl  0  0  0  0  0  0  0  0  0  0  0  0
    5.9595   14.5274   -6.0642 C   0  0  0  0  0  0  0  0  0  0  0  0
    5.5977   15.2192   -4.8821 C   0  0  0  0  0  0  0  0  0  0  0  0
    4.8323   14.5789   -3.8953 C   0  0  0  0  0  0  0  0  0  0  0  0
    4.4401   15.2545   -2.6678 C   0  0  0  0  0  0  0  0  0  0  0  0
    5.6193   15.9779   -1.6139 S   0  0  0  0  0  0  0  0  0  0  0  0
    4.4155   16.4644   -0.4696 C   0  0  0  0  0  0  0  0  0  0  0  0
    4.7867   17.1450    0.8013 C   0  0  0  0  0  0  0  0  0  0  0  0
    5.1201   16.1221    1.8901 C   0  0  0  0  0  0  0  0  0  0  0  0
    3.1792   16.0769   -0.8915 C   0  0  0  0  0  0  0  0  0  0  0  0
    3.1881   15.3927   -2.1371 C   0  0  0  0  0  0  0  0  0  0  0  0
    1.7499   14.8748   -2.9120 Cl  0  0  0  0  0  0  0  0  0  0  0  0
    1.7328   16.3851   -0.0219 Cl  0  0  0  0  0  0  0  0  0  0  0  0
    4.4858   13.2535   -4.1269 C   0  0  0  0  0  0  0  0  0  0  0  0
    3.6111   12.2209   -3.0317 S   0  0  0  0  0  0  0  0  0  0  0  0
    6.1010   16.5527   -4.8809 C   0  0  0  0  0  0  0  0  0  0  0  0
    6.8260   16.8391   -5.9816 C   0  0  0  0  0  0  0  0  0  0  0  0
    6.9372   15.5267   -7.1003 S   0  0  0  0  0  0  0  0  0  0  0  0
   -3.2590   -5.3975   -1.7548 H   0  0  0  0  0  0  0  0  0  0  0  0
   -3.4178   -7.9522   -1.3735 H   0  0  0  0  0  0  0  0  0  0  0  0
   -5.2449  -12.0755   -3.3884 H   0  0  0  0  0  0  0  0  0  0  0  0
   -4.4801  -13.4927   -2.6412 H   0  0  0  0  0  0  0  0  0  0  0  0
   -2.9860  -11.0894   -3.8067 H   0  0  0  0  0  0  0  0  0  0  0  0
   -2.2321  -12.5036   -3.0664 H   0  0  0  0  0  0  0  0  0  0  0  0
   -3.1403  -12.6756   -4.5722 H   0  0  0  0  0  0  0  0  0  0  0  0
   -4.7106   -1.4565    5.3478 H   0  0  0  0  0  0  0  0  0  0  0  0
   -6.3029   -0.8993    4.8126 H   0  0  0  0  0  0  0  0  0  0  0  0
   -3.7961   -1.1718    3.0684 H   0  0  0  0  0  0  0  0  0  0  0  0
   -5.3827   -0.6910    2.4634 H   0  0  0  0  0  0  0  0  0  0  0  0
   -4.5284    0.3439    3.6074 H   0  0  0  0  0  0  0  0  0  0  0  0
   -6.6328   -7.1881    4.9825 H   0  0  0  0  0  0  0  0  0  0  0  0
   -8.4806   -9.8363    7.1914 H   0  0  0  0  0  0  0  0  0  0  0  0
   -8.7366   -8.8538    5.6605 H   0  0  0  0  0  0  0  0  0  0  0  0
   -4.2460  -13.4669    9.7112 H   0  0  0  0  0  0  0  0  0  0  0  0
   -3.5414  -11.9194   10.1775 H   0  0  0  0  0  0  0  0  0  0  0  0
   -5.2447  -12.2507   10.5209 H   0  0  0  0  0  0  0  0  0  0  0  0
   -4.3998  -11.1995    5.2420 H   0  0  0  0  0  0  0  0  0  0  0  0
   -2.7483  -13.4725    7.7644 H   0  0  0  0  0  0  0  0  0  0  0  0
   -0.9908  -12.9123    6.2733 H   0  0  0  0  0  0  0  0  0  0  0  0
   -0.6438  -11.7729    3.8758 H   0  0  0  0  0  0  0  0  0  0  0  0
    2.9137  -13.3383    1.5027 H   0  0  0  0  0  0  0  0  0  0  0  0
    2.3646  -13.6079   -0.1633 H   0  0  0  0  0  0  0  0  0  0  0  0
    3.7538  -11.6898   -0.9349 H   0  0  0  0  0  0  0  0  0  0  0  0
    4.7492  -12.8926   -0.1058 H   0  0  0  0  0  0  0  0  0  0  0  0
    4.2907  -11.4015    0.7250 H   0  0  0  0  0  0  0  0  0  0  0  0
   -5.0717   -4.2964    8.4775 H   0  0  0  0  0  0  0  0  0  0  0  0
   -6.1497   -4.4421    7.0922 H   0  0  0  0  0  0  0  0  0  0  0  0
   -6.4515   -6.8734    7.5486 H   0  0  0  0  0  0  0  0  0  0  0  0
   -6.8982   -5.9076    8.9564 H   0  0  0  0  0  0  0  0  0  0  0  0
   -5.3527   -6.7622    8.9209 H   0  0  0  0  0  0  0  0  0  0  0  0
   -2.2696   -4.8860    2.9408 H   0  0  0  0  0  0  0  0  0  0  0  0
   -0.1039   -4.8722   -1.3161 H   0  0  0  0  0  0  0  0  0  0  0  0
    2.4886   -4.7131   -6.9965 H   0  0  0  0  0  0  0  0  0  0  0  0
    3.5351   -3.4146   -6.3903 H   0  0  0  0  0  0  0  0  0  0  0  0
    4.6606   -5.6248   -6.2024 H   0  0  0  0  0  0  0  0  0  0  0  0
    4.3799   -4.9310   -4.6008 H   0  0  0  0  0  0  0  0  0  0  0  0
    3.3362   -6.2247   -5.1991 H   0  0  0  0  0  0  0  0  0  0  0  0
   -1.8156    2.5563    5.1601 H   0  0  0  0  0  0  0  0  0  0  0  0
   -0.3359    1.5880    5.2605 H   0  0  0  0  0  0  0  0  0  0  0  0
   -3.1835    0.5468    5.6248 H   0  0  0  0  0  0  0  0  0  0  0  0
   -1.9546    0.7200    6.8783 H   0  0  0  0  0  0  0  0  0  0  0  0
   -1.7418   -0.4734    5.5932 H   0  0  0  0  0  0  0  0  0  0  0  0
   -0.1233    2.2042   -0.4743 H   0  0  0  0  0  0  0  0  0  0  0  0
   -0.1346    4.2465   -1.5491 H   0  0  0  0  0  0  0  0  0  0  0  0
   -3.4160    8.9839   -0.0919 H   0  0  0  0  0  0  0  0  0  0  0  0
   -3.1447    8.2766    1.5121 H   0  0  0  0  0  0  0  0  0  0  0  0
   -1.4139   10.0145    1.9769 H   0  0  0  0  0  0  0  0  0  0  0  0
   -2.9654   10.7610    1.5817 H   0  0  0  0  0  0  0  0  0  0  0  0
   -1.6755   10.7091    0.3743 H   0  0  0  0  0  0  0  0  0  0  0  0
    7.6118    3.5499   -6.5695 H   0  0  0  0  0  0  0  0  0  0  0  0
    7.4427    4.3139   -8.1620 H   0  0  0  0  0  0  0  0  0  0  0  0
    7.1909    1.8383   -8.3142 H   0  0  0  0  0  0  0  0  0  0  0  0
    5.6894    2.6490   -8.7703 H   0  0  0  0  0  0  0  0  0  0  0  0
    5.8384    1.9004   -7.1774 H   0  0  0  0  0  0  0  0  0  0  0  0
    4.3862    8.3821   -5.1783 H   0  0  0  0  0  0  0  0  0  0  0  0
    4.5416   10.5358   -6.1042 H   0  0  0  0  0  0  0  0  0  0  0  0
    7.0822    9.6331  -10.9135 H   0  0  0  0  0  0  0  0  0  0  0  0
    7.1197    8.7507   -9.3765 H   0  0  0  0  0  0  0  0  0  0  0  0
    9.3948    8.9003  -10.3538 H   0  0  0  0  0  0  0  0  0  0  0  0
    9.2895   10.6637  -10.3672 H   0  0  0  0  0  0  0  0  0  0  0  0
    9.3190    9.7930   -8.8300 H   0  0  0  0  0  0  0  0  0  0  0  0
    5.6513   17.7883    0.6297 H   0  0  0  0  0  0  0  0  0  0  0  0
    3.9474   17.7630    1.1259 H   0  0  0  0  0  0  0  0  0  0  0  0
    5.3867   16.6317    2.8122 H   0  0  0  0  0  0  0  0  0  0  0  0
    4.2624   15.4822    2.0804 H   0  0  0  0  0  0  0  0  0  0  0  0
    5.9564   15.5000    1.5802 H   0  0  0  0  0  0  0  0  0  0  0  0
    5.9216   17.2531   -4.0864 H   0  0  0  0  0  0  0  0  0  0  0  0
    7.3143   17.7622   -6.2258 H   0  0  0  0  0  0  0  0  0  0  0  0
  1  2  2  0  0  0  0
  2  3  1  0  0  0  0
  3  4  2  0  0  0  0
  4  5  1  0  0  0  0
  5  6  1  0  0  0  0
  6  7  1  0  0  0  0
  7  8  1  0  0  0  0
  8  9  1  0  0  0  0
  7 10  2  0  0  0  0
 10 11  1  0  0  0  0
 10 12  1  0  0  0  0
 12 13  1  0  0  0  0
  4 14  1  0  0  0  0
 14 15  2  0  0  0  0
 15 16  1  0  0  0  0
 16 17  1  0  0  0  0
 17 18  1  0  0  0  0
 18 19  1  0  0  0  0
 19 20  1  0  0  0  0
 20 21  1  0  0  0  0
 19 22  2  0  0  0  0
 22 23  1  0  0  0  0
 23 24  1  0  0  0  0
 22 25  1  0  0  0  0
 16 26  2  0  0  0  0
 26 27  1  0  0  0  0
 15 28  1  0  0  0  0
 28 29  2  0  0  0  0
 29 30  1  0  0  0  0
 29 31  1  0  0  0  0
 31 32  2  0  0  0  0
 31 33  1  0  0  0  0
 33 34  1  0  0  0  0
 34 35  1  0  0  0  0
 35 36  1  0  0  0  0
 35 37  2  0  0  0  0
 37 38  1  0  0  0  0
 37 39  1  0  0  0  0
 39 40  2  0  0  0  0
 40 41  1  0  0  0  0
 41 42  2  0  0  0  0
 42 43  1  0  0  0  0
 43 44  2  0  0  0  0
 44 45  1  0  0  0  0
 45 46  1  0  0  0  0
 46 47  1  0  0  0  0
 47 48  1  0  0  0  0
 48 49  1  0  0  0  0
 47 50  2  0  0  0  0
 50 51  1  0  0  0  0
 50 52  1  0  0  0  0
 52 53  1  0  0  0  0
 44 54  1  0  0  0  0
 54 55  2  0  0  0  0
 55 56  1  0  0  0  0
 56 57  1  0  0  0  0
 57 58  1  0  0  0  0
 58 59  1  0  0  0  0
 59 60  1  0  0  0  0
 60 61  1  0  0  0  0
 59 62  2  0  0  0  0
 62 63  1  0  0  0  0
 63 64  1  0  0  0  0
 62 65  1  0  0  0  0
 56 66  2  0  0  0  0
 66 67  1  0  0  0  0
 55 68  1  0  0  0  0
 68 69  2  0  0  0  0
 69 70  1  0  0  0  0
 69 71  1  0  0  0  0
 71 72  2  0  0  0  0
 72 73  1  0  0  0  0
 73 74  2  0  0  0  0
 74 75  1  0  0  0  0
 75 76  1  0  0  0  0
 76 77  1  0  0  0  0
 77 78  1  0  0  0  0
 78 79  1  0  0  0  0
 77 80  2  0  0  0  0
 80 81  1  0  0  0  0
 80 82  1  0  0  0  0
 82 83  1  0  0  0  0
 74 84  1  0  0  0  0
 84 85  2  0  0  0  0
 85 86  1  0  0  0  0
 86 87  1  0  0  0  0
 87 88  1  0  0  0  0
 88 89  1  0  0  0  0
 89 90  1  0  0  0  0
 90 91  1  0  0  0  0
 89 92  2  0  0  0  0
 92 93  1  0  0  0  0
 93 94  1  0  0  0  0
 92 95  1  0  0  0  0
 86 96  2  0  0  0  0
 96 97  1  0  0  0  0
 85 98  1  0  0  0  0
 98 99  2  0  0  0  0
 99100  1  0  0  0  0
 99101  1  0  0  0  0
101102  2  0  0  0  0
102103  1  0  0  0  0
103104  2  0  0  0  0
104105  1  0  0  0  0
105106  1  0  0  0  0
106107  1  0  0  0  0
107108  1  0  0  0  0
108109  1  0  0  0  0
107110  2  0  0  0  0
110111  1  0  0  0  0
110112  1  0  0  0  0
112113  1  0  0  0  0
104114  1  0  0  0  0
114115  2  0  0  0  0
115116  1  0  0  0  0
116117  1  0  0  0  0
117118  1  0  0  0  0
118119  1  0  0  0  0
119120  1  0  0  0  0
120121  1  0  0  0  0
119122  2  0  0  0  0
122123  1  0  0  0  0
123124  1  0  0  0  0
122125  1  0  0  0  0
116126  2  0  0  0  0
126127  1  0  0  0  0
115128  1  0  0  0  0
128129  2  0  0  0  0
129130  1  0  0  0  0
129131  1  0  0  0  0
131132  2  0  0  0  0
132133  1  0  0  0  0
133134  2  0  0  0  0
134135  1  0  0  0  0
135136  1  0  0  0  0
136137  1  0  0  0  0
137138  1  0  0  0  0
138139  1  0  0  0  0
137140  2  0  0  0  0
140141  1  0  0  0  0
140142  1  0  0  0  0
142143  1  0  0  0  0
134144  1  0  0  0  0
144145  2  0  0  0  0
145146  1  0  0  0  0
146147  1  0  0  0  0
147148  1  0  0  0  0
148149  1  0  0  0  0
149150  1  0  0  0  0
150151  1  0  0  0  0
149152  2  0  0  0  0
152153  1  0  0  0  0
153154  1  0  0  0  0
152155  1  0  0  0  0
146156  2  0  0  0  0
156157  1  0  0  0  0
145158  1  0  0  0  0
158159  2  0  0  0  0
159160  1  0  0  0  0
 27  1  1  0  0  0  0
 38 33  2  0  0  0  0
 67 41  1  0  0  0  0
 97 71  1  0  0  0  0
127101  1  0  0  0  0
157131  1  0  0  0  0
 26  3  1  0  0  0  0
 66 43  1  0  0  0  0
 96 73  1  0  0  0  0
126103  1  0  0  0  0
156133  1  0  0  0  0
 12  5  2  0  0  0  0
 30 14  1  0  0  0  0
 52 45  2  0  0  0  0
 70 54  1  0  0  0  0
 82 75  2  0  0  0  0
100 84  1  0  0  0  0
112105  2  0  0  0  0
130114  1  0  0  0  0
142135  2  0  0  0  0
160144  1  0  0  0  0
 23 17  2  0  0  0  0
 63 57  2  0  0  0  0
 93 87  2  0  0  0  0
123117  2  0  0  0  0
153147  2  0  0  0  0
  1161  1  0  0  0  0
  2162  1  0  0  0  0
  8163  1  0  0  0  0
  8164  1  0  0  0  0
  9165  1  0  0  0  0
  9166  1  0  0  0  0
  9167  1  0  0  0  0
 20168  1  0  0  0  0
 20169  1  0  0  0  0
 21170  1  0  0  0  0
 21171  1  0  0  0  0
 21172  1  0  0  0  0
 28173  1  0  0  0  0
 32174  1  0  0  0  0
 32175  1  0  0  0  0
 36176  1  0  0  0  0
 36177  1  0  0  0  0
 36178  1  0  0  0  0
 38179  1  0  0  0  0
 39180  1  0  0  0  0
 40181  1  0  0  0  0
 42182  1  0  0  0  0
 48183  1  0  0  0  0
 48184  1  0  0  0  0
 49185  1  0  0  0  0
 49186  1  0  0  0  0
 49187  1  0  0  0  0
 60188  1  0  0  0  0
 60189  1  0  0  0  0
 61190  1  0  0  0  0
 61191  1  0  0  0  0
 61192  1  0  0  0  0
 68193  1  0  0  0  0
 72194  1  0  0  0  0
 78195  1  0  0  0  0
 78196  1  0  0  0  0
 79197  1  0  0  0  0
 79198  1  0  0  0  0
 79199  1  0  0  0  0
 90200  1  0  0  0  0
 90201  1  0  0  0  0
 91202  1  0  0  0  0
 91203  1  0  0  0  0
 91204  1  0  0  0  0
 98205  1  0  0  0  0
102206  1  0  0  0  0
108207  1  0  0  0  0
108208  1  0  0  0  0
109209  1  0  0  0  0
109210  1  0  0  0  0
109211  1  0  0  0  0
120212  1  0  0  0  0
120213  1  0  0  0  0
121214  1  0  0  0  0
121215  1  0  0  0  0
121216  1  0  0  0  0
128217  1  0  0  0  0
132218  1  0  0  0  0
138219  1  0  0  0  0
138220  1  0  0  0  0
139221  1  0  0  0  0
139222  1  0  0  0  0
139223  1  0  0  0  0
150224  1  0  0  0  0
150225  1  0  0  0  0
151226  1  0  0  0  0
151227  1  0  0  0  0
151228  1  0  0  0  0
158229  1  0  0  0  0
159230  1  0  0  0  0
M  END
