270

C          3.93700        1.35580        9.86560
C          4.58220        0.17320        9.87630
C          3.70100       -0.94100       10.02030
C          4.01780       -2.30580       10.02670
C          5.40660       -2.78000        9.99080
C          6.35360       -2.28570       10.88630
C          7.64510       -2.76790       10.87980
C          8.04590       -3.74850        9.97580
S          9.73500       -4.27820       10.03050
C          9.60720       -6.09910        9.88270
C          8.73820       -6.69620       10.97150
C          7.09950       -4.20850        9.06600
F          7.43090       -5.12720        8.13140
C          5.79770       -3.75170        9.07550
C          2.95060       -3.19200       10.08190
C          1.59670       -2.78330       10.15510
C          1.28300       -1.41560       10.18340
C         -0.09790       -0.92230       10.26680
C         -1.07280       -1.36170        9.37530
C         -2.35100       -0.84800        9.42360
C         -2.71170        0.10600       10.37070
S         -4.38920        0.67720       10.36850
C         -4.21420        2.48920       10.56640
C         -3.35900        3.09920        9.47400
C         -1.73850        0.50900       11.27910
C         -0.44730        0.02490       11.22440
F         -2.03210        1.39600       12.25620
C          2.35030       -0.53070       10.10980
S          2.22080        1.21060       10.03590
C          0.71540       -3.89730       10.22170
C          1.34440       -5.10180       10.18040
S          3.08600       -4.92630       10.10610
C          0.73910       -6.42710       10.21040
C         -0.46180       -6.61620       10.77540
C          1.45010       -7.54030        9.59660
S          2.52290       -7.29540        8.24920
C          2.79690       -8.99350        8.08550
C          3.72190       -9.48780        7.03090
C          2.09240       -9.70860        9.01910
C          1.34820       -8.87070        9.88810
C          2.01470      -11.17550        9.02920
C          1.53380      -11.86710        7.99100
C          0.98530      -11.19010        6.82780
C          1.28690      -11.33680        5.51170
C          0.76950      -10.29200        4.68820
C          1.00650      -10.02270        3.33050
C          1.79300      -10.92460        2.47750
C          3.07300      -11.33130        2.83970
C          3.81820      -12.16010        2.02270
C          3.30940      -12.60900        0.80970
S          4.13650      -13.68630       -0.31330
C          5.88240      -13.63480        0.21970
C          6.53340      -12.29520       -0.06750
C          2.02270      -12.19440        0.46060
F          1.49300      -12.61880       -0.70370
C          1.27160      -11.36670        1.26360
C          0.51380       -8.82180        2.83230
C         -0.15130       -7.86510        3.63720
C         -0.43990       -8.15750        4.97350
C         -1.05930       -7.20160        5.90000
C         -2.19450       -7.54490        6.62430
C         -2.73650       -6.67950        7.55480
C         -2.14950       -5.44540        7.80220
S         -2.73820       -4.24680        8.95200
C         -4.34890       -4.88420        9.52280
C         -4.21770       -5.87250       10.66640
C         -1.00170       -5.12260        7.07610
C         -0.45990       -5.96770        6.13620
F         -0.39390       -3.93770        7.29590
C          0.00270       -9.37790        5.44950
S         -0.12410       -9.86200        7.11010
C         -0.40950       -6.66090        2.93730
C          0.03010       -6.67640        1.64950
S          0.75760       -8.20960        1.21300
C         -0.01490       -5.55210        0.76020
C          0.12230       -4.25610        1.15500
C          0.00710       -3.32080        0.09620
C          0.10530       -1.92130        0.17040
C          0.33520       -1.24900        1.45480
C          1.35650       -0.31230        1.61140
C          1.59470        0.26440        2.83790
C          0.83780       -0.05610        3.96950
S          1.37180        0.73030        5.45630
C          0.14140        0.37930        6.76020
C         -1.13430        1.17920        6.59330
C         -0.19350       -0.97290        3.78980
F         -1.00330       -1.35000        4.80720
C         -0.44720       -1.55410        2.56240
C         -0.01800       -1.23050       -1.02490
C         -0.28760       -1.86700       -2.26280
C         -0.39660       -3.26640       -2.33230
C         -0.72290       -3.94920       -3.58930
C          0.03480       -5.02220       -4.04710
C         -0.28590       -5.67480       -5.22190
C         -1.38830       -5.28770       -5.97560
S         -1.91000       -6.02350       -7.48650
C         -0.97410       -7.58910       -7.56880
C         -1.45530       -8.60420       -6.54940
C         -2.13720       -4.20640       -5.50550
C         -1.82300       -3.54140       -4.34290
F         -3.21420       -3.79910       -6.20740
C         -0.21270       -3.96260       -1.14700
S         -0.27740       -5.69870       -0.96260
C         -0.39240       -0.93270       -3.32440
C         -0.23420        0.36270       -2.92870
S          0.06990        0.50020       -1.20930
C         -0.30660        1.53440       -3.74370
C         -0.82350        1.63790       -5.00130
C         -0.77380        2.95250       -5.53020
C         -1.23650        3.39470       -6.78150
C         -1.77280        2.45880       -7.77590
C         -2.99380        2.69100       -8.40070
C         -3.48820        1.81920       -9.35140
C         -2.76990        0.68900       -9.72570
S         -3.27380       -0.50170      -10.91870
C         -4.68700        0.28340      -11.76750
C         -4.25940        1.43010      -12.66400
C         -1.54820        0.46620       -9.08570
F         -0.82100       -0.61930       -9.41960
C         -1.04990        1.31980       -8.12880
C         -1.14000        4.75480       -7.03370
C         -0.54800        5.66440       -6.12370
C         -0.04460        5.21720       -4.89050
C          0.62530        6.15120       -3.97750
C          1.63290        6.99470       -4.44700
C          2.25020        7.89260       -3.60350
C          1.88490        7.99240       -2.26280
S          2.69290        9.22950       -1.28870
C          3.02030        8.38960        0.30380
C          3.84150        7.12960        0.11980
C          0.87580        7.14920       -1.80830
C          0.26290        6.23090       -2.63750
F          0.44790        7.21400       -0.52890
C         -0.20530        3.86980       -4.60990
S          0.28170        3.06960       -3.14010
C         -0.57090        6.99160       -6.61430
C         -1.12190        7.10900       -7.85680
S         -1.66250        5.56890       -8.48760
C         -1.25250        8.32720       -8.59290
C         -0.65060        9.50860       -8.27540
C         -0.96620       10.56560       -9.16310
C         -0.50630       11.89020       -9.10390
C          0.46720       12.27640       -8.07450
C          1.64820       11.54890       -7.92280
C          2.52340       11.83420       -6.89880
C          2.25960       12.85440       -5.98590
S          3.42650       13.10460       -4.68550
C          2.37010       13.57700       -3.25730
C          3.05740       13.15080       -1.97550
C          1.11100       13.61410       -6.18920
F          0.82340       14.65730       -5.37950
C          0.22000       13.33310       -7.20640
C         -1.01970       12.76500      -10.04750
C         -1.92310       12.36080      -11.06140
C         -2.35110       11.02650      -11.14290
C         -3.25600       10.57320      -12.20690
C         -2.97610       10.83700      -13.54410
C         -3.81920       10.40880      -14.55210
C         -4.98050        9.70420      -14.25460
S         -6.14690        9.11030      -15.42920
C         -5.50430        9.73750      -17.02600
C         -6.47390        9.34520      -18.12500
C         -5.24440        9.44010      -12.90850
C         -4.40970        9.85530      -11.89700
F         -6.36260        8.75900      -12.58640
C         -1.87310       10.15890      -10.17080
S         -2.25200        8.45980      -10.02470
C         -2.30310       13.46120      -11.88730
C         -1.70340       14.61610      -11.53510
S         -0.63970       14.46240      -10.17830
H          4.35720        2.33750        9.76630
H          5.64660        0.07320        9.76440
H          6.06280       -1.54310       11.61370
H          8.37210       -2.39550       11.58470
H          9.24380       -6.34880        8.88820
H         10.64110       -6.43110        9.97720
H          7.70620       -6.36450       10.87040
H          8.75830       -7.78220       10.90280
H          9.10120       -6.40100       11.95390
H          5.10610       -4.14130        8.34500
H         -0.81890       -2.08620        8.62190
H         -3.09530       -1.18210        8.71820
H         -3.81890        2.69890       11.55790
H         -5.24180        2.84840       10.50990
H         -3.75850        2.85250        8.49220
H         -3.34390        4.18170        9.58330
H         -2.33490        2.73420        9.53350
H          0.26700        0.37330       11.95410
H         -0.35210       -3.78870       10.26600
H         -0.94060       -7.57860       10.76000
H         -0.98340       -5.81410       11.26410
H          4.67020       -8.95340        7.07870
H          3.29630       -9.32350        6.03970
H          3.90550      -10.55220        7.15990
H          0.74720       -9.25660       10.69180
H          2.36800      -11.68530        9.91530
H          1.54650      -12.94860        7.98450
H          1.91980      -12.12270        5.14020
H          3.50590      -10.97610        3.76290
H          4.80380      -12.45580        2.34420
H          5.93650      -13.90890        1.27260
H          6.34870      -14.42600       -0.36730
H          7.57900      -12.31940        0.23350
H          6.03420      -11.49310        0.47220
H          6.48230      -12.07480       -1.13110
H          0.28130      -11.08170        0.94510
H         -2.66830       -8.49900        6.45030
H         -3.62310       -6.98090        8.08770
H         -4.87720       -3.98800        9.84950
H         -4.87050       -5.30310        8.66350
H         -3.74210       -5.39570       11.52030
H         -5.20430       -6.21810       10.96960
H         -3.61880       -6.73360       10.37860
H          0.43790       -5.67470        5.61490
H         -0.91610       -5.82190        3.37810
H          0.34030       -3.97940        2.16980
H          1.98260       -0.05500        0.77140
H          2.39520        0.97840        2.95510
H         -0.04150       -0.69110        6.78810
H          0.66110        0.67000        7.67400
H         -1.79730        0.97020        7.43010
H         -1.64740        0.91030        5.67350
H         -0.91620        2.24480        6.57150
H         -1.27680       -2.24020        2.48410
H          0.90250       -5.34020       -3.48970
H          0.34040       -6.48850       -5.54850
H         -1.16030       -7.94120       -8.58350
H          0.08770       -7.36750       -7.47000
H         -0.89750       -9.53220       -6.65910
H         -1.32050       -8.23620       -5.53450
H         -2.51180       -8.81330       -6.69980
H         -2.45380       -2.73050       -4.01320
H         -0.55040       -1.21880       -4.34790
H         -1.26340        0.80950       -5.52530
H         -3.57980        3.55430       -8.12510
H         -4.44740        2.02900       -9.79510
H         -5.11180       -0.53000      -12.35580
H         -5.41850        0.58690      -11.01980
H         -3.55560        1.07630      -13.41370
H         -5.12760        1.84740      -13.17040
H         -3.77950        2.22010      -12.09030
H         -0.08830        1.11120       -7.68620
H          1.95040        6.92310       -5.47620
H          3.03170        8.54020       -3.96980
H          3.56980        9.13940        0.87310
H          2.07280        8.19070        0.79980
H          4.08300        6.70580        1.09240
H          3.28890        6.38480       -0.45050
H          4.76820        7.35060       -0.40600
H         -0.52160        5.61130       -2.23230
H         -0.21970        7.83210       -6.04550
H         -0.00290        9.63180       -7.42770
H          1.87500       10.75380       -8.61700
H          3.42890       11.26070       -6.77480
H          2.21590       14.65480       -3.28790
H          1.41820       13.06300       -3.37990
H          4.03490       13.62030       -1.89200
H          3.18600       12.07090       -1.95120
H          2.45310       13.44890       -1.12140
H         -0.66990       13.93580       -7.29960
H         -2.07140       11.36620      -13.80350
H         -3.56040       10.62660      -15.57530
H         -4.52380        9.29180      -17.19540
H         -5.41900       10.82170      -16.95100
H         -6.11260        9.70890      -19.08450
H         -7.45590        9.77260      -17.93610
H         -6.57370        8.26360      -18.17600
H         -4.67460        9.63540      -10.87510
H         -3.00880       13.37720      -12.69370
H         -1.81790       15.58230      -11.98640
