234

C         10.00410       13.59210        0.08030
C          8.90410       14.30230       -0.24210
C          7.69190       13.58190       -0.02310
C          6.37300       14.01540       -0.22970
C          6.06910       15.31500       -0.84010
C          6.67440       15.70000       -2.03280
C          6.36790       16.90500       -2.63470
C          5.43910       17.76900       -2.06600
S          4.97390       19.34030       -2.71460
C          5.56010       19.30050       -4.44370
C          4.76400       18.33390       -5.29970
C          4.84560       17.37310       -0.86610
F          3.95070       18.19210       -0.27710
C          5.14100       16.17480       -0.25710
C          5.36310       13.13580        0.13340
C          5.62160       11.84980        0.66360
C          6.94000       11.40720        0.85510
C          7.18570       10.05800        1.37730
C          6.57770        9.63820        2.55770
C          6.70510        8.33780        3.00180
C          7.42490        7.40320        2.26530
S          7.56810        5.69850        2.68610
C          6.09700        5.39160        3.72480
C          4.79650        5.62290        2.98050
C          8.07820        7.85330        1.11750
C          7.97560        9.15310        0.67330
F          8.81390        6.98180        0.39830
C          7.94660       12.29020        0.49990
S          9.65870       12.00310        0.67290
C          4.42830       11.11810        0.87230
C          3.29820       11.79710        0.52300
S          3.64940       13.40090       -0.08580
C          1.97400       11.28150        0.62460
S          1.72740        9.74860        1.41400
C          0.01020        9.80620        1.10780
C         -0.32630       10.93810        0.39870
C          0.78650       11.78100        0.14910
S          0.67030       13.28610       -0.75950
C         -0.22650       14.29010        0.48200
C         -1.46370       13.59590        1.03770
C         -2.29320       12.93710       -0.05330
S         -1.91740       11.15210       -0.31010
C         -0.78210        8.67910        1.49370
S         -0.10890        7.09200        1.27510
C         -1.57550        6.34510        1.84160
C         -2.51340        7.28920        2.21080
C         -2.04940        8.62140        2.03210
S         -2.81270       10.11480        2.56640
C         -4.57300        9.78290        2.20870
C         -5.29470        9.20030        3.41390
C         -4.52330        8.03740        4.01720
S         -4.09890        6.76390        2.77230
C         -1.63390        4.92030        1.84050
C         -0.55300        4.08710        1.76500
C         -0.88990        2.71550        1.68700
C         -0.02060        1.61110        1.62290
C          1.43790        1.77300        1.63560
C          2.22570        1.03990        2.52320
C          3.59190        1.20310        2.54890
C          4.24150        2.10230        1.70000
S          5.98490        2.24790        1.94500
C          6.69980        2.91320        0.40030
C          6.54440        1.95090       -0.75900
C          3.44120        2.82200        0.81800
F          3.97340        3.72860       -0.03650
C          2.07060        2.66030        0.77280
C         -0.61310        0.36000        1.55140
C         -2.01700        0.17050        1.54760
C         -2.88670        1.26970        1.66070
C         -4.33790        1.06450        1.71150
C         -5.21230        1.79250        0.90640
C         -6.56530        1.53050        0.92400
C         -7.10680        0.54440        1.74840
S         -8.85250        0.29470        1.68840
C         -9.04310       -1.51530        1.95400
C        -10.42020       -1.93530        1.48140
C         -6.22870       -0.13680        2.58650
C         -4.87080        0.10330        2.56650
F         -6.67850       -1.06430        3.46250
C         -2.29540        2.52200        1.70780
S         -3.14540        4.04070        1.84370
C         -2.36460       -1.18710        1.35110
C         -1.28980       -2.01930        1.22930
S          0.22910       -1.15780        1.36140
C         -1.34090       -3.42370        0.97790
C         -2.46880       -4.19040        0.92000
C         -2.22610       -5.53890        0.56470
C         -3.17570       -6.55600        0.35850
C         -4.61360       -6.27960        0.46290
C         -5.45020       -7.08390        1.23480
C         -6.79710       -6.80670        1.33430
C         -7.36180       -5.71650        0.67600
S         -9.08970       -5.41780        0.88610
C         -9.61320       -4.86610       -0.79030
C        -11.08130       -5.18930       -0.98190
C         -6.51260       -4.91110       -0.07600
F         -6.98320       -3.80700       -0.70270
C         -5.16760       -5.18920       -0.20210
C         -2.68040       -7.80870        0.03160
C         -1.29490       -8.06630       -0.11450
C         -0.34650       -7.04150        0.05090
C          1.07870       -7.31630       -0.16520
C          2.04560       -6.96200        0.77430
C          3.36510       -7.30690        0.58330
C          3.78830       -8.02530       -0.53870
S          5.49130       -8.48200       -0.54680
C          5.94440       -8.85450       -2.27810
C          5.85970       -7.63210       -3.16960
C          2.81410       -8.35030       -1.47760
C          1.49200       -7.99210       -1.30920
F          3.10940       -9.04860       -2.60080
C         -0.84070       -5.79680        0.40420
S          0.10540       -4.35020        0.63970
C         -1.04520       -9.41500       -0.45680
C         -2.17430      -10.15940       -0.63830
S         -3.62750       -9.23280       -0.32730
C         -2.19200      -11.50900       -1.10730
C         -1.09180      -12.19800       -1.52750
C         -1.38210      -13.48530       -2.03610
C         -0.46900      -14.42150       -2.54740
C          0.95020      -14.06730       -2.67250
C          1.32320      -12.87050       -3.28650
C          2.64620      -12.49330       -3.35250
C          3.65250      -13.28830       -2.80620
S          5.29980      -12.64550       -2.86230
C          6.34670      -14.10310       -3.21790
C          5.94420      -14.78580       -4.50930
C          3.26870      -14.48500       -2.20880
F          4.18430      -15.30030       -1.63980
C          1.94730      -14.88350       -2.15200
C         -0.99240      -15.64700       -2.92760
C         -2.37280      -15.95520       -2.84420
C         -3.28520      -15.01100       -2.34730
C         -4.71810      -15.31100       -2.23610
C         -5.15900      -16.46280       -1.59090
C         -6.50590      -16.74860       -1.47690
C         -7.46220      -15.89670       -2.01750
S         -9.20650      -16.13330       -1.94020
C         -9.39960      -17.89150       -1.48590
C         -8.98570      -18.82510       -2.60740
C         -7.00580      -14.73810       -2.64910
C         -5.66750      -14.43630       -2.76000
F         -7.90530      -13.88570       -3.17840
C         -2.76360      -13.78440       -1.96080
S         -3.66190      -12.44140       -1.29460
C         -2.64820      -17.25310       -3.37100
C         -1.54440      -17.88960       -3.81050
S         -0.09080      -16.96900       -3.62330
H         11.02940       13.89970        0.01220
H          8.93220       15.31360       -0.60510
H          7.37940       15.03610       -2.51010
H          6.86420       17.16600       -3.55530
H          6.62720       19.08150       -4.44770
H          5.41740       20.32670       -4.78250
H          3.71120       18.60580       -5.29080
H          4.85670       17.31500       -4.92970
H          5.12370       18.36570       -6.32640
H          4.65700       15.92590        0.67380
H          6.00470       10.34410        3.14030
H          6.23280        8.05120        3.92770
H          6.20330        4.34080        3.99430
H          6.17140        5.99480        4.62910
H          4.77810        5.03630        2.06730
H          3.95720        5.31920        3.60360
H          4.66970        6.66960        2.71230
H          8.47640        9.44050       -0.23760
H          4.40410       10.10720        1.23820
H         -0.49560       15.19540       -0.06130
H          0.47450       14.54480        1.27680
H         -2.07090       14.34760        1.54850
H         -1.17790       12.84990        1.78390
H         -2.15600       13.43880       -1.01090
H         -3.35220       12.93700        0.20190
H         -4.59800        9.10700        1.35600
H         -5.00240       10.74010        1.91690
H         -5.41750        9.96760        4.18190
H         -6.28500        8.86580        3.09740
H         -5.12240        7.51450        4.76140
H         -3.59250        8.36770        4.47520
H          0.45680        4.45590        1.78190
H          1.75890        0.35000        3.20880
H          4.19490        0.63710        3.24180
H          7.74870        3.05500        0.66170
H          6.26240        3.88590        0.19010
H          5.49550        1.81170       -1.01290
H          6.97220        0.98150       -0.51130
H          7.05830        2.34830       -1.63170
H          1.51010        3.22940        0.04720
H         -4.82420        2.54360        0.23670
H         -7.23530        2.08240        0.28350
H         -8.91550       -1.72890        3.01340
H         -8.25940       -2.00680        1.37890
H        -10.55240       -1.70200        0.42700
H        -11.19170       -1.41770        2.04720
H        -10.53900       -3.00680        1.62760
H         -4.23900       -0.44570        3.24790
H         -3.38020       -1.52400        1.26070
H         -3.44810       -3.80860        1.13950
H         -5.03860       -7.92590        1.76920
H         -7.44100       -7.43300        1.93150
H         -8.99520       -5.40400       -1.50770
H         -9.43100       -3.79600       -0.87480
H        -11.25410       -6.25790       -0.87720
H        -11.39720       -4.87920       -1.97570
H        -11.68830       -4.66740       -0.24550
H         -4.56210       -4.55180       -0.82810
H          1.75580       -6.43410        1.66930
H          4.10740       -7.04030        1.31960
H          6.97450       -9.20040       -2.18710
H          5.33290       -9.67910       -2.63670
H          6.21680       -7.88330       -4.16610
H          6.47160       -6.82590       -2.77040
H          4.83480       -7.27850       -3.25300
H          0.78890       -8.24800       -2.08710
H         -0.05550       -9.81860       -0.55270
H         -0.09390      -11.80650       -1.47330
H          0.56690      -12.24350       -3.73360
H          2.92580      -11.56220       -3.82020
H          7.34800      -13.67830       -3.29180
H          6.31110      -14.78100       -2.36820
H          6.63560      -15.59790       -4.72490
H          5.96390      -14.07970       -5.33700
H          4.94080      -15.20090       -4.43280
H          1.70810      -15.81400       -1.66110
H         -4.43790      -17.13320       -1.14750
H         -6.80480      -17.64140       -0.95190
H         -8.85220      -18.07840       -0.56290
H        -10.46590      -17.98320       -1.27960
H         -9.15390      -19.85870       -2.31060
H         -9.57110      -18.61980       -3.50060
H         -7.93300      -18.70030       -2.85190
H         -5.37440      -13.53430       -3.27320
H         -3.63800      -17.66800       -3.42960
H         -1.47700      -18.86660       -4.24790
