227

C          7.59150      -12.85150       10.11210
C          8.29960      -12.92490        8.96770
C          7.76000      -12.11200        7.92590
C          8.23650      -11.95460        6.61520
C          9.39700      -12.70420        6.11910
C          9.47330      -14.08980        6.25630
C         10.55870      -14.78440        5.76980
C         11.61840      -14.13190        5.13810
S         12.96790      -15.13920        4.61130
C         13.68410      -14.23940        3.17830
C         14.48240      -15.21840        2.34020
C         11.53570      -12.74760        5.02410
F         12.53670      -12.03210        4.46050
C         10.44410      -12.04200        5.48820
C          7.55200      -11.05840        5.80850
C          6.40810      -10.34760        6.24410
C          5.91370      -10.52270        7.54770
C          4.71990       -9.79190        7.98950
C          4.70980       -9.06990        9.18150
C          3.61450       -8.30940        9.53420
C          2.48840       -8.24200        8.71850
S          1.14010       -7.21110        9.22480
C          0.72780       -6.29230        7.68410
C         -0.63240       -6.66190        7.12840
C          2.48610       -9.01750        7.56340
C          3.57770       -9.77390        7.19240
F          1.40160       -9.04360        6.75680
C          6.61980      -11.39450        8.36380
S          6.22790      -11.78910       10.01820
C          5.91140       -9.48990        5.23520
C          6.59540       -9.55250        4.05470
S          7.93340      -10.68190        4.14600
C          6.26490       -8.79910        2.89130
S          4.80590       -7.84880        2.95660
C          5.06700       -7.24480        1.34380
C          6.23030       -7.76450        0.80670
C          6.89900       -8.65340        1.67270
C          8.18160       -9.33610        1.30700
C          9.37020       -8.74420        2.02080
C          9.39410       -7.58790        2.65570
C          8.40270       -9.26920       -0.21280
C          8.19950       -7.84470       -0.71260
C          6.73350       -7.44630       -0.56620
C          4.14420       -6.32770        0.77090
C          3.01580       -5.93470        1.40040
C          2.07560       -4.98340        0.92340
C          0.94960       -4.57520        1.58370
C          0.21650       -3.56950        0.91060
C         -0.93720       -2.89870        1.35830
C         -1.60620       -3.29670        2.60230
C         -1.93080       -4.63040        2.83770
C         -2.55540       -5.02160        4.00600
C         -2.88100       -4.08970        4.98540
S         -3.63710       -4.45550        6.53460
C         -4.32180       -6.13420        6.31520
C         -5.49960       -6.15490        5.35990
C         -2.55090       -2.75620        4.73540
F         -2.84010       -1.82660        5.66770
C         -1.93250       -2.35270        3.57360
C         -1.39480       -1.85610        0.56700
C         -0.77300       -1.49990       -0.65430
C          0.37350       -2.17380       -1.10970
C          1.01840       -1.75020       -2.35910
C          1.33770       -0.40930       -2.56380
C          1.85680        0.03180       -3.76460
C          2.08500       -0.86040       -4.80650
S          2.66340       -0.41230       -6.40970
C          3.36410        1.25850       -6.18420
C          4.64270        1.23650       -5.37010
C          1.79560       -2.20650       -4.57580
C          1.27610       -2.65820       -3.38230
F          2.01220       -3.10190       -5.56190
C          0.83820       -3.20300       -0.31180
S          2.27810       -4.14290       -0.60400
C         -1.44520       -0.44010       -1.30050
C         -2.51490        0.04580       -0.60500
S         -2.77990       -0.83630        0.88450
C         -3.27380        1.19080       -0.99430
C         -2.99930        1.95850       -2.08940
C         -3.82090        3.10050       -2.21140
C         -3.74320        4.10110       -3.19530
C         -2.69110        4.02950       -4.21850
C         -2.98660        4.06780       -5.57760
C         -1.99500        3.89640       -6.52460
C         -0.67580        3.67690       -6.14580
S          0.65640        3.42870       -7.28210
C         -0.12170        2.44120       -8.60720
C         -0.60680        1.09750       -8.10130
C         -0.38690        3.68920       -4.78320
F          0.88710        3.49460       -4.37570
C         -1.36320        3.86160       -3.82810
C         -4.67990        5.11570       -3.11930
C         -5.64980        5.19200       -2.08640
C         -5.70780        4.20220       -1.08940
C         -6.68970        4.27000        0.00000
C         -7.51840        3.18590        0.28180
C         -8.43950        3.25360        1.30550
C         -8.57280        4.40040        2.08380
S         -9.81860        4.40810        3.34320
C         -8.94060        5.11330        4.78750
C         -7.72360        4.29220        5.16280
C         -7.75010        5.48080        1.78150
C         -6.81330        5.42230        0.77010
F         -7.84650        6.63820        2.47400
C         -4.79320        3.16460       -1.18500
S         -4.61620        1.83040       -0.06850
C         -6.47780        6.33330       -2.22370
C         -6.16430        7.12310       -3.29140
S         -4.80690        6.47390       -4.20130
C         -6.74000        8.35830       -3.71280
S         -5.80260        9.37020       -4.77700
C         -7.02350       10.60800       -4.75420
C         -8.09570       10.22830       -3.96590
C         -7.95250        8.94810       -3.39600
C         -9.01990        8.31540       -2.54610
C         -9.35220        6.90220       -2.95160
C         -9.26530        6.42830       -4.17970
C        -10.32170        9.13490       -2.60010
C        -10.03490       10.62400       -2.47310
C         -9.28790       11.09860       -3.71480
C         -6.85000       11.82210       -5.47140
C         -5.76270       12.09890       -6.22440
C         -5.54840       13.30970       -6.93390
S         -6.73280       14.58590       -6.91880
C         -5.75210       15.58270       -7.95560
C         -4.58130       14.93790       -8.29840
C         -4.45700       13.66150       -7.70940
C         -3.26770       12.76250       -7.92380
C         -2.71120       12.24620       -6.62590
C         -2.34610       10.99550       -6.41550
C         -2.14920       13.51090       -8.66610
C         -2.71570       14.33260       -9.81530
C         -3.56080       15.47210       -9.25360
C         -6.27630       16.87490       -8.30750
C         -5.60130       17.92110       -8.78020
H          7.78160      -13.35680       11.03880
H          9.18760      -13.51930        8.85230
H          8.65960      -14.62550        6.72100
H         10.60910      -15.85770        5.86810
H         12.85350      -13.82080        2.61200
H         14.31710      -13.43760        3.55510
H         14.91080      -14.70290        1.48320
H         15.29000      -15.65170        2.92600
H         13.84550      -16.02450        1.98250
H         10.44050      -10.96880        5.37830
H          5.58170       -9.07350        9.81670
H          3.62020       -7.73390       10.44650
H          0.75320       -5.24070        7.97040
H          1.52460       -6.48600        6.96910
H         -0.66440       -7.71380        6.85640
H         -1.40630       -6.46390        7.86650
H         -0.83180       -6.06110        6.24220
H          3.51860      -10.36500        6.29150
H          5.08180       -8.82200        5.38000
H          8.11710      -10.39280        1.59780
H         10.26790       -9.34480        1.95340
H         10.29080       -7.22110        3.12580
H          8.52230       -6.96030        2.74370
H          9.41250       -9.61270       -0.44330
H          7.69510       -9.93470       -0.71250
H          8.49720       -7.76410       -1.75920
H          8.82620       -7.16820       -0.12760
H          6.60940       -6.38120       -0.77350
H          6.13040       -7.99400       -1.29860
H          4.37840       -5.93560       -0.20960
H          2.78690       -6.35230        2.37360
H          0.67440       -4.96310        2.54790
H         -1.70770       -5.37270        2.08600
H         -2.78220       -6.06590        4.14910
H         -3.52030       -6.80370        6.00660
H         -4.63460       -6.41200        7.32180
H         -6.28670       -5.49680        5.72020
H         -5.89700       -7.16530        5.28520
H         -5.20420       -5.82300        4.36670
H         -1.69290       -1.30940        3.44300
H          1.18330        0.30130       -1.76570
H          2.06440        1.08210       -3.88750
H          3.55750        1.59110       -7.20400
H          2.60560        1.90810       -5.75240
H          5.38630        0.60320       -5.84910
H          4.46140        0.85510       -4.36720
H          5.04150        2.24560       -5.29010
H          1.05240       -3.70720       -3.26790
H         -1.14090       -0.05960       -2.25670
H         -2.22910        1.71870       -2.79740
H         -4.00720        4.21290       -5.89680
H         -2.25470        3.92570       -7.57110
H         -0.92170        3.02660       -9.05870
H          0.67800        2.31950       -9.33750
H         -1.37870        1.22490       -7.34400
H          0.21730        0.53460       -7.66810
H         -1.02260        0.52200       -8.92580
H         -1.08630        3.86660       -2.78530
H         -7.44470        2.28860       -0.31280
H         -9.07930        2.41240        1.52170
H         -9.69260        5.08800        5.57610
H         -8.68520        6.14900        4.57450
H         -7.27130        4.69860        6.06520
H         -6.98110        4.31160        4.36670
H         -8.00280        3.25700        5.34750
H         -6.17800        6.27740        0.59720
H         -7.27120        6.55370       -1.53830
H         -8.66860        8.31580       -1.50550
H         -9.75760        6.28400       -2.16060
H         -8.88120        7.02020       -4.99400
H         -9.56340        5.42260       -4.42070
H        -10.98390        8.79940       -1.80020
H        -10.82230        8.94500       -3.55230
H         -9.42750       10.80760       -1.58400
H        -10.96760       11.18050       -2.36730
H         -8.97170       12.13650       -3.59230
H         -9.95610       11.05770       -4.58150
H         -7.64460       12.55210       -5.39350
H         -4.97830       11.35880       -6.30170
H         -3.58550       11.91050       -8.53890
H         -2.58320       12.99360       -5.85360
H         -1.92260       10.67330       -5.47990
H         -2.46630       10.23330       -7.16880
H         -1.42090       12.78420       -9.03010
H         -1.63570       14.17700       -7.96820
H         -3.33240       13.69550      -10.45320
H         -1.90650       14.73980      -10.42400
H         -2.90750       16.18070       -8.73380
H         -4.06260       16.00960      -10.06150
H         -7.33940       16.97930       -8.12520
H         -4.53870       17.91350       -8.93640
H         -6.10900       18.84310       -9.00500
