
  xtb     03022217133D
 energy: -461.956440104990 gnorm: 0.000320565856 xtb: 6.4.1 (unknown)
227252  0     0  0            999 V2000
    5.6328    3.9195   -2.4607 C   0  0  0  0  0  0  0  0  0  0  0  0
    5.8147    4.9414   -3.3208 C   0  0  0  0  0  0  0  0  0  0  0  0
    4.6856    5.8089   -3.3879 C   0  0  0  0  0  0  0  0  0  0  0  0
    4.5484    7.0075   -4.0985 C   0  0  0  0  0  0  0  0  0  0  0  0
    5.6364    7.6003   -4.8608 C   0  0  0  0  0  0  0  0  0  0  0  0
    6.4116    6.7882   -6.1858 S   0  0  0  0  0  0  0  0  0  0  0  0
    7.4640    8.1293   -6.4921 C   0  0  0  0  0  0  0  0  0  0  0  0
    8.5016    8.0670   -7.5572 C   0  0  0  0  0  0  0  0  0  0  0  0
    9.7751    7.3922   -7.0418 C   0  0  0  0  0  0  0  0  0  0  0  0
    7.2258    9.1338   -5.6019 C   0  0  0  0  0  0  0  0  0  0  0  0
    8.0937   10.6141   -5.5663 Cl  0  0  0  0  0  0  0  0  0  0  0  0
    6.1838    8.8404   -4.6825 C   0  0  0  0  0  0  0  0  0  0  0  0
    5.7376    9.9115   -3.4241 Cl  0  0  0  0  0  0  0  0  0  0  0  0
    3.3257    7.6594   -4.0052 C   0  0  0  0  0  0  0  0  0  0  0  0
    2.2543    7.2020   -3.2028 C   0  0  0  0  0  0  0  0  0  0  0  0
    2.4329    6.0613   -2.4002 C   0  0  0  0  0  0  0  0  0  0  0  0
    1.4580    5.6323   -1.4115 C   0  0  0  0  0  0  0  0  0  0  0  0
    1.0162    3.9594   -1.2330 S   0  0  0  0  0  0  0  0  0  0  0  0
    0.0134    4.2824    0.1350 C   0  0  0  0  0  0  0  0  0  0  0  0
   -0.7587    3.2127    0.8276 C   0  0  0  0  0  0  0  0  0  0  0  0
   -0.5250    1.8353    0.2259 C   0  0  0  0  0  0  0  0  0  0  0  0
    0.0387    5.6136    0.4342 C   0  0  0  0  0  0  0  0  0  0  0  0
    0.8408    6.3827   -0.4461 C   0  0  0  0  0  0  0  0  0  0  0  0
    1.0372    8.0758   -0.2530 Cl  0  0  0  0  0  0  0  0  0  0  0  0
   -0.8030    6.3005    1.7625 Cl  0  0  0  0  0  0  0  0  0  0  0  0
    3.6377    5.3746   -2.5428 C   0  0  0  0  0  0  0  0  0  0  0  0
    4.0952    3.9378   -1.6744 S   0  0  0  0  0  0  0  0  0  0  0  0
    1.1114    8.0460   -3.3367 C   0  0  0  0  0  0  0  0  0  0  0  0
    1.3161    9.0991   -4.1643 C   0  0  0  0  0  0  0  0  0  0  0  0
    2.9152    9.1092   -4.8718 S   0  0  0  0  0  0  0  0  0  0  0  0
    0.4762   10.2794   -4.3619 C   0  0  0  0  0  0  0  0  0  0  0  0
   -0.5056   10.4390   -5.2986 C   0  0  0  0  0  0  0  0  0  0  0  0
   -0.9314    9.4081   -6.2841 C   0  0  0  0  0  0  0  0  0  0  0  0
   -1.5220    8.3536   -5.6880 F   0  0  0  0  0  0  0  0  0  0  0  0
    0.1046    8.9052   -6.9763 F   0  0  0  0  0  0  0  0  0  0  0  0
   -1.8047    9.8784   -7.1807 F   0  0  0  0  0  0  0  0  0  0  0  0
   -1.2846   11.9761   -5.2171 S   0  0  0  0  0  0  0  0  0  0  0  0
   -0.2713   12.4296   -3.8794 C   0  0  0  0  0  0  0  0  0  0  0  0
   -0.4096   13.6849   -3.2855 C   0  0  0  0  0  0  0  0  0  0  0  0
   -0.5284   14.7170   -2.7969 N   0  0  0  0  0  0  0  0  0  0  0  0
    0.6255   11.4357   -3.5281 C   0  0  0  0  0  0  0  0  0  0  0  0
    1.5431   11.3757   -2.4294 C   0  0  0  0  0  0  0  0  0  0  0  0
    1.5338   12.0454   -1.2611 C   0  0  0  0  0  0  0  0  0  0  0  0
    2.2916   11.4787   -0.1798 C   0  0  0  0  0  0  0  0  0  0  0  0
    3.3720   10.6489   -0.2734 C   0  0  0  0  0  0  0  0  0  0  0  0
    3.4890    9.7474    0.8093 C   0  0  0  0  0  0  0  0  0  0  0  0
    4.3035    8.5941    0.8411 C   0  0  0  0  0  0  0  0  0  0  0  0
    5.5191    8.5076    0.0684 C   0  0  0  0  0  0  0  0  0  0  0  0
    6.1119    7.0102   -0.5924 S   0  0  0  0  0  0  0  0  0  0  0  0
    7.6032    7.7209   -1.1028 C   0  0  0  0  0  0  0  0  0  0  0  0
    8.6933    6.8992   -1.7014 C   0  0  0  0  0  0  0  0  0  0  0  0
    8.9548    7.2332   -3.1695 C   0  0  0  0  0  0  0  0  0  0  0  0
    7.6168    9.0514   -0.8016 C   0  0  0  0  0  0  0  0  0  0  0  0
    8.9385   10.0912   -1.1349 Cl  0  0  0  0  0  0  0  0  0  0  0  0
    6.4459    9.5021   -0.1406 C   0  0  0  0  0  0  0  0  0  0  0  0
    6.3101   11.1090    0.4424 Cl  0  0  0  0  0  0  0  0  0  0  0  0
    3.8257    7.5534    1.6338 C   0  0  0  0  0  0  0  0  0  0  0  0
    2.7608    7.7195    2.5522 C   0  0  0  0  0  0  0  0  0  0  0  0
    2.1382    8.9745    2.7151 C   0  0  0  0  0  0  0  0  0  0  0  0
    1.1147    9.1520    3.7225 C   0  0  0  0  0  0  0  0  0  0  0  0
   -0.4204    9.8889    3.3692 S   0  0  0  0  0  0  0  0  0  0  0  0
   -1.0036    9.6297    4.9762 C   0  0  0  0  0  0  0  0  0  0  0  0
   -2.3520   10.1037    5.3916 C   0  0  0  0  0  0  0  0  0  0  0  0
   -2.3183   11.5888    5.7606 C   0  0  0  0  0  0  0  0  0  0  0  0
   -0.0482    9.0227    5.7371 C   0  0  0  0  0  0  0  0  0  0  0  0
    1.1500    8.7438    5.0309 C   0  0  0  0  0  0  0  0  0  0  0  0
    2.5221    8.0454    5.7913 Cl  0  0  0  0  0  0  0  0  0  0  0  0
   -0.2583    8.6114    7.3902 Cl  0  0  0  0  0  0  0  0  0  0  0  0
    2.4548    9.9328    1.7601 C   0  0  0  0  0  0  0  0  0  0  0  0
    1.5048   11.3471    1.3872 S   0  0  0  0  0  0  0  0  0  0  0  0
    2.3230    6.4850    3.0874 C   0  0  0  0  0  0  0  0  0  0  0  0
    3.0008    5.4103    2.5923 C   0  0  0  0  0  0  0  0  0  0  0  0
    4.3019    5.8850    1.5204 S   0  0  0  0  0  0  0  0  0  0  0  0
    2.6646    4.0329    2.7449 C   0  0  0  0  0  0  0  0  0  0  0  0
    1.6768    3.4984    3.5201 C   0  0  0  0  0  0  0  0  0  0  0  0
    1.4937    2.1083    3.3189 C   0  0  0  0  0  0  0  0  0  0  0  0
    0.5175    1.2734    3.8928 C   0  0  0  0  0  0  0  0  0  0  0  0
   -0.4413    1.7987    4.8523 C   0  0  0  0  0  0  0  0  0  0  0  0
    0.0715    2.5986    6.3086 S   0  0  0  0  0  0  0  0  0  0  0  0
   -1.5565    2.9015    6.8100 C   0  0  0  0  0  0  0  0  0  0  0  0
   -1.8527    3.5691    8.1071 C   0  0  0  0  0  0  0  0  0  0  0  0
   -1.8761    2.5535    9.2518 C   0  0  0  0  0  0  0  0  0  0  0  0
   -2.4344    2.3996    5.8959 C   0  0  0  0  0  0  0  0  0  0  0  0
   -4.1407    2.5095    6.0461 Cl  0  0  0  0  0  0  0  0  0  0  0  0
   -1.8065    1.7798    4.7823 C   0  0  0  0  0  0  0  0  0  0  0  0
   -2.6947    1.1586    3.4551 Cl  0  0  0  0  0  0  0  0  0  0  0  0
    0.4857   -0.0470    3.4658 C   0  0  0  0  0  0  0  0  0  0  0  0
    1.3748   -0.5534    2.4842 C   0  0  0  0  0  0  0  0  0  0  0  0
    2.3540    0.2769    1.9142 C   0  0  0  0  0  0  0  0  0  0  0  0
    3.2407   -0.2122    0.8724 C   0  0  0  0  0  0  0  0  0  0  0  0
    3.3720    0.6487   -0.6333 S   0  0  0  0  0  0  0  0  0  0  0  0
    4.4718   -0.5118   -1.2900 C   0  0  0  0  0  0  0  0  0  0  0  0
    5.0461   -0.3601   -2.6571 C   0  0  0  0  0  0  0  0  0  0  0  0
    4.1316    0.4281   -3.5869 C   0  0  0  0  0  0  0  0  0  0  0  0
    4.7144   -1.5004   -0.3823 C   0  0  0  0  0  0  0  0  0  0  0  0
    4.0185   -1.3369    0.8447 C   0  0  0  0  0  0  0  0  0  0  0  0
    4.2213   -2.4182    2.1639 Cl  0  0  0  0  0  0  0  0  0  0  0  0
    5.7602   -2.8275   -0.6769 Cl  0  0  0  0  0  0  0  0  0  0  0  0
    2.3825    1.5968    2.3420 C   0  0  0  0  0  0  0  0  0  0  0  0
    3.4486    2.8330    1.7426 S   0  0  0  0  0  0  0  0  0  0  0  0
    1.0933   -1.9001    2.1646 C   0  0  0  0  0  0  0  0  0  0  0  0
    0.0730   -2.4339    2.8967 C   0  0  0  0  0  0  0  0  0  0  0  0
   -0.6194   -1.2784    4.0095 S   0  0  0  0  0  0  0  0  0  0  0  0
   -0.4088   -3.7716    2.7588 C   0  0  0  0  0  0  0  0  0  0  0  0
    0.2890   -4.7939    2.1851 C   0  0  0  0  0  0  0  0  0  0  0  0
   -0.4558   -5.9882    2.0535 C   0  0  0  0  0  0  0  0  0  0  0  0
   -0.0350   -7.2071    1.4873 C   0  0  0  0  0  0  0  0  0  0  0  0
    1.3113   -7.3629    0.9636 C   0  0  0  0  0  0  0  0  0  0  0  0
    1.9967   -6.1953   -0.1318 S   0  0  0  0  0  0  0  0  0  0  0  0
    3.4965   -7.0504   -0.2423 C   0  0  0  0  0  0  0  0  0  0  0  0
    4.6356   -6.5289   -1.0484 C   0  0  0  0  0  0  0  0  0  0  0  0
    4.1763   -5.7901   -2.3001 C   0  0  0  0  0  0  0  0  0  0  0  0
    3.4506   -8.1758    0.5253 C   0  0  0  0  0  0  0  0  0  0  0  0
    4.7555   -9.2801    0.6793 Cl  0  0  0  0  0  0  0  0  0  0  0  0
    2.2169   -8.3587    1.2071 C   0  0  0  0  0  0  0  0  0  0  0  0
    1.9609   -9.6571    2.2949 Cl  0  0  0  0  0  0  0  0  0  0  0  0
   -0.9770   -8.2271    1.4313 C   0  0  0  0  0  0  0  0  0  0  0  0
   -2.2894   -8.0750    1.9437 C   0  0  0  0  0  0  0  0  0  0  0  0
   -2.6863   -6.8815    2.5734 C   0  0  0  0  0  0  0  0  0  0  0  0
   -4.0178   -6.7710    3.1417 C   0  0  0  0  0  0  0  0  0  0  0  0
   -5.0825   -5.4561    2.7415 S   0  0  0  0  0  0  0  0  0  0  0  0
   -6.3745   -6.1115    3.6867 C   0  0  0  0  0  0  0  0  0  0  0  0
   -7.7151   -5.4657    3.7243 C   0  0  0  0  0  0  0  0  0  0  0  0
   -8.6177   -6.0288    2.6233 C   0  0  0  0  0  0  0  0  0  0  0  0
   -5.9875   -7.2779    4.2776 C   0  0  0  0  0  0  0  0  0  0  0  0
   -4.6518   -7.6519    3.9767 C   0  0  0  0  0  0  0  0  0  0  0  0
   -3.9085   -9.0363    4.6707 Cl  0  0  0  0  0  0  0  0  0  0  0  0
   -7.0041   -8.2228    5.2855 Cl  0  0  0  0  0  0  0  0  0  0  0  0
   -1.7623   -5.8476    2.5846 C   0  0  0  0  0  0  0  0  0  0  0  0
   -2.0226   -4.2516    3.2312 S   0  0  0  0  0  0  0  0  0  0  0  0
   -3.0971   -9.1996    1.6670 C   0  0  0  0  0  0  0  0  0  0  0  0
   -2.4434  -10.1928    0.9976 C   0  0  0  0  0  0  0  0  0  0  0  0
   -0.7812   -9.7757    0.6575 S   0  0  0  0  0  0  0  0  0  0  0  0
   -3.0431  -11.4272    0.6019 C   0  0  0  0  0  0  0  0  0  0  0  0
   -4.2262  -11.9036    1.0857 C   0  0  0  0  0  0  0  0  0  0  0  0
   -4.6608  -13.0895    0.4512 C   0  0  0  0  0  0  0  0  0  0  0  0
   -5.8728  -13.7707    0.6493 C   0  0  0  0  0  0  0  0  0  0  0  0
   -6.8772  -13.2329    1.5512 C   0  0  0  0  0  0  0  0  0  0  0  0
   -7.5890  -14.2018    2.8069 S   0  0  0  0  0  0  0  0  0  0  0  0
   -8.5379  -12.8814    3.3982 C   0  0  0  0  0  0  0  0  0  0  0  0
   -9.4865  -13.0574    4.5319 C   0  0  0  0  0  0  0  0  0  0  0  0
  -10.8500  -13.5394    4.0300 C   0  0  0  0  0  0  0  0  0  0  0  0
   -8.3190  -11.7662    2.6455 C   0  0  0  0  0  0  0  0  0  0  0  0
   -9.0796  -10.2559    2.9288 Cl  0  0  0  0  0  0  0  0  0  0  0  0
   -7.3784  -11.9597    1.5998 C   0  0  0  0  0  0  0  0  0  0  0  0
   -7.0034  -10.7185    0.4720 Cl  0  0  0  0  0  0  0  0  0  0  0  0
   -6.0545  -14.9441   -0.0712 C   0  0  0  0  0  0  0  0  0  0  0  0
   -5.1015  -15.4310   -0.9975 C   0  0  0  0  0  0  0  0  0  0  0  0
   -3.9070  -14.7270   -1.2220 C   0  0  0  0  0  0  0  0  0  0  0  0
   -2.9210  -15.1857   -2.1881 C   0  0  0  0  0  0  0  0  0  0  0  0
   -3.3522  -15.4873   -3.8459 S   0  0  0  0  0  0  0  0  0  0  0  0
   -1.7298  -15.9119   -4.2742 C   0  0  0  0  0  0  0  0  0  0  0  0
   -1.3872  -16.3580   -5.6526 C   0  0  0  0  0  0  0  0  0  0  0  0
   -1.6990  -17.8448   -5.8394 C   0  0  0  0  0  0  0  0  0  0  0  0
   -0.9174  -15.8317   -3.1834 C   0  0  0  0  0  0  0  0  0  0  0  0
   -1.5861  -15.4131   -2.0010 C   0  0  0  0  0  0  0  0  0  0  0  0
   -0.7892  -15.2962   -0.4885 Cl  0  0  0  0  0  0  0  0  0  0  0  0
    0.7600  -16.1912   -3.2112 Cl  0  0  0  0  0  0  0  0  0  0  0  0
   -3.7145  -13.5610   -0.4911 C   0  0  0  0  0  0  0  0  0  0  0  0
   -2.3614  -12.4717   -0.6231 S   0  0  0  0  0  0  0  0  0  0  0  0
   -5.5339  -16.6496   -1.5988 C   0  0  0  0  0  0  0  0  0  0  0  0
   -6.7486  -17.0449   -1.1675 C   0  0  0  0  0  0  0  0  0  0  0  0
   -7.4540  -15.9772   -0.0035 S   0  0  0  0  0  0  0  0  0  0  0  0
    6.3170    3.1283   -2.2245 H   0  0  0  0  0  0  0  0  0  0  0  0
    6.7049    5.0821   -3.9050 H   0  0  0  0  0  0  0  0  0  0  0  0
    8.1137    7.5082   -8.4105 H   0  0  0  0  0  0  0  0  0  0  0  0
    8.7321    9.0837   -7.8800 H   0  0  0  0  0  0  0  0  0  0  0  0
   10.5231    7.3585   -7.8290 H   0  0  0  0  0  0  0  0  0  0  0  0
    9.5599    6.3759   -6.7204 H   0  0  0  0  0  0  0  0  0  0  0  0
   10.1795    7.9461   -6.1987 H   0  0  0  0  0  0  0  0  0  0  0  0
   -1.8233    3.4624    0.7800 H   0  0  0  0  0  0  0  0  0  0  0  0
   -0.4819    3.2119    1.8858 H   0  0  0  0  0  0  0  0  0  0  0  0
   -0.8710    1.8061   -0.8044 H   0  0  0  0  0  0  0  0  0  0  0  0
   -1.0633    1.0833    0.7960 H   0  0  0  0  0  0  0  0  0  0  0  0
    0.5339    1.5877    0.2372 H   0  0  0  0  0  0  0  0  0  0  0  0
    0.1768    7.8694   -2.8374 H   0  0  0  0  0  0  0  0  0  0  0  0
    2.2396   10.5530   -2.5119 H   0  0  0  0  0  0  0  0  0  0  0  0
    0.8348   12.8410   -1.0509 H   0  0  0  0  0  0  0  0  0  0  0  0
    4.0048   10.6002   -1.1408 H   0  0  0  0  0  0  0  0  0  0  0  0
    9.6087    7.0803   -1.1310 H   0  0  0  0  0  0  0  0  0  0  0  0
    8.4285    5.8451   -1.6043 H   0  0  0  0  0  0  0  0  0  0  0  0
    9.7876    6.6413   -3.5404 H   0  0  0  0  0  0  0  0  0  0  0  0
    8.0762    7.0149   -3.7679 H   0  0  0  0  0  0  0  0  0  0  0  0
    9.1981    8.2854   -3.2838 H   0  0  0  0  0  0  0  0  0  0  0  0
   -3.0579    9.9497    4.5737 H   0  0  0  0  0  0  0  0  0  0  0  0
   -2.6796    9.5187    6.2529 H   0  0  0  0  0  0  0  0  0  0  0  0
   -3.3079   11.9203    6.0628 H   0  0  0  0  0  0  0  0  0  0  0  0
   -1.6279   11.7577    6.5833 H   0  0  0  0  0  0  0  0  0  0  0  0
   -1.9955   12.1815    4.9081 H   0  0  0  0  0  0  0  0  0  0  0  0
    1.4791    6.3947    3.7447 H   0  0  0  0  0  0  0  0  0  0  0  0
    1.0850    4.0817    4.2003 H   0  0  0  0  0  0  0  0  0  0  0  0
   -2.8249    4.0603    8.0340 H   0  0  0  0  0  0  0  0  0  0  0  0
   -1.0924    4.3259    8.3077 H   0  0  0  0  0  0  0  0  0  0  0  0
   -0.9104    2.0613    9.3398 H   0  0  0  0  0  0  0  0  0  0  0  0
   -2.0997    3.0541   10.1898 H   0  0  0  0  0  0  0  0  0  0  0  0
   -2.6361    1.7979    9.0695 H   0  0  0  0  0  0  0  0  0  0  0  0
    6.0127    0.1490   -2.5805 H   0  0  0  0  0  0  0  0  0  0  0  0
    5.2357   -1.3565   -3.0637 H   0  0  0  0  0  0  0  0  0  0  0  0
    3.1747   -0.0760   -3.6942 H   0  0  0  0  0  0  0  0  0  0  0  0
    4.5871    0.5234   -4.5689 H   0  0  0  0  0  0  0  0  0  0  0  0
    3.9514    1.4239   -3.1885 H   0  0  0  0  0  0  0  0  0  0  0  0
    1.5997   -2.4437    1.3906 H   0  0  0  0  0  0  0  0  0  0  0  0
    1.3117   -4.6934    1.8768 H   0  0  0  0  0  0  0  0  0  0  0  0
    5.2797   -7.3694   -1.3155 H   0  0  0  0  0  0  0  0  0  0  0  0
    5.2248   -5.8465   -0.4267 H   0  0  0  0  0  0  0  0  0  0  0  0
    3.5910   -6.4474   -2.9383 H   0  0  0  0  0  0  0  0  0  0  0  0
    3.5626   -4.9338   -2.0289 H   0  0  0  0  0  0  0  0  0  0  0  0
    5.0374   -5.4351   -2.8600 H   0  0  0  0  0  0  0  0  0  0  0  0
   -7.6026   -4.3888    3.5910 H   0  0  0  0  0  0  0  0  0  0  0  0
   -8.1702   -5.6541    4.6989 H   0  0  0  0  0  0  0  0  0  0  0  0
   -8.7431   -7.1010    2.7504 H   0  0  0  0  0  0  0  0  0  0  0  0
   -9.5957   -5.5569    2.6642 H   0  0  0  0  0  0  0  0  0  0  0  0
   -8.1804   -5.8440    1.6450 H   0  0  0  0  0  0  0  0  0  0  0  0
   -4.1410   -9.2494    1.9100 H   0  0  0  0  0  0  0  0  0  0  0  0
   -4.7592  -11.4358    1.8910 H   0  0  0  0  0  0  0  0  0  0  0  0
   -9.0794  -13.7857    5.2350 H   0  0  0  0  0  0  0  0  0  0  0  0
   -9.6028  -12.1010    5.0455 H   0  0  0  0  0  0  0  0  0  0  0  0
  -11.5304  -13.6707    4.8669 H   0  0  0  0  0  0  0  0  0  0  0  0
  -11.2776  -12.8129    3.3436 H   0  0  0  0  0  0  0  0  0  0  0  0
  -10.7459  -14.4892    3.5107 H   0  0  0  0  0  0  0  0  0  0  0  0
   -1.9582  -15.7738   -6.3764 H   0  0  0  0  0  0  0  0  0  0  0  0
   -0.3232  -16.1830   -5.8214 H   0  0  0  0  0  0  0  0  0  0  0  0
   -1.1294  -18.4408   -5.1308 H   0  0  0  0  0  0  0  0  0  0  0  0
   -1.4380  -18.1574   -6.8467 H   0  0  0  0  0  0  0  0  0  0  0  0
   -2.7584  -18.0309   -5.6793 H   0  0  0  0  0  0  0  0  0  0  0  0
   -4.9501  -17.1958   -2.3164 H   0  0  0  0  0  0  0  0  0  0  0  0
   -7.2981  -17.9188   -1.4581 H   0  0  0  0  0  0  0  0  0  0  0  0
  1  2  2  0  0  0  0
  2  3  1  0  0  0  0
  3  4  2  0  0  0  0
  4  5  1  0  0  0  0
  5  6  1  0  0  0  0
  6  7  1  0  0  0  0
  7  8  1  0  0  0  0
  8  9  1  0  0  0  0
  7 10  2  0  0  0  0
 10 11  1  0  0  0  0
 10 12  1  0  0  0  0
 12 13  1  0  0  0  0
  4 14  1  0  0  0  0
 14 15  2  0  0  0  0
 15 16  1  0  0  0  0
 16 17  1  0  0  0  0
 17 18  1  0  0  0  0
 18 19  1  0  0  0  0
 19 20  1  0  0  0  0
 20 21  1  0  0  0  0
 19 22  2  0  0  0  0
 22 23  1  0  0  0  0
 23 24  1  0  0  0  0
 22 25  1  0  0  0  0
 16 26  2  0  0  0  0
 26 27  1  0  0  0  0
 15 28  1  0  0  0  0
 28 29  2  0  0  0  0
 29 30  1  0  0  0  0
 29 31  1  0  0  0  0
 31 32  2  0  0  0  0
 32 33  1  0  0  0  0
 33 34  1  0  0  0  0
 33 35  1  0  0  0  0
 33 36  1  0  0  0  0
 32 37  1  0  0  0  0
 37 38  1  0  0  0  0
 38 39  1  0  0  0  0
 39 40  3  0  0  0  0
 38 41  2  0  0  0  0
 41 42  1  0  0  0  0
 42 43  2  0  0  0  0
 43 44  1  0  0  0  0
 44 45  2  0  0  0  0
 45 46  1  0  0  0  0
 46 47  2  0  0  0  0
 47 48  1  0  0  0  0
 48 49  1  0  0  0  0
 49 50  1  0  0  0  0
 50 51  1  0  0  0  0
 51 52  1  0  0  0  0
 50 53  2  0  0  0  0
 53 54  1  0  0  0  0
 53 55  1  0  0  0  0
 55 56  1  0  0  0  0
 47 57  1  0  0  0  0
 57 58  2  0  0  0  0
 58 59  1  0  0  0  0
 59 60  1  0  0  0  0
 60 61  1  0  0  0  0
 61 62  1  0  0  0  0
 62 63  1  0  0  0  0
 63 64  1  0  0  0  0
 62 65  2  0  0  0  0
 65 66  1  0  0  0  0
 66 67  1  0  0  0  0
 65 68  1  0  0  0  0
 59 69  2  0  0  0  0
 69 70  1  0  0  0  0
 58 71  1  0  0  0  0
 71 72  2  0  0  0  0
 72 73  1  0  0  0  0
 72 74  1  0  0  0  0
 74 75  2  0  0  0  0
 75 76  1  0  0  0  0
 76 77  2  0  0  0  0
 77 78  1  0  0  0  0
 78 79  1  0  0  0  0
 79 80  1  0  0  0  0
 80 81  1  0  0  0  0
 81 82  1  0  0  0  0
 80 83  2  0  0  0  0
 83 84  1  0  0  0  0
 83 85  1  0  0  0  0
 85 86  1  0  0  0  0
 77 87  1  0  0  0  0
 87 88  2  0  0  0  0
 88 89  1  0  0  0  0
 89 90  1  0  0  0  0
 90 91  1  0  0  0  0
 91 92  1  0  0  0  0
 92 93  1  0  0  0  0
 93 94  1  0  0  0  0
 92 95  2  0  0  0  0
 95 96  1  0  0  0  0
 96 97  1  0  0  0  0
 95 98  1  0  0  0  0
 89 99  2  0  0  0  0
 99100  1  0  0  0  0
 88101  1  0  0  0  0
101102  2  0  0  0  0
102103  1  0  0  0  0
102104  1  0  0  0  0
104105  2  0  0  0  0
105106  1  0  0  0  0
106107  2  0  0  0  0
107108  1  0  0  0  0
108109  1  0  0  0  0
109110  1  0  0  0  0
110111  1  0  0  0  0
111112  1  0  0  0  0
110113  2  0  0  0  0
113114  1  0  0  0  0
113115  1  0  0  0  0
115116  1  0  0  0  0
107117  1  0  0  0  0
117118  2  0  0  0  0
118119  1  0  0  0  0
119120  1  0  0  0  0
120121  1  0  0  0  0
121122  1  0  0  0  0
122123  1  0  0  0  0
123124  1  0  0  0  0
122125  2  0  0  0  0
125126  1  0  0  0  0
126127  1  0  0  0  0
125128  1  0  0  0  0
119129  2  0  0  0  0
129130  1  0  0  0  0
118131  1  0  0  0  0
131132  2  0  0  0  0
132133  1  0  0  0  0
132134  1  0  0  0  0
134135  2  0  0  0  0
135136  1  0  0  0  0
136137  2  0  0  0  0
137138  1  0  0  0  0
138139  1  0  0  0  0
139140  1  0  0  0  0
140141  1  0  0  0  0
141142  1  0  0  0  0
140143  2  0  0  0  0
143144  1  0  0  0  0
143145  1  0  0  0  0
145146  1  0  0  0  0
137147  1  0  0  0  0
147148  2  0  0  0  0
148149  1  0  0  0  0
149150  1  0  0  0  0
150151  1  0  0  0  0
151152  1  0  0  0  0
152153  1  0  0  0  0
153154  1  0  0  0  0
152155  2  0  0  0  0
155156  1  0  0  0  0
156157  1  0  0  0  0
155158  1  0  0  0  0
149159  2  0  0  0  0
159160  1  0  0  0  0
148161  1  0  0  0  0
161162  2  0  0  0  0
162163  1  0  0  0  0
 27  1  1  0  0  0  0
 41 31  1  0  0  0  0
 70 44  1  0  0  0  0
100 74  1  0  0  0  0
130104  1  0  0  0  0
160134  1  0  0  0  0
 26  3  1  0  0  0  0
 69 46  1  0  0  0  0
 99 76  1  0  0  0  0
129106  1  0  0  0  0
159136  1  0  0  0  0
 12  5  2  0  0  0  0
 30 14  1  0  0  0  0
 55 48  2  0  0  0  0
 73 57  1  0  0  0  0
 85 78  2  0  0  0  0
103 87  1  0  0  0  0
115108  2  0  0  0  0
133117  1  0  0  0  0
145138  2  0  0  0  0
163147  1  0  0  0  0
 23 17  2  0  0  0  0
 66 60  2  0  0  0  0
 96 90  2  0  0  0  0
126120  2  0  0  0  0
156150  2  0  0  0  0
  1164  1  0  0  0  0
  2165  1  0  0  0  0
  8166  1  0  0  0  0
  8167  1  0  0  0  0
  9168  1  0  0  0  0
  9169  1  0  0  0  0
  9170  1  0  0  0  0
 20171  1  0  0  0  0
 20172  1  0  0  0  0
 21173  1  0  0  0  0
 21174  1  0  0  0  0
 21175  1  0  0  0  0
 28176  1  0  0  0  0
 42177  1  0  0  0  0
 43178  1  0  0  0  0
 45179  1  0  0  0  0
 51180  1  0  0  0  0
 51181  1  0  0  0  0
 52182  1  0  0  0  0
 52183  1  0  0  0  0
 52184  1  0  0  0  0
 63185  1  0  0  0  0
 63186  1  0  0  0  0
 64187  1  0  0  0  0
 64188  1  0  0  0  0
 64189  1  0  0  0  0
 71190  1  0  0  0  0
 75191  1  0  0  0  0
 81192  1  0  0  0  0
 81193  1  0  0  0  0
 82194  1  0  0  0  0
 82195  1  0  0  0  0
 82196  1  0  0  0  0
 93197  1  0  0  0  0
 93198  1  0  0  0  0
 94199  1  0  0  0  0
 94200  1  0  0  0  0
 94201  1  0  0  0  0
101202  1  0  0  0  0
105203  1  0  0  0  0
111204  1  0  0  0  0
111205  1  0  0  0  0
112206  1  0  0  0  0
112207  1  0  0  0  0
112208  1  0  0  0  0
123209  1  0  0  0  0
123210  1  0  0  0  0
124211  1  0  0  0  0
124212  1  0  0  0  0
124213  1  0  0  0  0
131214  1  0  0  0  0
135215  1  0  0  0  0
141216  1  0  0  0  0
141217  1  0  0  0  0
142218  1  0  0  0  0
142219  1  0  0  0  0
142220  1  0  0  0  0
153221  1  0  0  0  0
153222  1  0  0  0  0
154223  1  0  0  0  0
154224  1  0  0  0  0
154225  1  0  0  0  0
161226  1  0  0  0  0
162227  1  0  0  0  0
M  END
