
  xtb     03012217353D
 energy: -415.953213398688 gnorm: 0.000690160668 xtb: 6.4.1 (unknown)
200221  0     0  0            999 V2000
    4.7479   -2.6486    3.8476 C   0  0  0  0  0  0  0  0  0  0  0  0
    4.0763   -1.5122    3.5726 C   0  0  0  0  0  0  0  0  0  0  0  0
    3.1855   -1.1317    4.6186 C   0  0  0  0  0  0  0  0  0  0  0  0
    2.2847   -0.0583    4.6408 C   0  0  0  0  0  0  0  0  0  0  0  0
    2.1044    0.8179    3.4913 C   0  0  0  0  0  0  0  0  0  0  0  0
    3.3731    1.7853    2.8101 S   0  0  0  0  0  0  0  0  0  0  0  0
    2.3363    2.4112    1.5742 C   0  0  0  0  0  0  0  0  0  0  0  0
    2.8113    3.3819    0.5479 C   0  0  0  0  0  0  0  0  0  0  0  0
    4.2893    3.7146    0.6884 C   0  0  0  0  0  0  0  0  0  0  0  0
    1.0832    1.8846    1.6940 C   0  0  0  0  0  0  0  0  0  0  0  0
   -0.2001    2.2311    0.6066 Cl  0  0  0  0  0  0  0  0  0  0  0  0
    0.9479    0.9885    2.7839 C   0  0  0  0  0  0  0  0  0  0  0  0
   -0.4955    0.1324    3.1242 Cl  0  0  0  0  0  0  0  0  0  0  0  0
    1.5146    0.0969    5.7871 C   0  0  0  0  0  0  0  0  0  0  0  0
    1.5834   -0.7944    6.8820 C   0  0  0  0  0  0  0  0  0  0  0  0
    2.4400   -1.9059    6.8363 C   0  0  0  0  0  0  0  0  0  0  0  0
    2.4483   -2.8787    7.9155 C   0  0  0  0  0  0  0  0  0  0  0  0
    0.9609   -3.6178    8.4372 S   0  0  0  0  0  0  0  0  0  0  0  0
    1.7669   -4.5852    9.6266 C   0  0  0  0  0  0  0  0  0  0  0  0
    0.9994   -5.4950   10.5208 C   0  0  0  0  0  0  0  0  0  0  0  0
    0.1332   -4.7036   11.5025 C   0  0  0  0  0  0  0  0  0  0  0  0
    3.1056   -4.3319    9.6121 C   0  0  0  0  0  0  0  0  0  0  0  0
    3.4972   -3.3703    8.6397 C   0  0  0  0  0  0  0  0  0  0  0  0
    5.1166   -2.8355    8.4803 Cl  0  0  0  0  0  0  0  0  0  0  0  0
    4.2386   -5.0889   10.6545 Cl  0  0  0  0  0  0  0  0  0  0  0  0
    3.2372   -2.0396    5.7051 C   0  0  0  0  0  0  0  0  0  0  0  0
    4.3549   -3.3337    5.3850 S   0  0  0  0  0  0  0  0  0  0  0  0
    0.7523   -0.3767    7.9541 C   0  0  0  0  0  0  0  0  0  0  0  0
    0.0912    0.7824    7.7025 C   0  0  0  0  0  0  0  0  0  0  0  0
    0.4163    1.4081    6.1020 S   0  0  0  0  0  0  0  0  0  0  0  0
   -0.8204    1.4491    8.6106 C   0  0  0  0  0  0  0  0  0  0  0  0
   -0.8431    2.7991    8.8828 C   0  0  0  0  0  0  0  0  0  0  0  0
    0.1163    3.8285    8.3977 C   0  0  0  0  0  0  0  0  0  0  0  0
    0.0040    4.9767    9.0782 F   0  0  0  0  0  0  0  0  0  0  0  0
    1.3938    3.4291    8.5277 F   0  0  0  0  0  0  0  0  0  0  0  0
   -0.0383    4.1518    7.1008 F   0  0  0  0  0  0  0  0  0  0  0  0
   -2.0468    3.2532   10.0280 S   0  0  0  0  0  0  0  0  0  0  0  0
   -2.5268    1.5956   10.1787 C   0  0  0  0  0  0  0  0  0  0  0  0
   -3.5719    1.2218   11.0296 C   0  0  0  0  0  0  0  0  0  0  0  0
   -4.4222    0.8964   11.7274 N   0  0  0  0  0  0  0  0  0  0  0  0
   -1.8048    0.7434    9.3682 C   0  0  0  0  0  0  0  0  0  0  0  0
   -2.0281   -0.6984    9.3405 C   0  0  0  0  0  0  0  0  0  0  0  0
   -2.3372   -1.4445    8.2692 C   0  0  0  0  0  0  0  0  0  0  0  0
   -2.6227   -0.9751    6.9451 C   0  0  0  0  0  0  0  0  0  0  0  0
   -2.7828    0.3005    6.4932 C   0  0  0  0  0  0  0  0  0  0  0  0
   -3.1188    0.3949    5.1242 C   0  0  0  0  0  0  0  0  0  0  0  0
   -3.2227    1.5701    4.3559 C   0  0  0  0  0  0  0  0  0  0  0  0
   -3.0113    2.8783    4.9496 C   0  0  0  0  0  0  0  0  0  0  0  0
   -1.8870    3.9971    4.2346 S   0  0  0  0  0  0  0  0  0  0  0  0
   -2.1630    5.1840    5.4580 C   0  0  0  0  0  0  0  0  0  0  0  0
   -1.4820    6.5057    5.4154 C   0  0  0  0  0  0  0  0  0  0  0  0
   -2.1829    7.4494    4.4355 C   0  0  0  0  0  0  0  0  0  0  0  0
   -3.0763    4.7287    6.3612 C   0  0  0  0  0  0  0  0  0  0  0  0
   -3.5947    5.6196    7.7367 Cl  0  0  0  0  0  0  0  0  0  0  0  0
   -3.5588    3.4233    6.0794 C   0  0  0  0  0  0  0  0  0  0  0  0
   -4.7853    2.6858    7.0375 Cl  0  0  0  0  0  0  0  0  0  0  0  0
   -3.4315    1.4039    2.9940 C   0  0  0  0  0  0  0  0  0  0  0  0
   -3.5994    0.1274    2.4012 C   0  0  0  0  0  0  0  0  0  0  0  0
   -3.4575   -1.0476    3.1612 C   0  0  0  0  0  0  0  0  0  0  0  0
   -3.4565   -2.3494    2.5134 C   0  0  0  0  0  0  0  0  0  0  0  0
   -4.4502   -3.6557    3.0887 S   0  0  0  0  0  0  0  0  0  0  0  0
   -3.8992   -4.7301    1.8492 C   0  0  0  0  0  0  0  0  0  0  0  0
   -4.4467   -6.1074    1.7119 C   0  0  0  0  0  0  0  0  0  0  0  0
   -5.6402   -6.1249    0.7533 C   0  0  0  0  0  0  0  0  0  0  0  0
   -2.9961   -4.1016    1.0445 C   0  0  0  0  0  0  0  0  0  0  0  0
   -2.7406   -2.7566    1.4189 C   0  0  0  0  0  0  0  0  0  0  0  0
   -1.5827   -1.8085    0.5836 Cl  0  0  0  0  0  0  0  0  0  0  0  0
   -2.2186   -4.8387   -0.2979 Cl  0  0  0  0  0  0  0  0  0  0  0  0
   -3.2239   -0.8827    4.5199 C   0  0  0  0  0  0  0  0  0  0  0  0
   -2.8976   -2.1480    5.6682 S   0  0  0  0  0  0  0  0  0  0  0  0
   -3.7780    0.2183    1.0044 C   0  0  0  0  0  0  0  0  0  0  0  0
   -3.6311    1.4863    0.5177 C   0  0  0  0  0  0  0  0  0  0  0  0
   -3.4508    2.6668    1.7950 S   0  0  0  0  0  0  0  0  0  0  0  0
   -3.4096    1.7870   -0.8603 C   0  0  0  0  0  0  0  0  0  0  0  0
   -3.0660    0.8402   -1.7821 C   0  0  0  0  0  0  0  0  0  0  0  0
   -2.7209    1.3729   -3.0407 C   0  0  0  0  0  0  0  0  0  0  0  0
   -2.2428    0.6608   -4.1531 C   0  0  0  0  0  0  0  0  0  0  0  0
   -2.2147   -0.7908   -4.1349 C   0  0  0  0  0  0  0  0  0  0  0  0
   -0.7732   -1.6937   -4.5100 S   0  0  0  0  0  0  0  0  0  0  0  0
   -1.5375   -3.2095   -4.1668 C   0  0  0  0  0  0  0  0  0  0  0  0
   -0.8116   -4.4981   -4.3273 C   0  0  0  0  0  0  0  0  0  0  0  0
   -0.6456   -4.8596   -5.8040 C   0  0  0  0  0  0  0  0  0  0  0  0
   -2.8356   -3.0119   -3.8026 C   0  0  0  0  0  0  0  0  0  0  0  0
   -3.9201   -4.2747   -3.3933 Cl  0  0  0  0  0  0  0  0  0  0  0  0
   -3.2225   -1.6455   -3.7784 C   0  0  0  0  0  0  0  0  0  0  0  0
   -4.8272   -1.1535   -3.4173 Cl  0  0  0  0  0  0  0  0  0  0  0  0
   -1.7724    1.4218   -5.2129 C   0  0  0  0  0  0  0  0  0  0  0  0
   -1.7968    2.8374   -5.2219 C   0  0  0  0  0  0  0  0  0  0  0  0
   -2.3538    3.5435   -4.1382 C   0  0  0  0  0  0  0  0  0  0  0  0
   -2.4486    4.9930   -4.1398 C   0  0  0  0  0  0  0  0  0  0  0  0
   -1.0735    6.0037   -4.4755 S   0  0  0  0  0  0  0  0  0  0  0  0
   -1.9904    7.4564   -4.2829 C   0  0  0  0  0  0  0  0  0  0  0  0
   -1.3778    8.7904   -4.5278 C   0  0  0  0  0  0  0  0  0  0  0  0
   -1.4591    9.1551   -6.0127 C   0  0  0  0  0  0  0  0  0  0  0  0
   -3.2861    7.1607   -3.9803 C   0  0  0  0  0  0  0  0  0  0  0  0
   -3.5483    5.7674   -3.8884 C   0  0  0  0  0  0  0  0  0  0  0  0
   -5.1159    5.1477   -3.5849 Cl  0  0  0  0  0  0  0  0  0  0  0  0
   -4.5017    8.3440   -3.7271 Cl  0  0  0  0  0  0  0  0  0  0  0  0
   -2.7919    2.7877   -3.0568 C   0  0  0  0  0  0  0  0  0  0  0  0
   -3.3414    3.4031   -1.5205 S   0  0  0  0  0  0  0  0  0  0  0  0
   -1.2162    3.3624   -6.4066 C   0  0  0  0  0  0  0  0  0  0  0  0
   -0.7562    2.4064   -7.2568 C   0  0  0  0  0  0  0  0  0  0  0  0
   -1.0724    0.7838   -6.6661 S   0  0  0  0  0  0  0  0  0  0  0  0
   -0.0687    2.5672   -8.5189 C   0  0  0  0  0  0  0  0  0  0  0  0
   -0.3518    3.5224   -9.4697 C   0  0  0  0  0  0  0  0  0  0  0  0
   -1.3861    4.5903   -9.4129 C   0  0  0  0  0  0  0  0  0  0  0  0
   -1.6364    5.1110  -10.6210 F   0  0  0  0  0  0  0  0  0  0  0  0
   -2.5604    4.1550   -8.9310 F   0  0  0  0  0  0  0  0  0  0  0  0
   -1.0257    5.6299   -8.6297 F   0  0  0  0  0  0  0  0  0  0  0  0
    0.6086    3.3825  -10.8943 S   0  0  0  0  0  0  0  0  0  0  0  0
    1.4115    1.9988  -10.2257 C   0  0  0  0  0  0  0  0  0  0  0  0
    2.4276    1.3664  -10.9472 C   0  0  0  0  0  0  0  0  0  0  0  0
    3.2613    0.8577  -11.5498 N   0  0  0  0  0  0  0  0  0  0  0  0
    0.9643    1.6778   -8.9580 C   0  0  0  0  0  0  0  0  0  0  0  0
    1.4647    0.6002   -8.1387 C   0  0  0  0  0  0  0  0  0  0  0  0
    1.8130   -0.6131   -8.5982 C   0  0  0  0  0  0  0  0  0  0  0  0
    2.1751   -1.7117   -7.7561 C   0  0  0  0  0  0  0  0  0  0  0  0
    2.2642   -1.7779   -6.3940 C   0  0  0  0  0  0  0  0  0  0  0  0
    2.5716   -3.0718   -5.9075 C   0  0  0  0  0  0  0  0  0  0  0  0
    2.6834   -3.4977   -4.5716 C   0  0  0  0  0  0  0  0  0  0  0  0
    2.6560   -2.5639   -3.4598 C   0  0  0  0  0  0  0  0  0  0  0  0
    1.6685   -2.8477   -2.0551 S   0  0  0  0  0  0  0  0  0  0  0  0
    2.2894   -1.4581   -1.2366 C   0  0  0  0  0  0  0  0  0  0  0  0
    1.8517   -1.1065    0.1411 C   0  0  0  0  0  0  0  0  0  0  0  0
    1.7998   -2.3282    1.0539 C   0  0  0  0  0  0  0  0  0  0  0  0
    3.1937   -0.8127   -2.0258 C   0  0  0  0  0  0  0  0  0  0  0  0
    4.0345    0.6040   -1.5489 Cl  0  0  0  0  0  0  0  0  0  0  0  0
    3.4045   -1.4318   -3.2864 C   0  0  0  0  0  0  0  0  0  0  0  0
    4.5662   -0.8552   -4.4123 Cl  0  0  0  0  0  0  0  0  0  0  0  0
    2.8491   -4.8627   -4.3589 C   0  0  0  0  0  0  0  0  0  0  0  0
    2.9475   -5.8036   -5.4106 C   0  0  0  0  0  0  0  0  0  0  0  0
    2.8862   -5.3732   -6.7439 C   0  0  0  0  0  0  0  0  0  0  0  0
    2.9740   -6.3073   -7.8546 C   0  0  0  0  0  0  0  0  0  0  0  0
    1.8841   -7.6569   -7.9828 S   0  0  0  0  0  0  0  0  0  0  0  0
    2.5772   -8.1760   -9.4808 C   0  0  0  0  0  0  0  0  0  0  0  0
    2.0315   -9.3468  -10.2206 C   0  0  0  0  0  0  0  0  0  0  0  0
    0.8686   -8.9279  -11.1235 C   0  0  0  0  0  0  0  0  0  0  0  0
    3.5870   -7.3385   -9.8495 C   0  0  0  0  0  0  0  0  0  0  0  0
    3.8157   -6.2781   -8.9307 C   0  0  0  0  0  0  0  0  0  0  0  0
    5.0768   -5.1362   -9.1347 Cl  0  0  0  0  0  0  0  0  0  0  0  0
    4.5163   -7.5332  -11.2781 Cl  0  0  0  0  0  0  0  0  0  0  0  0
    2.6961   -4.0140   -6.9604 C   0  0  0  0  0  0  0  0  0  0  0  0
    2.4736   -3.2634   -8.5094 S   0  0  0  0  0  0  0  0  0  0  0  0
    3.1471   -7.1265   -4.9182 C   0  0  0  0  0  0  0  0  0  0  0  0
    3.1922   -7.1814   -3.5719 C   0  0  0  0  0  0  0  0  0  0  0  0
    3.0016   -5.6423   -2.8071 S   0  0  0  0  0  0  0  0  0  0  0  0
    5.4747   -3.1476    3.2368 H   0  0  0  0  0  0  0  0  0  0  0  0
    4.1997   -0.9477    2.6672 H   0  0  0  0  0  0  0  0  0  0  0  0
    2.2126    4.2945    0.6291 H   0  0  0  0  0  0  0  0  0  0  0  0
    2.6173    2.9592   -0.4428 H   0  0  0  0  0  0  0  0  0  0  0  0
    4.8925    2.8165    0.5773 H   0  0  0  0  0  0  0  0  0  0  0  0
    4.4929    4.1475    1.6651 H   0  0  0  0  0  0  0  0  0  0  0  0
    4.5872    4.4268   -0.0763 H   0  0  0  0  0  0  0  0  0  0  0  0
    0.3591   -6.1429    9.9179 H   0  0  0  0  0  0  0  0  0  0  0  0
    1.7068   -6.1188   11.0688 H   0  0  0  0  0  0  0  0  0  0  0  0
   -0.4137   -5.3832   12.1501 H   0  0  0  0  0  0  0  0  0  0  0  0
    0.7540   -4.0592   12.1200 H   0  0  0  0  0  0  0  0  0  0  0  0
   -0.5804   -4.0865   10.9611 H   0  0  0  0  0  0  0  0  0  0  0  0
    0.6877   -0.8944    8.8931 H   0  0  0  0  0  0  0  0  0  0  0  0
   -1.9637   -1.1824   10.3065 H   0  0  0  0  0  0  0  0  0  0  0  0
   -2.4310   -2.5136    8.4023 H   0  0  0  0  0  0  0  0  0  0  0  0
   -2.6792    1.1651    7.1146 H   0  0  0  0  0  0  0  0  0  0  0  0
   -0.4446    6.3638    5.1085 H   0  0  0  0  0  0  0  0  0  0  0  0
   -1.4925    6.9381    6.4172 H   0  0  0  0  0  0  0  0  0  0  0  0
   -2.1797    7.0237    3.4348 H   0  0  0  0  0  0  0  0  0  0  0  0
   -1.6719    8.4079    4.4106 H   0  0  0  0  0  0  0  0  0  0  0  0
   -3.2138    7.6126    4.7399 H   0  0  0  0  0  0  0  0  0  0  0  0
   -4.7582   -6.4729    2.6914 H   0  0  0  0  0  0  0  0  0  0  0  0
   -3.6616   -6.7608    1.3258 H   0  0  0  0  0  0  0  0  0  0  0  0
   -6.4342   -5.4824    1.1264 H   0  0  0  0  0  0  0  0  0  0  0  0
   -6.0260   -7.1360    0.6561 H   0  0  0  0  0  0  0  0  0  0  0  0
   -5.3392   -5.7710   -0.2295 H   0  0  0  0  0  0  0  0  0  0  0  0
   -3.9919   -0.6276    0.3805 H   0  0  0  0  0  0  0  0  0  0  0  0
   -2.9856   -0.2036   -1.5490 H   0  0  0  0  0  0  0  0  0  0  0  0
   -1.3767   -5.2797   -3.8168 H   0  0  0  0  0  0  0  0  0  0  0  0
    0.1704   -4.4207   -3.8569 H   0  0  0  0  0  0  0  0  0  0  0  0
   -1.6178   -4.9872   -6.2732 H   0  0  0  0  0  0  0  0  0  0  0  0
   -0.1099   -4.0704   -6.3261 H   0  0  0  0  0  0  0  0  0  0  0  0
   -0.0860   -5.7861   -5.9039 H   0  0  0  0  0  0  0  0  0  0  0  0
   -1.9117    9.5373   -3.9374 H   0  0  0  0  0  0  0  0  0  0  0  0
   -0.3330    8.7742   -4.2132 H   0  0  0  0  0  0  0  0  0  0  0  0
   -1.0007   10.1252   -6.1841 H   0  0  0  0  0  0  0  0  0  0  0  0
   -0.9419    8.4115   -6.6146 H   0  0  0  0  0  0  0  0  0  0  0  0
   -2.4969    9.1987   -6.3328 H   0  0  0  0  0  0  0  0  0  0  0  0
   -1.1088    4.4151   -6.5855 H   0  0  0  0  0  0  0  0  0  0  0  0
    1.4963    0.7980   -7.0777 H   0  0  0  0  0  0  0  0  0  0  0  0
    1.7667   -0.8255   -9.6576 H   0  0  0  0  0  0  0  0  0  0  0  0
    2.0803   -0.9429   -5.7452 H   0  0  0  0  0  0  0  0  0  0  0  0
    0.8614   -0.6445    0.0988 H   0  0  0  0  0  0  0  0  0  0  0  0
    2.5456   -0.3633    0.5389 H   0  0  0  0  0  0  0  0  0  0  0  0
    2.7807   -2.7913    1.1294 H   0  0  0  0  0  0  0  0  0  0  0  0
    1.1013   -3.0624    0.6602 H   0  0  0  0  0  0  0  0  0  0  0  0
    1.4743   -2.0373    2.0493 H   0  0  0  0  0  0  0  0  0  0  0  0
    1.6867  -10.0985   -9.5085 H   0  0  0  0  0  0  0  0  0  0  0  0
    2.8286   -9.7782  -10.8288 H   0  0  0  0  0  0  0  0  0  0  0  0
    0.4829   -9.7910  -11.6591 H   0  0  0  0  0  0  0  0  0  0  0  0
    0.0658   -8.4970  -10.5299 H   0  0  0  0  0  0  0  0  0  0  0  0
    1.2015   -8.1884  -11.8472 H   0  0  0  0  0  0  0  0  0  0  0  0
    3.2559   -7.9849   -5.5547 H   0  0  0  0  0  0  0  0  0  0  0  0
    3.3314   -8.0457   -2.9525 H   0  0  0  0  0  0  0  0  0  0  0  0
  1  2  2  0  0  0  0
  2  3  1  0  0  0  0
  3  4  2  0  0  0  0
  4  5  1  0  0  0  0
  5  6  1  0  0  0  0
  6  7  1  0  0  0  0
  7  8  1  0  0  0  0
  8  9  1  0  0  0  0
  7 10  2  0  0  0  0
 10 11  1  0  0  0  0
 10 12  1  0  0  0  0
 12 13  1  0  0  0  0
  4 14  1  0  0  0  0
 14 15  2  0  0  0  0
 15 16  1  0  0  0  0
 16 17  1  0  0  0  0
 17 18  1  0  0  0  0
 18 19  1  0  0  0  0
 19 20  1  0  0  0  0
 20 21  1  0  0  0  0
 19 22  2  0  0  0  0
 22 23  1  0  0  0  0
 23 24  1  0  0  0  0
 22 25  1  0  0  0  0
 16 26  2  0  0  0  0
 26 27  1  0  0  0  0
 15 28  1  0  0  0  0
 28 29  2  0  0  0  0
 29 30  1  0  0  0  0
 29 31  1  0  0  0  0
 31 32  2  0  0  0  0
 32 33  1  0  0  0  0
 33 34  1  0  0  0  0
 33 35  1  0  0  0  0
 33 36  1  0  0  0  0
 32 37  1  0  0  0  0
 37 38  1  0  0  0  0
 38 39  1  0  0  0  0
 39 40  3  0  0  0  0
 38 41  2  0  0  0  0
 41 42  1  0  0  0  0
 42 43  2  0  0  0  0
 43 44  1  0  0  0  0
 44 45  2  0  0  0  0
 45 46  1  0  0  0  0
 46 47  2  0  0  0  0
 47 48  1  0  0  0  0
 48 49  1  0  0  0  0
 49 50  1  0  0  0  0
 50 51  1  0  0  0  0
 51 52  1  0  0  0  0
 50 53  2  0  0  0  0
 53 54  1  0  0  0  0
 53 55  1  0  0  0  0
 55 56  1  0  0  0  0
 47 57  1  0  0  0  0
 57 58  2  0  0  0  0
 58 59  1  0  0  0  0
 59 60  1  0  0  0  0
 60 61  1  0  0  0  0
 61 62  1  0  0  0  0
 62 63  1  0  0  0  0
 63 64  1  0  0  0  0
 62 65  2  0  0  0  0
 65 66  1  0  0  0  0
 66 67  1  0  0  0  0
 65 68  1  0  0  0  0
 59 69  2  0  0  0  0
 69 70  1  0  0  0  0
 58 71  1  0  0  0  0
 71 72  2  0  0  0  0
 72 73  1  0  0  0  0
 72 74  1  0  0  0  0
 74 75  2  0  0  0  0
 75 76  1  0  0  0  0
 76 77  2  0  0  0  0
 77 78  1  0  0  0  0
 78 79  1  0  0  0  0
 79 80  1  0  0  0  0
 80 81  1  0  0  0  0
 81 82  1  0  0  0  0
 80 83  2  0  0  0  0
 83 84  1  0  0  0  0
 83 85  1  0  0  0  0
 85 86  1  0  0  0  0
 77 87  1  0  0  0  0
 87 88  2  0  0  0  0
 88 89  1  0  0  0  0
 89 90  1  0  0  0  0
 90 91  1  0  0  0  0
 91 92  1  0  0  0  0
 92 93  1  0  0  0  0
 93 94  1  0  0  0  0
 92 95  2  0  0  0  0
 95 96  1  0  0  0  0
 96 97  1  0  0  0  0
 95 98  1  0  0  0  0
 89 99  2  0  0  0  0
 99100  1  0  0  0  0
 88101  1  0  0  0  0
101102  2  0  0  0  0
102103  1  0  0  0  0
102104  1  0  0  0  0
104105  2  0  0  0  0
105106  1  0  0  0  0
106107  1  0  0  0  0
106108  1  0  0  0  0
106109  1  0  0  0  0
105110  1  0  0  0  0
110111  1  0  0  0  0
111112  1  0  0  0  0
112113  3  0  0  0  0
111114  2  0  0  0  0
114115  1  0  0  0  0
115116  2  0  0  0  0
116117  1  0  0  0  0
117118  2  0  0  0  0
118119  1  0  0  0  0
119120  2  0  0  0  0
120121  1  0  0  0  0
121122  1  0  0  0  0
122123  1  0  0  0  0
123124  1  0  0  0  0
124125  1  0  0  0  0
123126  2  0  0  0  0
126127  1  0  0  0  0
126128  1  0  0  0  0
128129  1  0  0  0  0
120130  1  0  0  0  0
130131  2  0  0  0  0
131132  1  0  0  0  0
132133  1  0  0  0  0
133134  1  0  0  0  0
134135  1  0  0  0  0
135136  1  0  0  0  0
136137  1  0  0  0  0
135138  2  0  0  0  0
138139  1  0  0  0  0
139140  1  0  0  0  0
138141  1  0  0  0  0
132142  2  0  0  0  0
142143  1  0  0  0  0
131144  1  0  0  0  0
144145  2  0  0  0  0
145146  1  0  0  0  0
 27  1  1  0  0  0  0
 41 31  1  0  0  0  0
 70 44  1  0  0  0  0
100 74  1  0  0  0  0
114104  1  0  0  0  0
143117  1  0  0  0  0
 26  3  1  0  0  0  0
 69 46  1  0  0  0  0
 99 76  1  0  0  0  0
142119  1  0  0  0  0
 12  5  2  0  0  0  0
 30 14  1  0  0  0  0
 55 48  2  0  0  0  0
 73 57  1  0  0  0  0
 85 78  2  0  0  0  0
103 87  1  0  0  0  0
128121  2  0  0  0  0
146130  1  0  0  0  0
 23 17  2  0  0  0  0
 66 60  2  0  0  0  0
 96 90  2  0  0  0  0
139133  2  0  0  0  0
  1147  1  0  0  0  0
  2148  1  0  0  0  0
  8149  1  0  0  0  0
  8150  1  0  0  0  0
  9151  1  0  0  0  0
  9152  1  0  0  0  0
  9153  1  0  0  0  0
 20154  1  0  0  0  0
 20155  1  0  0  0  0
 21156  1  0  0  0  0
 21157  1  0  0  0  0
 21158  1  0  0  0  0
 28159  1  0  0  0  0
 42160  1  0  0  0  0
 43161  1  0  0  0  0
 45162  1  0  0  0  0
 51163  1  0  0  0  0
 51164  1  0  0  0  0
 52165  1  0  0  0  0
 52166  1  0  0  0  0
 52167  1  0  0  0  0
 63168  1  0  0  0  0
 63169  1  0  0  0  0
 64170  1  0  0  0  0
 64171  1  0  0  0  0
 64172  1  0  0  0  0
 71173  1  0  0  0  0
 75174  1  0  0  0  0
 81175  1  0  0  0  0
 81176  1  0  0  0  0
 82177  1  0  0  0  0
 82178  1  0  0  0  0
 82179  1  0  0  0  0
 93180  1  0  0  0  0
 93181  1  0  0  0  0
 94182  1  0  0  0  0
 94183  1  0  0  0  0
 94184  1  0  0  0  0
101185  1  0  0  0  0
115186  1  0  0  0  0
116187  1  0  0  0  0
118188  1  0  0  0  0
124189  1  0  0  0  0
124190  1  0  0  0  0
125191  1  0  0  0  0
125192  1  0  0  0  0
125193  1  0  0  0  0
136194  1  0  0  0  0
136195  1  0  0  0  0
137196  1  0  0  0  0
137197  1  0  0  0  0
137198  1  0  0  0  0
144199  1  0  0  0  0
145200  1  0  0  0  0
M  END
