227

C          5.63280        3.91950       -2.46070
C          5.81470        4.94140       -3.32080
C          4.68560        5.80890       -3.38790
C          4.54840        7.00750       -4.09850
C          5.63640        7.60030       -4.86080
S          6.41160        6.78820       -6.18580
C          7.46400        8.12930       -6.49210
C          8.50160        8.06700       -7.55720
C          9.77510        7.39220       -7.04180
C          7.22580        9.13380       -5.60190
Cl         8.09370       10.61410       -5.56630
C          6.18380        8.84040       -4.68250
Cl         5.73760        9.91150       -3.42410
C          3.32570        7.65940       -4.00520
C          2.25430        7.20200       -3.20280
C          2.43290        6.06130       -2.40020
C          1.45800        5.63230       -1.41150
S          1.01620        3.95940       -1.23300
C          0.01340        4.28240        0.13500
C         -0.75870        3.21270        0.82760
C         -0.52500        1.83530        0.22590
C          0.03870        5.61360        0.43420
C          0.84080        6.38270       -0.44610
Cl         1.03720        8.07580       -0.25300
Cl        -0.80300        6.30050        1.76250
C          3.63770        5.37460       -2.54280
S          4.09520        3.93780       -1.67440
C          1.11140        8.04600       -3.33670
C          1.31610        9.09910       -4.16430
S          2.91520        9.10920       -4.87180
C          0.47620       10.27940       -4.36190
C         -0.50560       10.43900       -5.29860
C         -0.93140        9.40810       -6.28410
F         -1.52200        8.35360       -5.68800
F          0.10460        8.90520       -6.97630
F         -1.80470        9.87840       -7.18070
S         -1.28460       11.97610       -5.21710
C         -0.27130       12.42960       -3.87940
C         -0.40960       13.68490       -3.28550
N         -0.52840       14.71700       -2.79690
C          0.62550       11.43570       -3.52810
C          1.54310       11.37570       -2.42940
C          1.53380       12.04540       -1.26110
C          2.29160       11.47870       -0.17980
C          3.37200       10.64890       -0.27340
C          3.48900        9.74740        0.80930
C          4.30350        8.59410        0.84110
C          5.51910        8.50760        0.06840
S          6.11190        7.01020       -0.59240
C          7.60320        7.72090       -1.10280
C          8.69330        6.89920       -1.70140
C          8.95480        7.23320       -3.16950
C          7.61680        9.05140       -0.80160
Cl         8.93850       10.09120       -1.13490
C          6.44590        9.50210       -0.14060
Cl         6.31010       11.10900        0.44240
C          3.82570        7.55340        1.63380
C          2.76080        7.71950        2.55220
C          2.13820        8.97450        2.71510
C          1.11470        9.15200        3.72250
S         -0.42040        9.88890        3.36920
C         -1.00360        9.62970        4.97620
C         -2.35200       10.10370        5.39160
C         -2.31830       11.58880        5.76060
C         -0.04820        9.02270        5.73710
C          1.15000        8.74380        5.03090
Cl         2.52210        8.04540        5.79130
Cl        -0.25830        8.61140        7.39020
C          2.45480        9.93280        1.76010
S          1.50480       11.34710        1.38720
C          2.32300        6.48500        3.08740
C          3.00080        5.41030        2.59230
S          4.30190        5.88500        1.52040
C          2.66460        4.03290        2.74490
C          1.67680        3.49840        3.52010
C          1.49370        2.10830        3.31890
C          0.51750        1.27340        3.89280
C         -0.44130        1.79870        4.85230
S          0.07150        2.59860        6.30860
C         -1.55650        2.90150        6.81000
C         -1.85270        3.56910        8.10710
C         -1.87610        2.55350        9.25180
C         -2.43440        2.39960        5.89590
Cl        -4.14070        2.50950        6.04610
C         -1.80650        1.77980        4.78230
Cl        -2.69470        1.15860        3.45510
C          0.48570       -0.04700        3.46580
C          1.37480       -0.55340        2.48420
C          2.35400        0.27690        1.91420
C          3.24070       -0.21220        0.87240
S          3.37200        0.64870       -0.63330
C          4.47180       -0.51180       -1.29000
C          5.04610       -0.36010       -2.65710
C          4.13160        0.42810       -3.58690
C          4.71440       -1.50040       -0.38230
C          4.01850       -1.33690        0.84470
Cl         4.22130       -2.41820        2.16390
Cl         5.76020       -2.82750       -0.67690
C          2.38250        1.59680        2.34200
S          3.44860        2.83300        1.74260
C          1.09330       -1.90010        2.16460
C          0.07300       -2.43390        2.89670
S         -0.61940       -1.27840        4.00950
C         -0.40880       -3.77160        2.75880
C          0.28900       -4.79390        2.18510
C         -0.45580       -5.98820        2.05350
C         -0.03500       -7.20710        1.48730
C          1.31130       -7.36290        0.96360
S          1.99670       -6.19530       -0.13180
C          3.49650       -7.05040       -0.24230
C          4.63560       -6.52890       -1.04840
C          4.17630       -5.79010       -2.30010
C          3.45060       -8.17580        0.52530
Cl         4.75550       -9.28010        0.67930
C          2.21690       -8.35870        1.20710
Cl         1.96090       -9.65710        2.29490
C         -0.97700       -8.22710        1.43130
C         -2.28940       -8.07500        1.94370
C         -2.68630       -6.88150        2.57340
C         -4.01780       -6.77100        3.14170
S         -5.08250       -5.45610        2.74150
C         -6.37450       -6.11150        3.68670
C         -7.71510       -5.46570        3.72430
C         -8.61770       -6.02880        2.62330
C         -5.98750       -7.27790        4.27760
C         -4.65180       -7.65190        3.97670
Cl        -3.90850       -9.03630        4.67070
Cl        -7.00410       -8.22280        5.28550
C         -1.76230       -5.84760        2.58460
S         -2.02260       -4.25160        3.23120
C         -3.09710       -9.19960        1.66700
C         -2.44340      -10.19280        0.99760
S         -0.78120       -9.77570        0.65750
C         -3.04310      -11.42720        0.60190
C         -4.22620      -11.90360        1.08570
C         -4.66080      -13.08950        0.45120
C         -5.87280      -13.77070        0.64930
C         -6.87720      -13.23290        1.55120
S         -7.58900      -14.20180        2.80690
C         -8.53790      -12.88140        3.39820
C         -9.48650      -13.05740        4.53190
C        -10.85000      -13.53940        4.03000
C         -8.31900      -11.76620        2.64550
Cl        -9.07960      -10.25590        2.92880
C         -7.37840      -11.95970        1.59980
Cl        -7.00340      -10.71850        0.47200
C         -6.05450      -14.94410       -0.07120
C         -5.10150      -15.43100       -0.99750
C         -3.90700      -14.72700       -1.22200
C         -2.92100      -15.18570       -2.18810
S         -3.35220      -15.48730       -3.84590
C         -1.72980      -15.91190       -4.27420
C         -1.38720      -16.35800       -5.65260
C         -1.69900      -17.84480       -5.83940
C         -0.91740      -15.83170       -3.18340
C         -1.58610      -15.41310       -2.00100
Cl        -0.78920      -15.29620       -0.48850
Cl         0.76000      -16.19120       -3.21120
C         -3.71450      -13.56100       -0.49110
S         -2.36140      -12.47170       -0.62310
C         -5.53390      -16.64960       -1.59880
C         -6.74860      -17.04490       -1.16750
S         -7.45400      -15.97720       -0.00350
H          6.31700        3.12830       -2.22450
H          6.70490        5.08210       -3.90500
H          8.11370        7.50820       -8.41050
H          8.73210        9.08370       -7.88000
H         10.52310        7.35850       -7.82900
H          9.55990        6.37590       -6.72040
H         10.17950        7.94610       -6.19870
H         -1.82330        3.46240        0.78000
H         -0.48190        3.21190        1.88580
H         -0.87100        1.80610       -0.80440
H         -1.06330        1.08330        0.79600
H          0.53390        1.58770        0.23720
H          0.17680        7.86940       -2.83740
H          2.23960       10.55300       -2.51190
H          0.83480       12.84100       -1.05090
H          4.00480       10.60020       -1.14080
H          9.60870        7.08030       -1.13100
H          8.42850        5.84510       -1.60430
H          9.78760        6.64130       -3.54040
H          8.07620        7.01490       -3.76790
H          9.19810        8.28540       -3.28380
H         -3.05790        9.94970        4.57370
H         -2.67960        9.51870        6.25290
H         -3.30790       11.92030        6.06280
H         -1.62790       11.75770        6.58330
H         -1.99550       12.18150        4.90810
H          1.47910        6.39470        3.74470
H          1.08500        4.08170        4.20030
H         -2.82490        4.06030        8.03400
H         -1.09240        4.32590        8.30770
H         -0.91040        2.06130        9.33980
H         -2.09970        3.05410       10.18980
H         -2.63610        1.79790        9.06950
H          6.01270        0.14900       -2.58050
H          5.23570       -1.35650       -3.06370
H          3.17470       -0.07600       -3.69420
H          4.58710        0.52340       -4.56890
H          3.95140        1.42390       -3.18850
H          1.59970       -2.44370        1.39060
H          1.31170       -4.69340        1.87680
H          5.27970       -7.36940       -1.31550
H          5.22480       -5.84650       -0.42670
H          3.59100       -6.44740       -2.93830
H          3.56260       -4.93380       -2.02890
H          5.03740       -5.43510       -2.86000
H         -7.60260       -4.38880        3.59100
H         -8.17020       -5.65410        4.69890
H         -8.74310       -7.10100        2.75040
H         -9.59570       -5.55690        2.66420
H         -8.18040       -5.84400        1.64500
H         -4.14100       -9.24940        1.91000
H         -4.75920      -11.43580        1.89100
H         -9.07940      -13.78570        5.23500
H         -9.60280      -12.10100        5.04550
H        -11.53040      -13.67070        4.86690
H        -11.27760      -12.81290        3.34360
H        -10.74590      -14.48920        3.51070
H         -1.95820      -15.77380       -6.37640
H         -0.32320      -16.18300       -5.82140
H         -1.12940      -18.44080       -5.13080
H         -1.43800      -18.15740       -6.84670
H         -2.75840      -18.03090       -5.67930
H         -4.95010      -17.19580       -2.31640
H         -7.29810      -17.91880       -1.45810
