173

C         -0.49720        7.77880       -3.15990
S         -1.38090        6.36210       -2.68920
C         -0.75340        6.49740       -1.08810
C         -0.76930        5.86070        0.15560
C          0.08230        6.59430        0.99930
N          0.61900        7.64970        0.30630
C          1.45770        8.68550        0.84800
C          0.63080        9.82560        1.44060
C          0.10430        7.60290       -0.96350
C          0.23980        8.33360       -2.16200
C          0.21110        6.03800        2.28250
C         -0.53660        4.89580        2.42760
S         -1.44530        4.50480        0.96810
C         -0.58360        3.96050        3.52660
C         -1.51300        2.91090        3.49900
C         -1.45020        1.91920        4.44260
C         -0.47700        1.95340        5.45540
C          0.39740        3.02710        5.53850
C          0.34060        4.01740        4.57690
C         -0.53910        0.70480        6.18740
C         -1.55630       -0.08860        5.62740
C         -2.31420        0.68470        4.57340
C         -2.46020       -0.08430        3.25450
C         -1.11630       -0.46370        2.64480
C         -3.68850        1.15410        5.10820
C         -4.64570        0.03890        5.50730
C         -1.69380       -1.40210        6.00160
C         -0.81010       -1.96090        6.93750
C          0.13190       -1.13210        7.55620
C          0.27200        0.19240        7.19020
C         -0.83730       -3.40000        7.09390
C          0.17980       -4.16770        7.51520
C          0.24290       -5.60200        7.31140
C          1.50910       -6.17870        7.13180
C          1.62130       -7.45100        6.62340
C          0.45790       -8.18040        6.32060
C         -0.79600       -7.67760        6.63340
C         -0.89600       -6.39050        7.12190
C          0.82830       -9.33230        5.52460
C          2.21990       -9.30870        5.33800
C          2.85510       -8.21990        6.19040
C          3.53550       -8.92880        7.38940
C          3.58810       -8.12850        8.68610
C          3.83140       -7.39230        5.32990
C          4.82260       -6.48620        6.05090
C          2.80510      -10.13800        4.40800
C          1.99060      -10.94300        3.60700
C          0.62800      -11.03940        3.87660
C          0.03820      -10.24570        4.84470
C          2.53590      -11.53880        2.37440
C          2.61370      -10.85740        1.22240
C          2.21900       -9.49430        0.98870
S          2.36460       -8.87720       -0.66240
C          1.76630       -7.33390       -0.17380
C          1.45440       -6.05620       -0.65070
C          1.00250       -5.31000        0.45750
N          1.03920       -6.08500        1.58700
C          0.61450       -5.71520        2.91150
C         -0.81780       -6.15770        3.20070
C          1.48570       -7.32380        1.20580
C          1.73140       -8.53950        1.84970
C          0.64250       -3.99600        0.14280
C          0.80840       -3.72810       -1.19940
S          1.42420       -5.11090       -2.09590
C          0.52240       -2.50080       -1.86140
S          0.62720       -2.37760       -3.61380
C          0.11990       -0.72820       -3.54370
C         -0.16290        0.37540       -4.35300
C         -0.55160        1.42060       -3.49290
N         -0.49400        0.99610       -2.19120
C         -0.95000        1.72620       -1.03940
C         -2.41340        1.42160       -0.72700
C         -0.10490       -0.31710       -2.21400
C          0.12630       -1.32070       -1.26880
C         -0.88480        2.60640       -4.15930
C         -0.76050        2.48540       -5.52250
S         -0.21650        0.87500       -6.00150
C         -1.02810        3.47830       -6.53510
C         -0.92500        3.14020       -7.89210
C         -1.20900        4.07410       -8.85860
C         -1.54780        5.38650       -8.49000
C         -1.64270        5.73780       -7.15170
C         -1.39510        4.78450       -6.18610
C         -1.73190        6.17150       -9.69080
C         -1.51140        5.34600      -10.80640
C         -1.16070        3.93620      -10.36780
C         -2.25240        2.98950      -10.90870
C         -2.11920        1.52080      -10.52680
C          0.27420        3.52680      -10.75800
C          0.55360        3.38940      -12.24910
C         -1.68590        5.84210      -12.07690
C         -2.03280        7.18630      -12.26180
C         -2.21940        7.99820      -11.13900
C         -2.08220        7.50240       -9.85770
C         -2.21590        7.77160      -13.58250
C         -2.03340        7.17400      -14.75500
H         -0.58270        8.11370       -4.17420
H          2.09420        8.24310        1.61950
H          2.09760        9.06320        0.04580
H         -0.00590        9.45270        2.23970
H          1.28570       10.59340        1.84320
H         -0.00100       10.26950        0.67470
H          0.84300        9.21440       -2.28780
H          0.82230        6.45060        3.06420
H         -2.24950        2.87710        2.70910
H          1.13640        3.07670        6.32450
H          1.04830        4.83110        4.61670
H         -3.03600       -0.99340        3.43270
H         -3.01900        0.53070        2.54610
H         -0.54140       -1.07790        3.33560
H         -1.27500       -1.02810        1.72790
H         -0.53390        0.42520        2.41210
H         -4.15430        1.77350        4.33810
H         -3.50870        1.78980        5.97930
H         -5.57360        0.47280        5.87360
H         -4.88500       -0.60060        4.66170
H         -4.21910       -0.56900        6.30090
H         -2.43320       -2.03720        5.53480
H          0.77830       -1.54210        8.31760
H          1.02900        0.80860        7.65290
H         -1.71580       -3.88060        6.68180
H          1.08930       -3.70490        7.87490
H          2.38110       -5.57570        7.33040
H         -1.68420       -8.26400        6.45020
H         -1.87060       -5.97700        7.33480
H          4.54390       -9.21840        7.08730
H          2.98110       -9.84960        7.59040
H          2.58380       -7.90500        9.03810
H          4.09370       -8.71560        9.45050
H          4.12550       -7.19370        8.56570
H          4.41230       -8.08890        4.72200
H          3.23660       -6.78620        4.64030
H          5.48400       -7.05950        6.69430
H          4.32520       -5.72620        6.64520
H          5.43630       -5.97730        5.30930
H          3.86730      -10.11380        4.21340
H          0.01940      -11.69490        3.27120
H         -1.02700      -10.29090        5.01620
H          2.86280      -12.56900        2.40980
H          3.00810      -11.35970        0.34810
H          1.28930       -6.18200        3.63610
H          0.70080       -4.62980        3.00770
H         -1.09210       -5.87170        4.21270
H         -1.50680       -5.69530        2.49770
H         -0.89960       -7.23840        3.11080
H          1.55420       -8.69570        2.89300
H          0.27160       -3.27560        0.84800
H         -0.82680        2.79210       -1.24260
H         -0.32130        1.46000       -0.18490
H         -2.73540        2.00310        0.13160
H         -2.54100        0.36380       -0.50950
H         -3.03910        1.67990       -1.57800
H          0.02360       -1.19840       -0.20700
H         -1.20940        3.50420       -3.66620
H         -0.61440        2.13980       -8.15250
H         -1.90790        6.74510       -6.86570
H         -1.47590        5.05700       -5.14590
H         -2.26410        3.07440      -11.99690
H         -3.21500        3.36160      -10.54650
H         -2.23400        1.38350       -9.45570
H         -1.15880        1.11520      -10.83310
H         -2.90050        0.94870      -11.02370
H          0.49920        2.57960      -10.26490
H          0.95250        4.27660      -10.34120
H          0.47150        4.34930      -12.75110
H         -0.12780        2.68400      -12.71750
H          1.56830        3.02260      -12.39220
H         -1.57200        5.20280      -12.93720
H         -2.48840        9.03570      -11.28260
H         -2.25160        8.13920       -9.00170
H         -2.53180        8.80830      -13.57270
H         -2.19840        7.69750      -15.68100
H         -1.71690        6.14920      -14.84710
