
  xtb     02282220543D
 energy: -507.961637155207 gnorm: 0.000576276165 xtb: 6.4.1 (unknown)
254283  0     0  0            999 V2000
    2.2746  -13.5251    2.7460 C   0  0  0  0  0  0  0  0  0  0  0  0
    3.0612  -13.1268    1.7253 C   0  0  0  0  0  0  0  0  0  0  0  0
    2.6583  -11.8769    1.1712 C   0  0  0  0  0  0  0  0  0  0  0  0
    3.2546  -11.1493    0.1285 C   0  0  0  0  0  0  0  0  0  0  0  0
    4.5035  -11.5717   -0.4840 C   0  0  0  0  0  0  0  0  0  0  0  0
    4.6650  -11.7076   -2.2090 S   0  0  0  0  0  0  0  0  0  0  0  0
    6.3306  -12.1651   -2.0954 C   0  0  0  0  0  0  0  0  0  0  0  0
    7.1452  -12.3945   -3.3201 C   0  0  0  0  0  0  0  0  0  0  0  0
    7.4757  -11.0689   -4.0102 C   0  0  0  0  0  0  0  0  0  0  0  0
    6.7244  -12.2003   -0.7912 C   0  0  0  0  0  0  0  0  0  0  0  0
    8.3120  -12.6026   -0.2767 Cl  0  0  0  0  0  0  0  0  0  0  0  0
    5.6904  -11.8692    0.1259 C   0  0  0  0  0  0  0  0  0  0  0  0
    5.9551  -11.7719    1.8193 Cl  0  0  0  0  0  0  0  0  0  0  0  0
    2.6059   -9.9916   -0.2817 C   0  0  0  0  0  0  0  0  0  0  0  0
    1.4282   -9.5152    0.3400 C   0  0  0  0  0  0  0  0  0  0  0  0
    0.8815  -10.1930    1.4382 C   0  0  0  0  0  0  0  0  0  0  0  0
   -0.2523   -9.6376    2.1694 C   0  0  0  0  0  0  0  0  0  0  0  0
   -0.0787   -8.1536    3.0591 S   0  0  0  0  0  0  0  0  0  0  0  0
   -1.7173   -8.2035    3.6111 C   0  0  0  0  0  0  0  0  0  0  0  0
   -2.2535   -7.1700    4.5393 C   0  0  0  0  0  0  0  0  0  0  0  0
   -1.9536   -7.5293    5.9961 C   0  0  0  0  0  0  0  0  0  0  0  0
   -2.3454   -9.3125    3.1288 C   0  0  0  0  0  0  0  0  0  0  0  0
   -1.5164  -10.1297    2.3124 C   0  0  0  0  0  0  0  0  0  0  0  0
   -2.0737  -11.5595    1.5502 Cl  0  0  0  0  0  0  0  0  0  0  0  0
   -3.9853   -9.6939    3.4531 Cl  0  0  0  0  0  0  0  0  0  0  0  0
    1.4993  -11.3764    1.8146 C   0  0  0  0  0  0  0  0  0  0  0  0
    0.9894  -12.4247    3.1058 S   0  0  0  0  0  0  0  0  0  0  0  0
    0.9331   -8.3449   -0.2835 C   0  0  0  0  0  0  0  0  0  0  0  0
    1.7111   -7.9062   -1.3101 C   0  0  0  0  0  0  0  0  0  0  0  0
    3.1158   -8.9245   -1.5631 S   0  0  0  0  0  0  0  0  0  0  0  0
    1.4946   -6.7360   -2.0982 C   0  0  0  0  0  0  0  0  0  0  0  0
    2.4047   -6.0182   -2.8119 C   0  0  0  0  0  0  0  0  0  0  0  0
    1.8745   -4.8181   -3.3487 C   0  0  0  0  0  0  0  0  0  0  0  0
    2.5642   -3.8062   -4.0374 C   0  0  0  0  0  0  0  0  0  0  0  0
    3.9748   -3.9642   -4.3568 C   0  0  0  0  0  0  0  0  0  0  0  0
    4.5218   -5.3226   -5.2946 S   0  0  0  0  0  0  0  0  0  0  0  0
    6.1764   -4.8204   -5.2024 C   0  0  0  0  0  0  0  0  0  0  0  0
    7.2579   -5.6442   -5.8091 C   0  0  0  0  0  0  0  0  0  0  0  0
    7.5034   -6.9146   -4.9917 C   0  0  0  0  0  0  0  0  0  0  0  0
    6.2809   -3.6700   -4.4800 C   0  0  0  0  0  0  0  0  0  0  0  0
    7.7639   -2.8676   -4.1599 Cl  0  0  0  0  0  0  0  0  0  0  0  0
    5.0348   -3.1793   -4.0016 C   0  0  0  0  0  0  0  0  0  0  0  0
    4.9139   -1.7904   -3.0054 Cl  0  0  0  0  0  0  0  0  0  0  0  0
    1.8471   -2.6628   -4.3574 C   0  0  0  0  0  0  0  0  0  0  0  0
    0.4678   -2.5088   -4.0611 C   0  0  0  0  0  0  0  0  0  0  0  0
   -0.2401   -3.5498   -3.4318 C   0  0  0  0  0  0  0  0  0  0  0  0
   -1.6673   -3.4688   -3.1857 C   0  0  0  0  0  0  0  0  0  0  0  0
   -2.3442   -3.9685   -1.6647 S   0  0  0  0  0  0  0  0  0  0  0  0
   -3.9561   -3.5919   -2.1549 C   0  0  0  0  0  0  0  0  0  0  0  0
   -5.0871   -3.7420   -1.1984 C   0  0  0  0  0  0  0  0  0  0  0  0
   -5.0246   -2.6709   -0.1078 C   0  0  0  0  0  0  0  0  0  0  0  0
   -3.9601   -3.1220   -3.4349 C   0  0  0  0  0  0  0  0  0  0  0  0
   -2.6696   -3.0607   -4.0268 C   0  0  0  0  0  0  0  0  0  0  0  0
   -2.4466   -2.6207   -5.6709 Cl  0  0  0  0  0  0  0  0  0  0  0  0
   -5.3780   -2.6528   -4.2795 Cl  0  0  0  0  0  0  0  0  0  0  0  0
    0.5031   -4.6588   -3.0421 C   0  0  0  0  0  0  0  0  0  0  0  0
   -0.0962   -6.0044   -2.1188 S   0  0  0  0  0  0  0  0  0  0  0  0
    0.0031   -1.2161   -4.4025 C   0  0  0  0  0  0  0  0  0  0  0  0
    0.9579   -0.4212   -4.9656 C   0  0  0  0  0  0  0  0  0  0  0  0
    2.4947   -1.2434   -5.1280 S   0  0  0  0  0  0  0  0  0  0  0  0
    0.8419    0.9662   -5.2746 C   0  0  0  0  0  0  0  0  0  0  0  0
    1.8513    1.8637   -5.4676 C   0  0  0  0  0  0  0  0  0  0  0  0
    1.4121    3.2102   -5.4988 C   0  0  0  0  0  0  0  0  0  0  0  0
    2.2084    4.3730   -5.4994 C   0  0  0  0  0  0  0  0  0  0  0  0
    3.6383    4.2886   -5.7283 C   0  0  0  0  0  0  0  0  0  0  0  0
    4.7911    5.0678   -4.6858 S   0  0  0  0  0  0  0  0  0  0  0  0
    6.1342    4.4924   -5.6130 C   0  0  0  0  0  0  0  0  0  0  0  0
    7.5291    4.8714   -5.2574 C   0  0  0  0  0  0  0  0  0  0  0  0
    7.8598    6.2736   -5.7738 C   0  0  0  0  0  0  0  0  0  0  0  0
    5.6994    3.7538   -6.6731 C   0  0  0  0  0  0  0  0  0  0  0  0
    6.7406    3.0308   -7.8297 Cl  0  0  0  0  0  0  0  0  0  0  0  0
    4.2864    3.6283   -6.7377 C   0  0  0  0  0  0  0  0  0  0  0  0
    3.4935    2.7968   -8.0124 Cl  0  0  0  0  0  0  0  0  0  0  0  0
    1.5685    5.5667   -5.1903 C   0  0  0  0  0  0  0  0  0  0  0  0
    0.1640    5.6575   -5.0388 C   0  0  0  0  0  0  0  0  0  0  0  0
   -0.6451    4.5134   -5.1435 C   0  0  0  0  0  0  0  0  0  0  0  0
   -2.0790    4.6093   -4.9048 C   0  0  0  0  0  0  0  0  0  0  0  0
   -3.0975    5.5884   -5.9170 S   0  0  0  0  0  0  0  0  0  0  0  0
   -4.5089    5.2281   -4.9800 C   0  0  0  0  0  0  0  0  0  0  0  0
   -5.8466    5.7472   -5.3759 C   0  0  0  0  0  0  0  0  0  0  0  0
   -6.4226    4.9440   -6.5437 C   0  0  0  0  0  0  0  0  0  0  0  0
   -4.1907    4.3989   -3.9473 C   0  0  0  0  0  0  0  0  0  0  0  0
   -2.8127    4.0524   -3.8961 C   0  0  0  0  0  0  0  0  0  0  0  0
   -2.1494    3.1004   -2.6339 Cl  0  0  0  0  0  0  0  0  0  0  0  0
   -5.3219    3.8256   -2.7932 Cl  0  0  0  0  0  0  0  0  0  0  0  0
    0.0073    3.3049   -5.3277 C   0  0  0  0  0  0  0  0  0  0  0  0
   -0.7317    1.7332   -5.2318 S   0  0  0  0  0  0  0  0  0  0  0  0
   -0.2378    6.9055   -4.5131 C   0  0  0  0  0  0  0  0  0  0  0  0
    0.8091    7.7230   -4.1872 C   0  0  0  0  0  0  0  0  0  0  0  0
    2.3398    7.0677   -4.7417 S   0  0  0  0  0  0  0  0  0  0  0  0
    0.7406    8.6801   -3.1247 C   0  0  0  0  0  0  0  0  0  0  0  0
   -0.4092    9.0637   -2.4924 C   0  0  0  0  0  0  0  0  0  0  0  0
   -0.2294    9.2999   -1.1083 C   0  0  0  0  0  0  0  0  0  0  0  0
   -1.2423    9.2904   -0.1349 C   0  0  0  0  0  0  0  0  0  0  0  0
   -2.6514    9.2440   -0.5144 C   0  0  0  0  0  0  0  0  0  0  0  0
   -3.7618   10.5105   -0.1009 S   0  0  0  0  0  0  0  0  0  0  0  0
   -5.0892    9.6974   -0.8587 C   0  0  0  0  0  0  0  0  0  0  0  0
   -6.4645   10.2665   -0.8257 C   0  0  0  0  0  0  0  0  0  0  0  0
   -7.1974    9.8435    0.4498 C   0  0  0  0  0  0  0  0  0  0  0  0
   -4.6799    8.5076   -1.3820 C   0  0  0  0  0  0  0  0  0  0  0  0
   -5.7090    7.4126   -2.2081 Cl  0  0  0  0  0  0  0  0  0  0  0  0
   -3.2969    8.2472   -1.1890 C   0  0  0  0  0  0  0  0  0  0  0  0
   -2.5469    6.7865   -1.7053 Cl  0  0  0  0  0  0  0  0  0  0  0  0
   -0.8459    9.0593    1.1723 C   0  0  0  0  0  0  0  0  0  0  0  0
    0.5127    8.9545    1.5545 C   0  0  0  0  0  0  0  0  0  0  0  0
    1.5365    9.1525    0.6039 C   0  0  0  0  0  0  0  0  0  0  0  0
    2.9243    9.1009    1.0151 C   0  0  0  0  0  0  0  0  0  0  0  0
    4.1235    8.1659    0.1710 S   0  0  0  0  0  0  0  0  0  0  0  0
    5.3692    8.6130    1.2869 C   0  0  0  0  0  0  0  0  0  0  0  0
    6.7675    8.1382    1.1007 C   0  0  0  0  0  0  0  0  0  0  0  0
    7.4574    8.8990   -0.0337 C   0  0  0  0  0  0  0  0  0  0  0  0
    4.8753    9.4516    2.2418 C   0  0  0  0  0  0  0  0  0  0  0  0
    3.4889    9.7219    2.0986 C   0  0  0  0  0  0  0  0  0  0  0  0
    2.6440   10.7830    3.1487 Cl  0  0  0  0  0  0  0  0  0  0  0  0
    5.8156   10.1239    3.5104 Cl  0  0  0  0  0  0  0  0  0  0  0  0
    1.1331    9.2228   -0.7236 C   0  0  0  0  0  0  0  0  0  0  0  0
    2.1542    8.9248   -2.1059 S   0  0  0  0  0  0  0  0  0  0  0  0
    0.6549    8.2919    2.7992 C   0  0  0  0  0  0  0  0  0  0  0  0
   -0.5290    7.8569    3.3227 C   0  0  0  0  0  0  0  0  0  0  0  0
   -1.9095    8.4729    2.4253 S   0  0  0  0  0  0  0  0  0  0  0  0
   -0.6963    6.6957    4.1448 C   0  0  0  0  0  0  0  0  0  0  0  0
    0.2028    5.6662    4.1494 C   0  0  0  0  0  0  0  0  0  0  0  0
   -0.3431    4.4381    4.5862 C   0  0  0  0  0  0  0  0  0  0  0  0
    0.2303    3.1632    4.4244 C   0  0  0  0  0  0  0  0  0  0  0  0
    1.6105    3.0087    4.0070 C   0  0  0  0  0  0  0  0  0  0  0  0
    2.0425    1.9475    2.6967 S   0  0  0  0  0  0  0  0  0  0  0  0
    3.7196    2.3554    2.8109 C   0  0  0  0  0  0  0  0  0  0  0  0
    4.7266    1.7558    1.8904 C   0  0  0  0  0  0  0  0  0  0  0  0
    4.4020    0.3060    1.5441 C   0  0  0  0  0  0  0  0  0  0  0  0
    3.9174    3.2631    3.8092 C   0  0  0  0  0  0  0  0  0  0  0  0
    5.4524    3.9118    4.2237 Cl  0  0  0  0  0  0  0  0  0  0  0  0
    2.7274    3.6371    4.4885 C   0  0  0  0  0  0  0  0  0  0  0  0
    2.7326    4.7069    5.8312 Cl  0  0  0  0  0  0  0  0  0  0  0  0
   -0.6305    2.0816    4.5506 C   0  0  0  0  0  0  0  0  0  0  0  0
   -1.9892    2.2011    4.9358 C   0  0  0  0  0  0  0  0  0  0  0  0
   -2.5258    3.4743    5.2118 C   0  0  0  0  0  0  0  0  0  0  0  0
   -3.9041    3.6679    5.6241 C   0  0  0  0  0  0  0  0  0  0  0  0
   -5.2387    2.9328    4.7853 S   0  0  0  0  0  0  0  0  0  0  0  0
   -6.4080    3.6888    5.8122 C   0  0  0  0  0  0  0  0  0  0  0  0
   -7.8622    3.4152    5.6507 C   0  0  0  0  0  0  0  0  0  0  0  0
   -8.2410    2.0766    6.2887 C   0  0  0  0  0  0  0  0  0  0  0  0
   -5.7859    4.4549    6.7520 C   0  0  0  0  0  0  0  0  0  0  0  0
   -4.3695    4.4555    6.6423 C   0  0  0  0  0  0  0  0  0  0  0  0
   -3.3650    5.3000    7.7437 Cl  0  0  0  0  0  0  0  0  0  0  0  0
   -6.6135    5.3496    7.9594 Cl  0  0  0  0  0  0  0  0  0  0  0  0
   -1.6982    4.5678    4.9745 C   0  0  0  0  0  0  0  0  0  0  0  0
   -2.2314    6.2247    4.8378 S   0  0  0  0  0  0  0  0  0  0  0  0
   -2.6622    0.9528    4.8746 C   0  0  0  0  0  0  0  0  0  0  0  0
   -1.8781   -0.0623    4.4128 C   0  0  0  0  0  0  0  0  0  0  0  0
   -0.2210    0.4421    4.1511 S   0  0  0  0  0  0  0  0  0  0  0  0
   -2.2523   -1.3657    3.9694 C   0  0  0  0  0  0  0  0  0  0  0  0
   -1.4919   -2.1678    3.1714 C   0  0  0  0  0  0  0  0  0  0  0  0
   -2.1685   -3.3242    2.7180 C   0  0  0  0  0  0  0  0  0  0  0  0
   -1.7046   -4.2858    1.8055 C   0  0  0  0  0  0  0  0  0  0  0  0
   -0.4150   -4.1015    1.1549 C   0  0  0  0  0  0  0  0  0  0  0  0
    0.8501   -5.2883    1.2407 S   0  0  0  0  0  0  0  0  0  0  0  0
    1.9356   -4.3179    0.3085 C   0  0  0  0  0  0  0  0  0  0  0  0
    3.3466   -4.7279    0.0705 C   0  0  0  0  0  0  0  0  0  0  0  0
    4.2643   -4.1460    1.1489 C   0  0  0  0  0  0  0  0  0  0  0  0
    1.3361   -3.1464   -0.0470 C   0  0  0  0  0  0  0  0  0  0  0  0
    2.0893   -1.9395   -1.0058 Cl  0  0  0  0  0  0  0  0  0  0  0  0
    0.0104   -3.0131    0.4411 C   0  0  0  0  0  0  0  0  0  0  0  0
   -0.9386   -1.6213    0.1156 Cl  0  0  0  0  0  0  0  0  0  0  0  0
   -2.5538   -5.3521    1.5377 C   0  0  0  0  0  0  0  0  0  0  0  0
   -3.8483   -5.4606    2.1005 C   0  0  0  0  0  0  0  0  0  0  0  0
   -4.3229   -4.4767    2.9806 C   0  0  0  0  0  0  0  0  0  0  0  0
   -5.6531   -4.5541    3.5648 C   0  0  0  0  0  0  0  0  0  0  0  0
   -7.0838   -4.6202    2.5806 S   0  0  0  0  0  0  0  0  0  0  0  0
   -8.1274   -4.6462    3.9610 C   0  0  0  0  0  0  0  0  0  0  0  0
   -9.6045   -4.7525    3.8098 C   0  0  0  0  0  0  0  0  0  0  0  0
  -10.0352   -6.2130    3.6537 C   0  0  0  0  0  0  0  0  0  0  0  0
   -7.3937   -4.6198    5.1093 C   0  0  0  0  0  0  0  0  0  0  0  0
   -5.9911   -4.5610    4.8882 C   0  0  0  0  0  0  0  0  0  0  0  0
   -4.8493   -4.5723    6.1652 Cl  0  0  0  0  0  0  0  0  0  0  0  0
   -8.0773   -4.6446    6.6833 Cl  0  0  0  0  0  0  0  0  0  0  0  0
   -3.4691   -3.4212    3.2699 C   0  0  0  0  0  0  0  0  0  0  0  0
   -3.8428   -2.0364    4.2606 S   0  0  0  0  0  0  0  0  0  0  0  0
   -4.5180   -6.6405    1.6618 C   0  0  0  0  0  0  0  0  0  0  0  0
   -3.7768   -7.3760    0.8097 C   0  0  0  0  0  0  0  0  0  0  0  0
   -2.2256   -6.6903    0.4770 S   0  0  0  0  0  0  0  0  0  0  0  0
    2.3588  -14.4211    3.3293 H   0  0  0  0  0  0  0  0  0  0  0  0
    3.8937  -13.6970    1.3569 H   0  0  0  0  0  0  0  0  0  0  0  0
    8.0667  -12.9047   -3.0361 H   0  0  0  0  0  0  0  0  0  0  0  0
    6.5917  -13.0325   -4.0121 H   0  0  0  0  0  0  0  0  0  0  0  0
    8.0409  -10.4250   -3.3411 H   0  0  0  0  0  0  0  0  0  0  0  0
    6.5604  -10.5556   -4.2945 H   0  0  0  0  0  0  0  0  0  0  0  0
    8.0680  -11.2505   -4.9028 H   0  0  0  0  0  0  0  0  0  0  0  0
   -3.3337   -7.0971    4.3992 H   0  0  0  0  0  0  0  0  0  0  0  0
   -1.8062   -6.2025    4.3038 H   0  0  0  0  0  0  0  0  0  0  0  0
   -0.8803   -7.5940    6.1568 H   0  0  0  0  0  0  0  0  0  0  0  0
   -2.4026   -8.4864    6.2488 H   0  0  0  0  0  0  0  0  0  0  0  0
   -2.3618   -6.7681    6.6553 H   0  0  0  0  0  0  0  0  0  0  0  0
    0.0309   -7.8495    0.0199 H   0  0  0  0  0  0  0  0  0  0  0  0
    3.4320   -6.3188   -2.9114 H   0  0  0  0  0  0  0  0  0  0  0  0
    8.1700   -5.0469   -5.8495 H   0  0  0  0  0  0  0  0  0  0  0  0
    6.9768   -5.9205   -6.8275 H   0  0  0  0  0  0  0  0  0  0  0  0
    6.5971   -7.5140   -4.9454 H   0  0  0  0  0  0  0  0  0  0  0  0
    8.2907   -7.5073   -5.4492 H   0  0  0  0  0  0  0  0  0  0  0  0
    7.8033   -6.6596   -3.9783 H   0  0  0  0  0  0  0  0  0  0  0  0
   -5.0423   -4.7292   -0.7327 H   0  0  0  0  0  0  0  0  0  0  0  0
   -6.0260   -3.6590   -1.7475 H   0  0  0  0  0  0  0  0  0  0  0  0
   -5.8335   -2.8159    0.6036 H   0  0  0  0  0  0  0  0  0  0  0  0
   -4.0770   -2.7307    0.4230 H   0  0  0  0  0  0  0  0  0  0  0  0
   -5.1144   -1.6797   -0.5449 H   0  0  0  0  0  0  0  0  0  0  0  0
   -0.9864   -0.8580   -4.1847 H   0  0  0  0  0  0  0  0  0  0  0  0
    2.8849    1.5696   -5.5022 H   0  0  0  0  0  0  0  0  0  0  0  0
    8.2135    4.1452   -5.6994 H   0  0  0  0  0  0  0  0  0  0  0  0
    7.6454    4.8485   -4.1724 H   0  0  0  0  0  0  0  0  0  0  0  0
    7.7633    6.3089   -6.8559 H   0  0  0  0  0  0  0  0  0  0  0  0
    8.8787    6.5398   -5.5061 H   0  0  0  0  0  0  0  0  0  0  0  0
    7.1807    7.0038   -5.3399 H   0  0  0  0  0  0  0  0  0  0  0  0
   -5.7588    6.7964   -5.6649 H   0  0  0  0  0  0  0  0  0  0  0  0
   -6.5153    5.6772   -4.5164 H   0  0  0  0  0  0  0  0  0  0  0  0
   -7.4004    5.3316   -6.8169 H   0  0  0  0  0  0  0  0  0  0  0  0
   -5.7656    5.0108   -7.4077 H   0  0  0  0  0  0  0  0  0  0  0  0
   -6.5272    3.8981   -6.2664 H   0  0  0  0  0  0  0  0  0  0  0  0
   -1.2562    7.1210   -4.2498 H   0  0  0  0  0  0  0  0  0  0  0  0
   -1.3741    9.0502   -2.9627 H   0  0  0  0  0  0  0  0  0  0  0  0
   -6.4075   11.3554   -0.8686 H   0  0  0  0  0  0  0  0  0  0  0  0
   -7.0138    9.9087   -1.6988 H   0  0  0  0  0  0  0  0  0  0  0  0
   -6.6594   10.1926    1.3278 H   0  0  0  0  0  0  0  0  0  0  0  0
   -8.1986   10.2653    0.4620 H   0  0  0  0  0  0  0  0  0  0  0  0
   -7.2742    8.7603    0.4984 H   0  0  0  0  0  0  0  0  0  0  0  0
    7.3139    8.2880    2.0332 H   0  0  0  0  0  0  0  0  0  0  0  0
    6.7597    7.0716    0.8676 H   0  0  0  0  0  0  0  0  0  0  0  0
    6.9178    8.7528   -0.9665 H   0  0  0  0  0  0  0  0  0  0  0  0
    8.4760    8.5414   -0.1574 H   0  0  0  0  0  0  0  0  0  0  0  0
    7.4864    9.9626    0.1888 H   0  0  0  0  0  0  0  0  0  0  0  0
    1.6088    8.0351    3.2218 H   0  0  0  0  0  0  0  0  0  0  0  0
    1.1844    5.7513    3.7228 H   0  0  0  0  0  0  0  0  0  0  0  0
    4.7640    2.3458    0.9690 H   0  0  0  0  0  0  0  0  0  0  0  0
    5.7078    1.8224    2.3656 H   0  0  0  0  0  0  0  0  0  0  0  0
    4.3612   -0.3002    2.4460 H   0  0  0  0  0  0  0  0  0  0  0  0
    3.4392    0.2421    1.0419 H   0  0  0  0  0  0  0  0  0  0  0  0
    5.1640   -0.1005    0.8840 H   0  0  0  0  0  0  0  0  0  0  0  0
   -8.1119    3.3933    4.5882 H   0  0  0  0  0  0  0  0  0  0  0  0
   -8.4234    4.2213    6.1262 H   0  0  0  0  0  0  0  0  0  0  0  0
   -9.3048    1.8923    6.1657 H   0  0  0  0  0  0  0  0  0  0  0  0
   -7.6890    1.2654    5.8195 H   0  0  0  0  0  0  0  0  0  0  0  0
   -8.0096    2.0865    7.3508 H   0  0  0  0  0  0  0  0  0  0  0  0
   -3.7041    0.8184    5.1013 H   0  0  0  0  0  0  0  0  0  0  0  0
   -0.4814   -1.9227    2.9004 H   0  0  0  0  0  0  0  0  0  0  0  0
    3.4169   -5.8163    0.0764 H   0  0  0  0  0  0  0  0  0  0  0  0
    3.6612   -4.3589   -0.9080 H   0  0  0  0  0  0  0  0  0  0  0  0
    5.2920   -4.4457    0.9633 H   0  0  0  0  0  0  0  0  0  0  0  0
    4.2101   -3.0603    1.1412 H   0  0  0  0  0  0  0  0  0  0  0  0
    3.9670   -4.5043    2.1314 H   0  0  0  0  0  0  0  0  0  0  0  0
  -10.0778   -4.3245    4.6953 H   0  0  0  0  0  0  0  0  0  0  0  0
   -9.9219   -4.1848    2.9334 H   0  0  0  0  0  0  0  0  0  0  0  0
   -9.5756   -6.6502    2.7704 H   0  0  0  0  0  0  0  0  0  0  0  0
   -9.7344   -6.7899    4.5246 H   0  0  0  0  0  0  0  0  0  0  0  0
  -11.1152   -6.2743    3.5515 H   0  0  0  0  0  0  0  0  0  0  0  0
   -5.5052   -6.9156    1.9840 H   0  0  0  0  0  0  0  0  0  0  0  0
   -4.0363   -8.3040    0.3395 H   0  0  0  0  0  0  0  0  0  0  0  0
  1  2  2  0  0  0  0
  2  3  1  0  0  0  0
  3  4  2  0  0  0  0
  4  5  1  0  0  0  0
  5  6  1  0  0  0  0
  6  7  1  0  0  0  0
  7  8  1  0  0  0  0
  8  9  1  0  0  0  0
  7 10  2  0  0  0  0
 10 11  1  0  0  0  0
 10 12  1  0  0  0  0
 12 13  1  0  0  0  0
  4 14  1  0  0  0  0
 14 15  2  0  0  0  0
 15 16  1  0  0  0  0
 16 17  1  0  0  0  0
 17 18  1  0  0  0  0
 18 19  1  0  0  0  0
 19 20  1  0  0  0  0
 20 21  1  0  0  0  0
 19 22  2  0  0  0  0
 22 23  1  0  0  0  0
 23 24  1  0  0  0  0
 22 25  1  0  0  0  0
 16 26  2  0  0  0  0
 26 27  1  0  0  0  0
 15 28  1  0  0  0  0
 28 29  2  0  0  0  0
 29 30  1  0  0  0  0
 29 31  1  0  0  0  0
 31 32  2  0  0  0  0
 32 33  1  0  0  0  0
 33 34  2  0  0  0  0
 34 35  1  0  0  0  0
 35 36  1  0  0  0  0
 36 37  1  0  0  0  0
 37 38  1  0  0  0  0
 38 39  1  0  0  0  0
 37 40  2  0  0  0  0
 40 41  1  0  0  0  0
 40 42  1  0  0  0  0
 42 43  1  0  0  0  0
 34 44  1  0  0  0  0
 44 45  2  0  0  0  0
 45 46  1  0  0  0  0
 46 47  1  0  0  0  0
 47 48  1  0  0  0  0
 48 49  1  0  0  0  0
 49 50  1  0  0  0  0
 50 51  1  0  0  0  0
 49 52  2  0  0  0  0
 52 53  1  0  0  0  0
 53 54  1  0  0  0  0
 52 55  1  0  0  0  0
 46 56  2  0  0  0  0
 56 57  1  0  0  0  0
 45 58  1  0  0  0  0
 58 59  2  0  0  0  0
 59 60  1  0  0  0  0
 59 61  1  0  0  0  0
 61 62  2  0  0  0  0
 62 63  1  0  0  0  0
 63 64  2  0  0  0  0
 64 65  1  0  0  0  0
 65 66  1  0  0  0  0
 66 67  1  0  0  0  0
 67 68  1  0  0  0  0
 68 69  1  0  0  0  0
 67 70  2  0  0  0  0
 70 71  1  0  0  0  0
 70 72  1  0  0  0  0
 72 73  1  0  0  0  0
 64 74  1  0  0  0  0
 74 75  2  0  0  0  0
 75 76  1  0  0  0  0
 76 77  1  0  0  0  0
 77 78  1  0  0  0  0
 78 79  1  0  0  0  0
 79 80  1  0  0  0  0
 80 81  1  0  0  0  0
 79 82  2  0  0  0  0
 82 83  1  0  0  0  0
 83 84  1  0  0  0  0
 82 85  1  0  0  0  0
 76 86  2  0  0  0  0
 86 87  1  0  0  0  0
 75 88  1  0  0  0  0
 88 89  2  0  0  0  0
 89 90  1  0  0  0  0
 89 91  1  0  0  0  0
 91 92  2  0  0  0  0
 92 93  1  0  0  0  0
 93 94  2  0  0  0  0
 94 95  1  0  0  0  0
 95 96  1  0  0  0  0
 96 97  1  0  0  0  0
 97 98  1  0  0  0  0
 98 99  1  0  0  0  0
 97100  2  0  0  0  0
100101  1  0  0  0  0
100102  1  0  0  0  0
102103  1  0  0  0  0
 94104  1  0  0  0  0
104105  2  0  0  0  0
105106  1  0  0  0  0
106107  1  0  0  0  0
107108  1  0  0  0  0
108109  1  0  0  0  0
109110  1  0  0  0  0
110111  1  0  0  0  0
109112  2  0  0  0  0
112113  1  0  0  0  0
113114  1  0  0  0  0
112115  1  0  0  0  0
106116  2  0  0  0  0
116117  1  0  0  0  0
105118  1  0  0  0  0
118119  2  0  0  0  0
119120  1  0  0  0  0
119121  1  0  0  0  0
121122  2  0  0  0  0
122123  1  0  0  0  0
123124  2  0  0  0  0
124125  1  0  0  0  0
125126  1  0  0  0  0
126127  1  0  0  0  0
127128  1  0  0  0  0
128129  1  0  0  0  0
127130  2  0  0  0  0
130131  1  0  0  0  0
130132  1  0  0  0  0
132133  1  0  0  0  0
124134  1  0  0  0  0
134135  2  0  0  0  0
135136  1  0  0  0  0
136137  1  0  0  0  0
137138  1  0  0  0  0
138139  1  0  0  0  0
139140  1  0  0  0  0
140141  1  0  0  0  0
139142  2  0  0  0  0
142143  1  0  0  0  0
143144  1  0  0  0  0
142145  1  0  0  0  0
136146  2  0  0  0  0
146147  1  0  0  0  0
135148  1  0  0  0  0
148149  2  0  0  0  0
149150  1  0  0  0  0
149151  1  0  0  0  0
151152  2  0  0  0  0
152153  1  0  0  0  0
153154  2  0  0  0  0
154155  1  0  0  0  0
155156  1  0  0  0  0
156157  1  0  0  0  0
157158  1  0  0  0  0
158159  1  0  0  0  0
157160  2  0  0  0  0
160161  1  0  0  0  0
160162  1  0  0  0  0
162163  1  0  0  0  0
154164  1  0  0  0  0
164165  2  0  0  0  0
165166  1  0  0  0  0
166167  1  0  0  0  0
167168  1  0  0  0  0
168169  1  0  0  0  0
169170  1  0  0  0  0
170171  1  0  0  0  0
169172  2  0  0  0  0
172173  1  0  0  0  0
173174  1  0  0  0  0
172175  1  0  0  0  0
166176  2  0  0  0  0
176177  1  0  0  0  0
165178  1  0  0  0  0
178179  2  0  0  0  0
179180  1  0  0  0  0
 27  1  1  0  0  0  0
 57 31  1  0  0  0  0
 87 61  1  0  0  0  0
117 91  1  0  0  0  0
147121  1  0  0  0  0
177151  1  0  0  0  0
 26  3  1  0  0  0  0
 56 33  1  0  0  0  0
 86 63  1  0  0  0  0
116 93  1  0  0  0  0
146123  1  0  0  0  0
176153  1  0  0  0  0
 12  5  2  0  0  0  0
 30 14  1  0  0  0  0
 42 35  2  0  0  0  0
 60 44  1  0  0  0  0
 72 65  2  0  0  0  0
 90 74  1  0  0  0  0
102 95  2  0  0  0  0
120104  1  0  0  0  0
132125  2  0  0  0  0
150134  1  0  0  0  0
162155  2  0  0  0  0
180164  1  0  0  0  0
 23 17  2  0  0  0  0
 53 47  2  0  0  0  0
 83 77  2  0  0  0  0
113107  2  0  0  0  0
143137  2  0  0  0  0
173167  2  0  0  0  0
  1181  1  0  0  0  0
  2182  1  0  0  0  0
  8183  1  0  0  0  0
  8184  1  0  0  0  0
  9185  1  0  0  0  0
  9186  1  0  0  0  0
  9187  1  0  0  0  0
 20188  1  0  0  0  0
 20189  1  0  0  0  0
 21190  1  0  0  0  0
 21191  1  0  0  0  0
 21192  1  0  0  0  0
 28193  1  0  0  0  0
 32194  1  0  0  0  0
 38195  1  0  0  0  0
 38196  1  0  0  0  0
 39197  1  0  0  0  0
 39198  1  0  0  0  0
 39199  1  0  0  0  0
 50200  1  0  0  0  0
 50201  1  0  0  0  0
 51202  1  0  0  0  0
 51203  1  0  0  0  0
 51204  1  0  0  0  0
 58205  1  0  0  0  0
 62206  1  0  0  0  0
 68207  1  0  0  0  0
 68208  1  0  0  0  0
 69209  1  0  0  0  0
 69210  1  0  0  0  0
 69211  1  0  0  0  0
 80212  1  0  0  0  0
 80213  1  0  0  0  0
 81214  1  0  0  0  0
 81215  1  0  0  0  0
 81216  1  0  0  0  0
 88217  1  0  0  0  0
 92218  1  0  0  0  0
 98219  1  0  0  0  0
 98220  1  0  0  0  0
 99221  1  0  0  0  0
 99222  1  0  0  0  0
 99223  1  0  0  0  0
110224  1  0  0  0  0
110225  1  0  0  0  0
111226  1  0  0  0  0
111227  1  0  0  0  0
111228  1  0  0  0  0
118229  1  0  0  0  0
122230  1  0  0  0  0
128231  1  0  0  0  0
128232  1  0  0  0  0
129233  1  0  0  0  0
129234  1  0  0  0  0
129235  1  0  0  0  0
140236  1  0  0  0  0
140237  1  0  0  0  0
141238  1  0  0  0  0
141239  1  0  0  0  0
141240  1  0  0  0  0
148241  1  0  0  0  0
152242  1  0  0  0  0
158243  1  0  0  0  0
158244  1  0  0  0  0
159245  1  0  0  0  0
159246  1  0  0  0  0
159247  1  0  0  0  0
170248  1  0  0  0  0
170249  1  0  0  0  0
171250  1  0  0  0  0
171251  1  0  0  0  0
171252  1  0  0  0  0
178253  1  0  0  0  0
179254  1  0  0  0  0
M  END
