
  xtb     03082207433D
 energy: -469.191575866258 gnorm: 0.000719892615 xtb: 6.4.1 (unknown)
267293  0     0  0            999 V2000
    8.6991   12.6166   11.9175 C   0  0  0  0  0  0  0  0  0  0  0  0
    7.5129   12.8064   12.5290 C   0  0  0  0  0  0  0  0  0  0  0  0
    6.5010   11.9104   12.0705 C   0  0  0  0  0  0  0  0  0  0  0  0
    5.1618   11.8299   12.4783 C   0  0  0  0  0  0  0  0  0  0  0  0
    4.6001   12.7439   13.4813 C   0  0  0  0  0  0  0  0  0  0  0  0
    4.7265   14.1251   13.3435 C   0  0  0  0  0  0  0  0  0  0  0  0
    4.2071   14.9746   14.2965 C   0  0  0  0  0  0  0  0  0  0  0  0
    3.5370   14.4842   15.4157 C   0  0  0  0  0  0  0  0  0  0  0  0
    2.8838   15.6748   16.5500 S   0  0  0  0  0  0  0  0  0  0  0  0
    3.1872   14.9366   18.1983 C   0  0  0  0  0  0  0  0  0  0  0  0
    4.6557   14.6414   18.4273 C   0  0  0  0  0  0  0  0  0  0  0  0
    3.3879   13.1043   15.5207 C   0  0  0  0  0  0  0  0  0  0  0  0
    2.7138   12.5614   16.5566 F   0  0  0  0  0  0  0  0  0  0  0  0
    3.9173   12.2396   14.5838 C   0  0  0  0  0  0  0  0  0  0  0  0
    4.3932   10.8346   11.8934 C   0  0  0  0  0  0  0  0  0  0  0  0
    4.8984    9.9324   10.9268 C   0  0  0  0  0  0  0  0  0  0  0  0
    6.2336   10.0233   10.5053 C   0  0  0  0  0  0  0  0  0  0  0  0
    6.7707    9.1159    9.4844 C   0  0  0  0  0  0  0  0  0  0  0  0
    6.1154    8.9416    8.2658 C   0  0  0  0  0  0  0  0  0  0  0  0
    6.6285    8.0938    7.3090 C   0  0  0  0  0  0  0  0  0  0  0  0
    7.8003    7.3695    7.5297 C   0  0  0  0  0  0  0  0  0  0  0  0
    8.3013    6.2673    6.2433 S   0  0  0  0  0  0  0  0  0  0  0  0
   10.1313    6.2658    6.2946 C   0  0  0  0  0  0  0  0  0  0  0  0
   10.7104    7.6536    6.1097 C   0  0  0  0  0  0  0  0  0  0  0  0
    8.4294    7.5367    8.7598 C   0  0  0  0  0  0  0  0  0  0  0  0
    7.9431    8.4055    9.7158 C   0  0  0  0  0  0  0  0  0  0  0  0
    9.5446    6.8396    9.0717 F   0  0  0  0  0  0  0  0  0  0  0  0
    7.0053   11.0109   11.0998 C   0  0  0  0  0  0  0  0  0  0  0  0
    8.6843   11.3362   10.7537 S   0  0  0  0  0  0  0  0  0  0  0  0
    3.9227    8.9791   10.5373 C   0  0  0  0  0  0  0  0  0  0  0  0
    2.7258    9.1386   11.1660 C   0  0  0  0  0  0  0  0  0  0  0  0
    2.7081   10.5377   12.2224 S   0  0  0  0  0  0  0  0  0  0  0  0
    1.5571    8.3331   10.9562 C   0  0  0  0  0  0  0  0  0  0  0  0
    1.1215    7.9408    9.3301 S   0  0  0  0  0  0  0  0  0  0  0  0
   -0.2690    7.0361    9.8221 C   0  0  0  0  0  0  0  0  0  0  0  0
   -0.4090    7.0642   11.2036 C   0  0  0  0  0  0  0  0  0  0  0  0
    0.6579    7.7761   11.8570 C   0  0  0  0  0  0  0  0  0  0  0  0
    0.7235    7.7560   13.2809 C   0  0  0  0  0  0  0  0  0  0  0  0
    1.8456    8.2228   13.9990 C   0  0  0  0  0  0  0  0  0  0  0  0
    2.7465    8.5221   14.6431 N   0  0  0  0  0  0  0  0  0  0  0  0
   -0.2981    7.1753   14.0024 C   0  0  0  0  0  0  0  0  0  0  0  0
   -1.4111    6.6170   13.3634 C   0  0  0  0  0  0  0  0  0  0  0  0
   -1.4777    6.5437   11.9885 C   0  0  0  0  0  0  0  0  0  0  0  0
   -2.6565    6.0311   11.4050 C   0  0  0  0  0  0  0  0  0  0  0  0
   -3.6618    5.6617   10.9943 N   0  0  0  0  0  0  0  0  0  0  0  0
   -0.9772    6.3052    8.8122 C   0  0  0  0  0  0  0  0  0  0  0  0
   -1.2635    6.7440    7.5551 C   0  0  0  0  0  0  0  0  0  0  0  0
   -1.7923    5.7383    6.7074 C   0  0  0  0  0  0  0  0  0  0  0  0
   -2.1423    5.8416    5.3509 C   0  0  0  0  0  0  0  0  0  0  0  0
   -1.9765    7.0932    4.6024 C   0  0  0  0  0  0  0  0  0  0  0  0
   -3.0134    7.6083    3.8265 C   0  0  0  0  0  0  0  0  0  0  0  0
   -2.8499    8.7861    3.1303 C   0  0  0  0  0  0  0  0  0  0  0  0
   -1.6466    9.4895    3.1620 C   0  0  0  0  0  0  0  0  0  0  0  0
   -1.5498   10.9609    2.1872 S   0  0  0  0  0  0  0  0  0  0  0  0
   -0.5419   12.1104    3.1954 C   0  0  0  0  0  0  0  0  0  0  0  0
   -1.1515   12.3522    4.5616 C   0  0  0  0  0  0  0  0  0  0  0  0
   -0.6085    8.9428    3.9104 C   0  0  0  0  0  0  0  0  0  0  0  0
    0.6058    9.5365    3.9559 F   0  0  0  0  0  0  0  0  0  0  0  0
   -0.7654    7.7773    4.6325 C   0  0  0  0  0  0  0  0  0  0  0  0
   -2.6021    4.6862    4.7377 C   0  0  0  0  0  0  0  0  0  0  0  0
   -2.7074    3.4435    5.4110 C   0  0  0  0  0  0  0  0  0  0  0  0
   -2.3513    3.3387    6.7651 C   0  0  0  0  0  0  0  0  0  0  0  0
   -2.3835    2.0471    7.4624 C   0  0  0  0  0  0  0  0  0  0  0  0
   -3.0521    1.8897    8.6743 C   0  0  0  0  0  0  0  0  0  0  0  0
   -3.1070    0.6530    9.2837 C   0  0  0  0  0  0  0  0  0  0  0  0
   -2.4807   -0.4599    8.7271 C   0  0  0  0  0  0  0  0  0  0  0  0
   -2.6085   -2.0066    9.5759 S   0  0  0  0  0  0  0  0  0  0  0  0
   -2.9550   -3.1900    8.2207 C   0  0  0  0  0  0  0  0  0  0  0  0
   -4.2231   -2.8342    7.4726 C   0  0  0  0  0  0  0  0  0  0  0  0
   -1.7582   -0.2701    7.5521 C   0  0  0  0  0  0  0  0  0  0  0  0
   -1.7239    0.9517    6.9129 C   0  0  0  0  0  0  0  0  0  0  0  0
   -1.0554   -1.2788    6.9993 F   0  0  0  0  0  0  0  0  0  0  0  0
   -1.9124    4.4981    7.3824 C   0  0  0  0  0  0  0  0  0  0  0  0
   -1.3407    4.6010    9.0235 S   0  0  0  0  0  0  0  0  0  0  0  0
   -3.1369    2.4082    4.5456 C   0  0  0  0  0  0  0  0  0  0  0  0
   -3.3043    2.8109    3.2523 C   0  0  0  0  0  0  0  0  0  0  0  0
   -3.0041    4.5245    3.0485 S   0  0  0  0  0  0  0  0  0  0  0  0
   -3.5595    1.9719    2.1249 C   0  0  0  0  0  0  0  0  0  0  0  0
   -3.7511    0.6201    2.1368 C   0  0  0  0  0  0  0  0  0  0  0  0
   -3.7710    0.0368    0.8464 C   0  0  0  0  0  0  0  0  0  0  0  0
   -3.8449   -1.3277    0.5141 C   0  0  0  0  0  0  0  0  0  0  0  0
   -3.9619   -2.3732    1.5381 C   0  0  0  0  0  0  0  0  0  0  0  0
   -4.9318   -3.3648    1.4254 C   0  0  0  0  0  0  0  0  0  0  0  0
   -5.0569   -4.3593    2.3763 C   0  0  0  0  0  0  0  0  0  0  0  0
   -4.2080   -4.3996    3.4763 C   0  0  0  0  0  0  0  0  0  0  0  0
   -4.2641   -5.6013    4.7600 S   0  0  0  0  0  0  0  0  0  0  0  0
   -5.4046   -6.8735    4.1024 C   0  0  0  0  0  0  0  0  0  0  0  0
   -5.3792   -8.0726    5.0313 C   0  0  0  0  0  0  0  0  0  0  0  0
   -3.2376   -3.3999    3.5771 C   0  0  0  0  0  0  0  0  0  0  0  0
   -2.4010   -3.4100    4.6332 F   0  0  0  0  0  0  0  0  0  0  0  0
   -3.1022   -2.4055    2.6357 C   0  0  0  0  0  0  0  0  0  0  0  0
   -3.7624   -1.6416   -0.8338 C   0  0  0  0  0  0  0  0  0  0  0  0
   -3.6176   -0.6629   -1.8482 C   0  0  0  0  0  0  0  0  0  0  0  0
   -3.5710    0.7016   -1.5195 C   0  0  0  0  0  0  0  0  0  0  0  0
   -3.4294    1.7246   -2.5633 C   0  0  0  0  0  0  0  0  0  0  0  0
   -4.3115    2.8015   -2.6299 C   0  0  0  0  0  0  0  0  0  0  0  0
   -4.2312    3.7119   -3.6620 C   0  0  0  0  0  0  0  0  0  0  0  0
   -3.2634    3.5954   -4.6574 C   0  0  0  0  0  0  0  0  0  0  0  0
   -3.2612    4.8116   -5.9420 S   0  0  0  0  0  0  0  0  0  0  0  0
   -2.8887    3.8495   -7.4566 C   0  0  0  0  0  0  0  0  0  0  0  0
   -3.8625    2.7060   -7.6620 C   0  0  0  0  0  0  0  0  0  0  0  0
   -2.3485    2.5534   -4.5415 C   0  0  0  0  0  0  0  0  0  0  0  0
   -2.4291    1.6233   -3.5256 C   0  0  0  0  0  0  0  0  0  0  0  0
   -1.3468    2.4098   -5.4381 F   0  0  0  0  0  0  0  0  0  0  0  0
   -3.6457    1.0159   -0.1724 C   0  0  0  0  0  0  0  0  0  0  0  0
   -3.4809    2.6159    0.4986 S   0  0  0  0  0  0  0  0  0  0  0  0
   -3.4800   -1.2504   -3.1283 C   0  0  0  0  0  0  0  0  0  0  0  0
   -3.4615   -2.6127   -3.1095 C   0  0  0  0  0  0  0  0  0  0  0  0
   -3.7016   -3.2572   -1.4978 S   0  0  0  0  0  0  0  0  0  0  0  0
   -3.1539   -3.4565   -4.2167 C   0  0  0  0  0  0  0  0  0  0  0  0
   -3.1434   -4.8160   -4.2944 C   0  0  0  0  0  0  0  0  0  0  0  0
   -2.6305   -5.3093   -5.5233 C   0  0  0  0  0  0  0  0  0  0  0  0
   -2.4247   -6.6439   -5.9106 C   0  0  0  0  0  0  0  0  0  0  0  0
   -2.7453   -7.7636   -5.0175 C   0  0  0  0  0  0  0  0  0  0  0  0
   -3.4981   -8.8438   -5.4667 C   0  0  0  0  0  0  0  0  0  0  0  0
   -3.8025   -9.9029   -4.6330 C   0  0  0  0  0  0  0  0  0  0  0  0
   -3.3650   -9.9185   -3.3141 C   0  0  0  0  0  0  0  0  0  0  0  0
   -3.6605  -11.1970   -2.1394 S   0  0  0  0  0  0  0  0  0  0  0  0
   -4.8131  -12.3349   -2.9812 C   0  0  0  0  0  0  0  0  0  0  0  0
   -6.2276  -11.7886   -3.0394 C   0  0  0  0  0  0  0  0  0  0  0  0
   -2.6006   -8.8330   -2.8800 C   0  0  0  0  0  0  0  0  0  0  0  0
   -2.1491   -8.8206   -1.6091 F   0  0  0  0  0  0  0  0  0  0  0  0
   -2.2879   -7.7739   -3.7003 C   0  0  0  0  0  0  0  0  0  0  0  0
   -1.8715   -6.8487   -7.1667 C   0  0  0  0  0  0  0  0  0  0  0  0
   -1.4825   -5.7942   -8.0313 C   0  0  0  0  0  0  0  0  0  0  0  0
   -1.6841   -4.4596   -7.6439 C   0  0  0  0  0  0  0  0  0  0  0  0
   -1.2310   -3.3168   -8.4453 C   0  0  0  0  0  0  0  0  0  0  0  0
   -2.0656   -2.2251   -8.6680 C   0  0  0  0  0  0  0  0  0  0  0  0
   -1.6146   -1.1004   -9.3310 C   0  0  0  0  0  0  0  0  0  0  0  0
   -0.3070   -1.0243   -9.7956 C   0  0  0  0  0  0  0  0  0  0  0  0
    0.4101    0.3625  -10.6090 S   0  0  0  0  0  0  0  0  0  0  0  0
   -0.7196    1.7427  -10.2041 C   0  0  0  0  0  0  0  0  0  0  0  0
   -1.8170    1.9288  -11.2363 C   0  0  0  0  0  0  0  0  0  0  0  0
    0.5094   -2.1407   -9.5982 C   0  0  0  0  0  0  0  0  0  0  0  0
    0.0733   -3.2658   -8.9357 C   0  0  0  0  0  0  0  0  0  0  0  0
    1.7776   -2.1101  -10.0473 F   0  0  0  0  0  0  0  0  0  0  0  0
   -2.2745   -4.2591   -6.4053 C   0  0  0  0  0  0  0  0  0  0  0  0
   -2.5704   -2.7002   -5.6881 S   0  0  0  0  0  0  0  0  0  0  0  0
   -0.9002   -6.2779   -9.2292 C   0  0  0  0  0  0  0  0  0  0  0  0
   -0.8091   -7.6382   -9.2815 C   0  0  0  0  0  0  0  0  0  0  0  0
   -1.4746   -8.4015   -7.8527 S   0  0  0  0  0  0  0  0  0  0  0  0
   -0.2328   -8.4328  -10.3199 C   0  0  0  0  0  0  0  0  0  0  0  0
    0.4527   -7.9965  -11.4153 C   0  0  0  0  0  0  0  0  0  0  0  0
    0.9299   -9.0460  -12.2415 C   0  0  0  0  0  0  0  0  0  0  0  0
    1.6454   -8.9404  -13.4446 C   0  0  0  0  0  0  0  0  0  0  0  0
    2.0916   -7.6430  -13.9650 C   0  0  0  0  0  0  0  0  0  0  0  0
    1.8385   -7.2688  -15.2807 C   0  0  0  0  0  0  0  0  0  0  0  0
    2.2799   -6.0573  -15.7767 C   0  0  0  0  0  0  0  0  0  0  0  0
    3.0090   -5.1830  -14.9786 C   0  0  0  0  0  0  0  0  0  0  0  0
    3.6255   -3.6117  -15.4795 S   0  0  0  0  0  0  0  0  0  0  0  0
    3.5674   -3.6748  -17.3038 C   0  0  0  0  0  0  0  0  0  0  0  0
    4.5783   -4.6491  -17.8780 C   0  0  0  0  0  0  0  0  0  0  0  0
    3.2521   -5.5699  -13.6585 C   0  0  0  0  0  0  0  0  0  0  0  0
    3.9575   -4.7515  -12.8556 F   0  0  0  0  0  0  0  0  0  0  0  0
    2.8054   -6.7675  -13.1481 C   0  0  0  0  0  0  0  0  0  0  0  0
    1.9375  -10.1282  -14.0998 C   0  0  0  0  0  0  0  0  0  0  0  0
    1.5732  -11.4012  -13.5995 C   0  0  0  0  0  0  0  0  0  0  0  0
    0.8658  -11.5069  -12.3931 C   0  0  0  0  0  0  0  0  0  0  0  0
    0.4568  -12.8083  -11.8493 C   0  0  0  0  0  0  0  0  0  0  0  0
    0.7544  -13.1628  -10.5350 C   0  0  0  0  0  0  0  0  0  0  0  0
    0.3538  -14.3810  -10.0295 C   0  0  0  0  0  0  0  0  0  0  0  0
   -0.3542  -15.2929  -10.8094 C   0  0  0  0  0  0  0  0  0  0  0  0
   -0.7712  -16.8457  -10.0692 S   0  0  0  0  0  0  0  0  0  0  0  0
   -2.4779  -17.1644  -10.6512 C   0  0  0  0  0  0  0  0  0  0  0  0
   -3.4250  -16.0464  -10.2647 C   0  0  0  0  0  0  0  0  0  0  0  0
   -0.6279  -14.9331  -12.1252 C   0  0  0  0  0  0  0  0  0  0  0  0
   -0.2449  -13.7115  -12.6408 C   0  0  0  0  0  0  0  0  0  0  0  0
   -1.2850  -15.7763  -12.9533 F   0  0  0  0  0  0  0  0  0  0  0  0
    0.5665  -10.3203  -11.7402 C   0  0  0  0  0  0  0  0  0  0  0  0
   -0.3327  -10.1808  -10.2532 S   0  0  0  0  0  0  0  0  0  0  0  0
    2.0641  -12.4517  -14.4316 C   0  0  0  0  0  0  0  0  0  0  0  0
    2.7465  -11.9985  -15.5020 C   0  0  0  0  0  0  0  0  0  0  0  0
    2.8472  -10.2726  -15.5823 S   0  0  0  0  0  0  0  0  0  0  0  0
    9.6152   13.1513   12.0759 H   0  0  0  0  0  0  0  0  0  0  0  0
    7.3455   13.5454   13.2912 H   0  0  0  0  0  0  0  0  0  0  0  0
    5.2247   14.5318   12.4765 H   0  0  0  0  0  0  0  0  0  0  0  0
    4.3100   16.0435   14.1914 H   0  0  0  0  0  0  0  0  0  0  0  0
    2.5701   14.0477   18.3085 H   0  0  0  0  0  0  0  0  0  0  0  0
    2.8290   15.7055   18.8832 H   0  0  0  0  0  0  0  0  0  0  0  0
    5.2528   15.5402   18.2875 H   0  0  0  0  0  0  0  0  0  0  0  0
    4.8017   14.2782   19.4426 H   0  0  0  0  0  0  0  0  0  0  0  0
    5.0106   13.8787   17.7366 H   0  0  0  0  0  0  0  0  0  0  0  0
    3.7915   11.1775   14.7312 H   0  0  0  0  0  0  0  0  0  0  0  0
    5.2150    9.5000    8.0592 H   0  0  0  0  0  0  0  0  0  0  0  0
    6.1266    7.9723    6.3616 H   0  0  0  0  0  0  0  0  0  0  0  0
   10.4610    5.8042    7.2226 H   0  0  0  0  0  0  0  0  0  0  0  0
   10.3968    5.6154    5.4607 H   0  0  0  0  0  0  0  0  0  0  0  0
   10.3303    8.1079    5.1969 H   0  0  0  0  0  0  0  0  0  0  0  0
   11.7946    7.5897    6.0440 H   0  0  0  0  0  0  0  0  0  0  0  0
   10.4558    8.2975    6.9491 H   0  0  0  0  0  0  0  0  0  0  0  0
    8.4702    8.4890   10.6533 H   0  0  0  0  0  0  0  0  0  0  0  0
    4.1200    8.1693    9.8575 H   0  0  0  0  0  0  0  0  0  0  0  0
   -0.2411    7.1591   15.0804 H   0  0  0  0  0  0  0  0  0  0  0  0
   -2.2244    6.2266   13.9560 H   0  0  0  0  0  0  0  0  0  0  0  0
   -1.1203    7.7660    7.2530 H   0  0  0  0  0  0  0  0  0  0  0  0
   -3.9621    7.0956    3.7931 H   0  0  0  0  0  0  0  0  0  0  0  0
   -3.6597    9.1893    2.5427 H   0  0  0  0  0  0  0  0  0  0  0  0
    0.4742   11.7284    3.2627 H   0  0  0  0  0  0  0  0  0  0  0  0
   -0.5390   13.0233    2.5998 H   0  0  0  0  0  0  0  0  0  0  0  0
   -2.1759   12.7058    4.4655 H   0  0  0  0  0  0  0  0  0  0  0  0
   -0.5705   13.1022    5.0946 H   0  0  0  0  0  0  0  0  0  0  0  0
   -1.1558   11.4382    5.1526 H   0  0  0  0  0  0  0  0  0  0  0  0
    0.0796    7.3900    5.1809 H   0  0  0  0  0  0  0  0  0  0  0  0
   -3.5581    2.7314    9.1220 H   0  0  0  0  0  0  0  0  0  0  0  0
   -3.6480    0.5252   10.2082 H   0  0  0  0  0  0  0  0  0  0  0  0
   -2.0969   -3.2410    7.5551 H   0  0  0  0  0  0  0  0  0  0  0  0
   -3.0596   -4.1428    8.7386 H   0  0  0  0  0  0  0  0  0  0  0  0
   -4.4249   -3.6012    6.7283 H   0  0  0  0  0  0  0  0  0  0  0  0
   -5.0688   -2.7703    8.1544 H   0  0  0  0  0  0  0  0  0  0  0  0
   -4.1160   -1.8782    6.9625 H   0  0  0  0  0  0  0  0  0  0  0  0
   -1.1460    1.0482    6.0064 H   0  0  0  0  0  0  0  0  0  0  0  0
   -3.2956    1.3980    4.8735 H   0  0  0  0  0  0  0  0  0  0  0  0
   -3.8625    0.0520    3.0412 H   0  0  0  0  0  0  0  0  0  0  0  0
   -5.6157   -3.3487    0.5907 H   0  0  0  0  0  0  0  0  0  0  0  0
   -5.8282   -5.1019    2.2557 H   0  0  0  0  0  0  0  0  0  0  0  0
   -5.0579   -7.1440    3.1052 H   0  0  0  0  0  0  0  0  0  0  0  0
   -6.4047   -6.4416    4.0522 H   0  0  0  0  0  0  0  0  0  0  0  0
   -6.0518   -8.8421    4.6585 H   0  0  0  0  0  0  0  0  0  0  0  0
   -4.3750   -8.4854    5.0912 H   0  0  0  0  0  0  0  0  0  0  0  0
   -5.6950   -7.7870    6.0322 H   0  0  0  0  0  0  0  0  0  0  0  0
   -2.3081   -1.6840    2.7462 H   0  0  0  0  0  0  0  0  0  0  0  0
   -5.0873    2.9035   -1.8869 H   0  0  0  0  0  0  0  0  0  0  0  0
   -4.9311    4.5304   -3.7238 H   0  0  0  0  0  0  0  0  0  0  0  0
   -2.9836    4.5927   -8.2485 H   0  0  0  0  0  0  0  0  0  0  0  0
   -1.8568    3.5071   -7.4148 H   0  0  0  0  0  0  0  0  0  0  0  0
   -3.6872    2.2415   -8.6303 H   0  0  0  0  0  0  0  0  0  0  0  0
   -4.8878    3.0690   -7.6319 H   0  0  0  0  0  0  0  0  0  0  0  0
   -3.7421    1.9478   -6.8903 H   0  0  0  0  0  0  0  0  0  0  0  0
   -1.6864    0.8419   -3.4793 H   0  0  0  0  0  0  0  0  0  0  0  0
   -3.3798   -0.6885   -4.0390 H   0  0  0  0  0  0  0  0  0  0  0  0
   -3.4884   -5.4428   -3.4918 H   0  0  0  0  0  0  0  0  0  0  0  0
   -3.8692   -8.8517   -6.4801 H   0  0  0  0  0  0  0  0  0  0  0  0
   -4.3842  -10.7194   -5.0278 H   0  0  0  0  0  0  0  0  0  0  0  0
   -4.7734  -13.2365   -2.3698 H   0  0  0  0  0  0  0  0  0  0  0  0
   -4.4120  -12.5674   -3.9666 H   0  0  0  0  0  0  0  0  0  0  0  0
   -6.2657  -10.8539   -3.5947 H   0  0  0  0  0  0  0  0  0  0  0  0
   -6.8831  -12.5092   -3.5248 H   0  0  0  0  0  0  0  0  0  0  0  0
   -6.5984  -11.6034   -2.0341 H   0  0  0  0  0  0  0  0  0  0  0  0
   -1.6693   -6.9778   -3.3169 H   0  0  0  0  0  0  0  0  0  0  0  0
   -3.0907   -2.2585   -8.3320 H   0  0  0  0  0  0  0  0  0  0  0  0
   -2.2951   -0.2781   -9.4777 H   0  0  0  0  0  0  0  0  0  0  0  0
   -0.0694    2.6172  -10.1814 H   0  0  0  0  0  0  0  0  0  0  0  0
   -1.1086    1.5705   -9.2018 H   0  0  0  0  0  0  0  0  0  0  0  0
   -1.3808    2.1115  -12.2153 H   0  0  0  0  0  0  0  0  0  0  0  0
   -2.4365    2.7835  -10.9690 H   0  0  0  0  0  0  0  0  0  0  0  0
   -2.4498    1.0468  -11.3085 H   0  0  0  0  0  0  0  0  0  0  0  0
    0.7657   -4.0757   -8.7676 H   0  0  0  0  0  0  0  0  0  0  0  0
   -0.5743   -5.6350  -10.0256 H   0  0  0  0  0  0  0  0  0  0  0  0
    0.6093   -6.9573  -11.6380 H   0  0  0  0  0  0  0  0  0  0  0  0
    1.2693   -7.9243  -15.9218 H   0  0  0  0  0  0  0  0  0  0  0  0
    2.0441   -5.7972  -16.7956 H   0  0  0  0  0  0  0  0  0  0  0  0
    2.5481   -3.8981  -17.6164 H   0  0  0  0  0  0  0  0  0  0  0  0
    3.8032   -2.6524  -17.5989 H   0  0  0  0  0  0  0  0  0  0  0  0
    4.5392   -4.6256  -18.9654 H   0  0  0  0  0  0  0  0  0  0  0  0
    4.3763   -5.6648  -17.5444 H   0  0  0  0  0  0  0  0  0  0  0  0
    5.5819   -4.3773  -17.5598 H   0  0  0  0  0  0  0  0  0  0  0  0
    3.0445   -7.0266  -12.1285 H   0  0  0  0  0  0  0  0  0  0  0  0
    1.3119  -12.4827   -9.9100 H   0  0  0  0  0  0  0  0  0  0  0  0
    0.5860  -14.6525   -9.0116 H   0  0  0  0  0  0  0  0  0  0  0  0
   -2.4620  -17.3331  -11.7256 H   0  0  0  0  0  0  0  0  0  0  0  0
   -2.7422  -18.0954  -10.1498 H   0  0  0  0  0  0  0  0  0  0  0  0
   -3.1508  -15.1166  -10.7602 H   0  0  0  0  0  0  0  0  0  0  0  0
   -4.4394  -16.3069  -10.5599 H   0  0  0  0  0  0  0  0  0  0  0  0
   -3.4034  -15.8829   -9.1892 H   0  0  0  0  0  0  0  0  0  0  0  0
   -0.5063  -13.4718  -13.6602 H   0  0  0  0  0  0  0  0  0  0  0  0
    1.9218  -13.4945  -14.2135 H   0  0  0  0  0  0  0  0  0  0  0  0
    3.2149  -12.5737  -16.2766 H   0  0  0  0  0  0  0  0  0  0  0  0
  1  2  2  0  0  0  0
  2  3  1  0  0  0  0
  3  4  2  0  0  0  0
  4  5  1  0  0  0  0
  5  6  2  0  0  0  0
  6  7  1  0  0  0  0
  7  8  2  0  0  0  0
  8  9  1  0  0  0  0
  9 10  1  0  0  0  0
 10 11  1  0  0  0  0
  8 12  1  0  0  0  0
 12 13  1  0  0  0  0
 12 14  2  0  0  0  0
  4 15  1  0  0  0  0
 15 16  2  0  0  0  0
 16 17  1  0  0  0  0
 17 18  1  0  0  0  0
 18 19  2  0  0  0  0
 19 20  1  0  0  0  0
 20 21  2  0  0  0  0
 21 22  1  0  0  0  0
 22 23  1  0  0  0  0
 23 24  1  0  0  0  0
 21 25  1  0  0  0  0
 25 26  2  0  0  0  0
 25 27  1  0  0  0  0
 17 28  2  0  0  0  0
 28 29  1  0  0  0  0
 16 30  1  0  0  0  0
 30 31  2  0  0  0  0
 31 32  1  0  0  0  0
 31 33  1  0  0  0  0
 33 34  1  0  0  0  0
 34 35  1  0  0  0  0
 35 36  2  0  0  0  0
 36 37  1  0  0  0  0
 37 38  1  0  0  0  0
 38 39  1  0  0  0  0
 39 40  3  0  0  0  0
 38 41  2  0  0  0  0
 41 42  1  0  0  0  0
 42 43  2  0  0  0  0
 43 44  1  0  0  0  0
 44 45  3  0  0  0  0
 35 46  1  0  0  0  0
 46 47  2  0  0  0  0
 47 48  1  0  0  0  0
 48 49  2  0  0  0  0
 49 50  1  0  0  0  0
 50 51  2  0  0  0  0
 51 52  1  0  0  0  0
 52 53  2  0  0  0  0
 53 54  1  0  0  0  0
 54 55  1  0  0  0  0
 55 56  1  0  0  0  0
 53 57  1  0  0  0  0
 57 58  1  0  0  0  0
 57 59  2  0  0  0  0
 49 60  1  0  0  0  0
 60 61  2  0  0  0  0
 61 62  1  0  0  0  0
 62 63  1  0  0  0  0
 63 64  2  0  0  0  0
 64 65  1  0  0  0  0
 65 66  2  0  0  0  0
 66 67  1  0  0  0  0
 67 68  1  0  0  0  0
 68 69  1  0  0  0  0
 66 70  1  0  0  0  0
 70 71  2  0  0  0  0
 70 72  1  0  0  0  0
 62 73  2  0  0  0  0
 73 74  1  0  0  0  0
 61 75  1  0  0  0  0
 75 76  2  0  0  0  0
 76 77  1  0  0  0  0
 76 78  1  0  0  0  0
 78 79  2  0  0  0  0
 79 80  1  0  0  0  0
 80 81  2  0  0  0  0
 81 82  1  0  0  0  0
 82 83  2  0  0  0  0
 83 84  1  0  0  0  0
 84 85  2  0  0  0  0
 85 86  1  0  0  0  0
 86 87  1  0  0  0  0
 87 88  1  0  0  0  0
 85 89  1  0  0  0  0
 89 90  1  0  0  0  0
 89 91  2  0  0  0  0
 81 92  1  0  0  0  0
 92 93  2  0  0  0  0
 93 94  1  0  0  0  0
 94 95  1  0  0  0  0
 95 96  2  0  0  0  0
 96 97  1  0  0  0  0
 97 98  2  0  0  0  0
 98 99  1  0  0  0  0
 99100  1  0  0  0  0
100101  1  0  0  0  0
 98102  1  0  0  0  0
102103  2  0  0  0  0
102104  1  0  0  0  0
 94105  2  0  0  0  0
105106  1  0  0  0  0
 93107  1  0  0  0  0
107108  2  0  0  0  0
108109  1  0  0  0  0
108110  1  0  0  0  0
110111  2  0  0  0  0
111112  1  0  0  0  0
112113  2  0  0  0  0
113114  1  0  0  0  0
114115  2  0  0  0  0
115116  1  0  0  0  0
116117  2  0  0  0  0
117118  1  0  0  0  0
118119  1  0  0  0  0
119120  1  0  0  0  0
117121  1  0  0  0  0
121122  1  0  0  0  0
121123  2  0  0  0  0
113124  1  0  0  0  0
124125  2  0  0  0  0
125126  1  0  0  0  0
126127  1  0  0  0  0
127128  2  0  0  0  0
128129  1  0  0  0  0
129130  2  0  0  0  0
130131  1  0  0  0  0
131132  1  0  0  0  0
132133  1  0  0  0  0
130134  1  0  0  0  0
134135  2  0  0  0  0
134136  1  0  0  0  0
126137  2  0  0  0  0
137138  1  0  0  0  0
125139  1  0  0  0  0
139140  2  0  0  0  0
140141  1  0  0  0  0
140142  1  0  0  0  0
142143  2  0  0  0  0
143144  1  0  0  0  0
144145  2  0  0  0  0
145146  1  0  0  0  0
146147  2  0  0  0  0
147148  1  0  0  0  0
148149  2  0  0  0  0
149150  1  0  0  0  0
150151  1  0  0  0  0
151152  1  0  0  0  0
149153  1  0  0  0  0
153154  1  0  0  0  0
153155  2  0  0  0  0
145156  1  0  0  0  0
156157  2  0  0  0  0
157158  1  0  0  0  0
158159  1  0  0  0  0
159160  2  0  0  0  0
160161  1  0  0  0  0
161162  2  0  0  0  0
162163  1  0  0  0  0
163164  1  0  0  0  0
164165  1  0  0  0  0
162166  1  0  0  0  0
166167  2  0  0  0  0
166168  1  0  0  0  0
158169  2  0  0  0  0
169170  1  0  0  0  0
157171  1  0  0  0  0
171172  2  0  0  0  0
172173  1  0  0  0  0
 29  1  1  0  0  0  0
 37 33  2  0  0  0  0
 74 46  1  0  0  0  0
106 78  1  0  0  0  0
138110  1  0  0  0  0
170142  1  0  0  0  0
 28  3  1  0  0  0  0
 43 36  1  0  0  0  0
 73 48  1  0  0  0  0
105 80  1  0  0  0  0
137112  1  0  0  0  0
169144  1  0  0  0  0
 14  5  1  0  0  0  0
 32 15  1  0  0  0  0
 59 50  1  0  0  0  0
 77 60  1  0  0  0  0
 91 82  1  0  0  0  0
109 92  1  0  0  0  0
123114  1  0  0  0  0
141124  1  0  0  0  0
155146  1  0  0  0  0
173156  1  0  0  0  0
 26 18  1  0  0  0  0
 71 63  1  0  0  0  0
103 95  1  0  0  0  0
135127  1  0  0  0  0
167159  1  0  0  0  0
  1174  1  0  0  0  0
  2175  1  0  0  0  0
  6176  1  0  0  0  0
  7177  1  0  0  0  0
 10178  1  0  0  0  0
 10179  1  0  0  0  0
 11180  1  0  0  0  0
 11181  1  0  0  0  0
 11182  1  0  0  0  0
 14183  1  0  0  0  0
 19184  1  0  0  0  0
 20185  1  0  0  0  0
 23186  1  0  0  0  0
 23187  1  0  0  0  0
 24188  1  0  0  0  0
 24189  1  0  0  0  0
 24190  1  0  0  0  0
 26191  1  0  0  0  0
 30192  1  0  0  0  0
 41193  1  0  0  0  0
 42194  1  0  0  0  0
 47195  1  0  0  0  0
 51196  1  0  0  0  0
 52197  1  0  0  0  0
 55198  1  0  0  0  0
 55199  1  0  0  0  0
 56200  1  0  0  0  0
 56201  1  0  0  0  0
 56202  1  0  0  0  0
 59203  1  0  0  0  0
 64204  1  0  0  0  0
 65205  1  0  0  0  0
 68206  1  0  0  0  0
 68207  1  0  0  0  0
 69208  1  0  0  0  0
 69209  1  0  0  0  0
 69210  1  0  0  0  0
 71211  1  0  0  0  0
 75212  1  0  0  0  0
 79213  1  0  0  0  0
 83214  1  0  0  0  0
 84215  1  0  0  0  0
 87216  1  0  0  0  0
 87217  1  0  0  0  0
 88218  1  0  0  0  0
 88219  1  0  0  0  0
 88220  1  0  0  0  0
 91221  1  0  0  0  0
 96222  1  0  0  0  0
 97223  1  0  0  0  0
100224  1  0  0  0  0
100225  1  0  0  0  0
101226  1  0  0  0  0
101227  1  0  0  0  0
101228  1  0  0  0  0
103229  1  0  0  0  0
107230  1  0  0  0  0
111231  1  0  0  0  0
115232  1  0  0  0  0
116233  1  0  0  0  0
119234  1  0  0  0  0
119235  1  0  0  0  0
120236  1  0  0  0  0
120237  1  0  0  0  0
120238  1  0  0  0  0
123239  1  0  0  0  0
128240  1  0  0  0  0
129241  1  0  0  0  0
132242  1  0  0  0  0
132243  1  0  0  0  0
133244  1  0  0  0  0
133245  1  0  0  0  0
133246  1  0  0  0  0
135247  1  0  0  0  0
139248  1  0  0  0  0
143249  1  0  0  0  0
147250  1  0  0  0  0
148251  1  0  0  0  0
151252  1  0  0  0  0
151253  1  0  0  0  0
152254  1  0  0  0  0
152255  1  0  0  0  0
152256  1  0  0  0  0
155257  1  0  0  0  0
160258  1  0  0  0  0
161259  1  0  0  0  0
164260  1  0  0  0  0
164261  1  0  0  0  0
165262  1  0  0  0  0
165263  1  0  0  0  0
165264  1  0  0  0  0
167265  1  0  0  0  0
171266  1  0  0  0  0
172267  1  0  0  0  0
M  END
