267

C          8.69910       12.61660       11.91750
C          7.51290       12.80640       12.52900
C          6.50100       11.91040       12.07050
C          5.16180       11.82990       12.47830
C          4.60010       12.74390       13.48130
C          4.72650       14.12510       13.34350
C          4.20710       14.97460       14.29650
C          3.53700       14.48420       15.41570
S          2.88380       15.67480       16.55000
C          3.18720       14.93660       18.19830
C          4.65570       14.64140       18.42730
C          3.38790       13.10430       15.52070
F          2.71380       12.56140       16.55660
C          3.91730       12.23960       14.58380
C          4.39320       10.83460       11.89340
C          4.89840        9.93240       10.92680
C          6.23360       10.02330       10.50530
C          6.77070        9.11590        9.48440
C          6.11540        8.94160        8.26580
C          6.62850        8.09380        7.30900
C          7.80030        7.36950        7.52970
S          8.30130        6.26730        6.24330
C         10.13130        6.26580        6.29460
C         10.71040        7.65360        6.10970
C          8.42940        7.53670        8.75980
C          7.94310        8.40550        9.71580
F          9.54460        6.83960        9.07170
C          7.00530       11.01090       11.09980
S          8.68430       11.33620       10.75370
C          3.92270        8.97910       10.53730
C          2.72580        9.13860       11.16600
S          2.70810       10.53770       12.22240
C          1.55710        8.33310       10.95620
S          1.12150        7.94080        9.33010
C         -0.26900        7.03610        9.82210
C         -0.40900        7.06420       11.20360
C          0.65790        7.77610       11.85700
C          0.72350        7.75600       13.28090
C          1.84560        8.22280       13.99900
N          2.74650        8.52210       14.64310
C         -0.29810        7.17530       14.00240
C         -1.41110        6.61700       13.36340
C         -1.47770        6.54370       11.98850
C         -2.65650        6.03110       11.40500
N         -3.66180        5.66170       10.99430
C         -0.97720        6.30520        8.81220
C         -1.26350        6.74400        7.55510
C         -1.79230        5.73830        6.70740
C         -2.14230        5.84160        5.35090
C         -1.97650        7.09320        4.60240
C         -3.01340        7.60830        3.82650
C         -2.84990        8.78610        3.13030
C         -1.64660        9.48950        3.16200
S         -1.54980       10.96090        2.18720
C         -0.54190       12.11040        3.19540
C         -1.15150       12.35220        4.56160
C         -0.60850        8.94280        3.91040
F          0.60580        9.53650        3.95590
C         -0.76540        7.77730        4.63250
C         -2.60210        4.68620        4.73770
C         -2.70740        3.44350        5.41100
C         -2.35130        3.33870        6.76510
C         -2.38350        2.04710        7.46240
C         -3.05210        1.88970        8.67430
C         -3.10700        0.65300        9.28370
C         -2.48070       -0.45990        8.72710
S         -2.60850       -2.00660        9.57590
C         -2.95500       -3.19000        8.22070
C         -4.22310       -2.83420        7.47260
C         -1.75820       -0.27010        7.55210
C         -1.72390        0.95170        6.91290
F         -1.05540       -1.27880        6.99930
C         -1.91240        4.49810        7.38240
S         -1.34070        4.60100        9.02350
C         -3.13690        2.40820        4.54560
C         -3.30430        2.81090        3.25230
S         -3.00410        4.52450        3.04850
C         -3.55950        1.97190        2.12490
C         -3.75110        0.62010        2.13680
C         -3.77100        0.03680        0.84640
C         -3.84490       -1.32770        0.51410
C         -3.96190       -2.37320        1.53810
C         -4.93180       -3.36480        1.42540
C         -5.05690       -4.35930        2.37630
C         -4.20800       -4.39960        3.47630
S         -4.26410       -5.60130        4.76000
C         -5.40460       -6.87350        4.10240
C         -5.37920       -8.07260        5.03130
C         -3.23760       -3.39990        3.57710
F         -2.40100       -3.41000        4.63320
C         -3.10220       -2.40550        2.63570
C         -3.76240       -1.64160       -0.83380
C         -3.61760       -0.66290       -1.84820
C         -3.57100        0.70160       -1.51950
C         -3.42940        1.72460       -2.56330
C         -4.31150        2.80150       -2.62990
C         -4.23120        3.71190       -3.66200
C         -3.26340        3.59540       -4.65740
S         -3.26120        4.81160       -5.94200
C         -2.88870        3.84950       -7.45660
C         -3.86250        2.70600       -7.66200
C         -2.34850        2.55340       -4.54150
C         -2.42910        1.62330       -3.52560
F         -1.34680        2.40980       -5.43810
C         -3.64570        1.01590       -0.17240
S         -3.48090        2.61590        0.49860
C         -3.48000       -1.25040       -3.12830
C         -3.46150       -2.61270       -3.10950
S         -3.70160       -3.25720       -1.49780
C         -3.15390       -3.45650       -4.21670
C         -3.14340       -4.81600       -4.29440
C         -2.63050       -5.30930       -5.52330
C         -2.42470       -6.64390       -5.91060
C         -2.74530       -7.76360       -5.01750
C         -3.49810       -8.84380       -5.46670
C         -3.80250       -9.90290       -4.63300
C         -3.36500       -9.91850       -3.31410
S         -3.66050      -11.19700       -2.13940
C         -4.81310      -12.33490       -2.98120
C         -6.22760      -11.78860       -3.03940
C         -2.60060       -8.83300       -2.88000
F         -2.14910       -8.82060       -1.60910
C         -2.28790       -7.77390       -3.70030
C         -1.87150       -6.84870       -7.16670
C         -1.48250       -5.79420       -8.03130
C         -1.68410       -4.45960       -7.64390
C         -1.23100       -3.31680       -8.44530
C         -2.06560       -2.22510       -8.66800
C         -1.61460       -1.10040       -9.33100
C         -0.30700       -1.02430       -9.79560
S          0.41010        0.36250      -10.60900
C         -0.71960        1.74270      -10.20410
C         -1.81700        1.92880      -11.23630
C          0.50940       -2.14070       -9.59820
C          0.07330       -3.26580       -8.93570
F          1.77760       -2.11010      -10.04730
C         -2.27450       -4.25910       -6.40530
S         -2.57040       -2.70020       -5.68810
C         -0.90020       -6.27790       -9.22920
C         -0.80910       -7.63820       -9.28150
S         -1.47460       -8.40150       -7.85270
C         -0.23280       -8.43280      -10.31990
C          0.45270       -7.99650      -11.41530
C          0.92990       -9.04600      -12.24150
C          1.64540       -8.94040      -13.44460
C          2.09160       -7.64300      -13.96500
C          1.83850       -7.26880      -15.28070
C          2.27990       -6.05730      -15.77670
C          3.00900       -5.18300      -14.97860
S          3.62550       -3.61170      -15.47950
C          3.56740       -3.67480      -17.30380
C          4.57830       -4.64910      -17.87800
C          3.25210       -5.56990      -13.65850
F          3.95750       -4.75150      -12.85560
C          2.80540       -6.76750      -13.14810
C          1.93750      -10.12820      -14.09980
C          1.57320      -11.40120      -13.59950
C          0.86580      -11.50690      -12.39310
C          0.45680      -12.80830      -11.84930
C          0.75440      -13.16280      -10.53500
C          0.35380      -14.38100      -10.02950
C         -0.35420      -15.29290      -10.80940
S         -0.77120      -16.84570      -10.06920
C         -2.47790      -17.16440      -10.65120
C         -3.42500      -16.04640      -10.26470
C         -0.62790      -14.93310      -12.12520
C         -0.24490      -13.71150      -12.64080
F         -1.28500      -15.77630      -12.95330
C          0.56650      -10.32030      -11.74020
S         -0.33270      -10.18080      -10.25320
C          2.06410      -12.45170      -14.43160
C          2.74650      -11.99850      -15.50200
S          2.84720      -10.27260      -15.58230
H          9.61520       13.15130       12.07590
H          7.34550       13.54540       13.29120
H          5.22470       14.53180       12.47650
H          4.31000       16.04350       14.19140
H          2.57010       14.04770       18.30850
H          2.82900       15.70550       18.88320
H          5.25280       15.54020       18.28750
H          4.80170       14.27820       19.44260
H          5.01060       13.87870       17.73660
H          3.79150       11.17750       14.73120
H          5.21500        9.50000        8.05920
H          6.12660        7.97230        6.36160
H         10.46100        5.80420        7.22260
H         10.39680        5.61540        5.46070
H         10.33030        8.10790        5.19690
H         11.79460        7.58970        6.04400
H         10.45580        8.29750        6.94910
H          8.47020        8.48900       10.65330
H          4.12000        8.16930        9.85750
H         -0.24110        7.15910       15.08040
H         -2.22440        6.22660       13.95600
H         -1.12030        7.76600        7.25300
H         -3.96210        7.09560        3.79310
H         -3.65970        9.18930        2.54270
H          0.47420       11.72840        3.26270
H         -0.53900       13.02330        2.59980
H         -2.17590       12.70580        4.46550
H         -0.57050       13.10220        5.09460
H         -1.15580       11.43820        5.15260
H          0.07960        7.39000        5.18090
H         -3.55810        2.73140        9.12200
H         -3.64800        0.52520       10.20820
H         -2.09690       -3.24100        7.55510
H         -3.05960       -4.14280        8.73860
H         -4.42490       -3.60120        6.72830
H         -5.06880       -2.77030        8.15440
H         -4.11600       -1.87820        6.96250
H         -1.14600        1.04820        6.00640
H         -3.29560        1.39800        4.87350
H         -3.86250        0.05200        3.04120
H         -5.61570       -3.34870        0.59070
H         -5.82820       -5.10190        2.25570
H         -5.05790       -7.14400        3.10520
H         -6.40470       -6.44160        4.05220
H         -6.05180       -8.84210        4.65850
H         -4.37500       -8.48540        5.09120
H         -5.69500       -7.78700        6.03220
H         -2.30810       -1.68400        2.74620
H         -5.08730        2.90350       -1.88690
H         -4.93110        4.53040       -3.72380
H         -2.98360        4.59270       -8.24850
H         -1.85680        3.50710       -7.41480
H         -3.68720        2.24150       -8.63030
H         -4.88780        3.06900       -7.63190
H         -3.74210        1.94780       -6.89030
H         -1.68640        0.84190       -3.47930
H         -3.37980       -0.68850       -4.03900
H         -3.48840       -5.44280       -3.49180
H         -3.86920       -8.85170       -6.48010
H         -4.38420      -10.71940       -5.02780
H         -4.77340      -13.23650       -2.36980
H         -4.41200      -12.56740       -3.96660
H         -6.26570      -10.85390       -3.59470
H         -6.88310      -12.50920       -3.52480
H         -6.59840      -11.60340       -2.03410
H         -1.66930       -6.97780       -3.31690
H         -3.09070       -2.25850       -8.33200
H         -2.29510       -0.27810       -9.47770
H         -0.06940        2.61720      -10.18140
H         -1.10860        1.57050       -9.20180
H         -1.38080        2.11150      -12.21530
H         -2.43650        2.78350      -10.96900
H         -2.44980        1.04680      -11.30850
H          0.76570       -4.07570       -8.76760
H         -0.57430       -5.63500      -10.02560
H          0.60930       -6.95730      -11.63800
H          1.26930       -7.92430      -15.92180
H          2.04410       -5.79720      -16.79560
H          2.54810       -3.89810      -17.61640
H          3.80320       -2.65240      -17.59890
H          4.53920       -4.62560      -18.96540
H          4.37630       -5.66480      -17.54440
H          5.58190       -4.37730      -17.55980
H          3.04450       -7.02660      -12.12850
H          1.31190      -12.48270       -9.91000
H          0.58600      -14.65250       -9.01160
H         -2.46200      -17.33310      -11.72560
H         -2.74220      -18.09540      -10.14980
H         -3.15080      -15.11660      -10.76020
H         -4.43940      -16.30690      -10.55990
H         -3.40340      -15.88290       -9.18920
H         -0.50630      -13.47180      -13.66020
H          1.92180      -13.49450      -14.21350
H          3.21490      -12.57370      -16.27660
