
  xtb     03042213383D
 energy: -413.309191254833 gnorm: 0.001270207221 xtb: 6.4.1 (unknown)
232255  0     0  0            999 V2000
  -17.1761    4.1513    0.5559 C   0  0  0  0  0  0  0  0  0  0  0  0
  -16.3273    4.4928    1.5463 C   0  0  0  0  0  0  0  0  0  0  0  0
  -15.1502    3.6867    1.5714 C   0  0  0  0  0  0  0  0  0  0  0  0
  -14.0436    3.7947    2.4271 C   0  0  0  0  0  0  0  0  0  0  0  0
  -14.0151    4.7604    3.5333 C   0  0  0  0  0  0  0  0  0  0  0  0
  -12.9456    5.6377    3.6995 C   0  0  0  0  0  0  0  0  0  0  0  0
  -12.9208    6.5206    4.7578 C   0  0  0  0  0  0  0  0  0  0  0  0
  -13.9570    6.5691    5.6884 C   0  0  0  0  0  0  0  0  0  0  0  0
  -13.8337    7.7782    6.9746 S   0  0  0  0  0  0  0  0  0  0  0  0
  -14.4664    6.9175    8.4620 C   0  0  0  0  0  0  0  0  0  0  0  0
  -13.6665    5.6696    8.7773 C   0  0  0  0  0  0  0  0  0  0  0  0
  -15.0294    5.7036    5.4959 C   0  0  0  0  0  0  0  0  0  0  0  0
  -16.0893    5.7123    6.3354 F   0  0  0  0  0  0  0  0  0  0  0  0
  -15.0610    4.8044    4.4494 C   0  0  0  0  0  0  0  0  0  0  0  0
  -12.9834    2.9347    2.1843 C   0  0  0  0  0  0  0  0  0  0  0  0
  -12.9947    1.9628    1.1537 C   0  0  0  0  0  0  0  0  0  0  0  0
  -14.1011    1.8541    0.2966 C   0  0  0  0  0  0  0  0  0  0  0  0
  -14.1176    0.8916   -0.8103 C   0  0  0  0  0  0  0  0  0  0  0  0
  -13.0491    0.8108   -1.6990 C   0  0  0  0  0  0  0  0  0  0  0  0
  -13.0561   -0.0852   -2.7504 C   0  0  0  0  0  0  0  0  0  0  0  0
  -14.1376   -0.9346   -2.9543 C   0  0  0  0  0  0  0  0  0  0  0  0
  -14.2804   -2.1361   -4.2324 S   0  0  0  0  0  0  0  0  0  0  0  0
  -12.8364   -1.8361   -5.3087 C   0  0  0  0  0  0  0  0  0  0  0  0
  -12.9969   -0.5937   -6.1646 C   0  0  0  0  0  0  0  0  0  0  0  0
  -15.2023   -0.8424   -2.0544 C   0  0  0  0  0  0  0  0  0  0  0  0
  -15.2086    0.0464   -1.0042 C   0  0  0  0  0  0  0  0  0  0  0  0
  -16.2626   -1.6590   -2.2144 F   0  0  0  0  0  0  0  0  0  0  0  0
  -15.1578    2.7224    0.5350 C   0  0  0  0  0  0  0  0  0  0  0  0
  -16.6176    2.8332   -0.4150 S   0  0  0  0  0  0  0  0  0  0  0  0
  -11.8158    1.1738    1.1604 C   0  0  0  0  0  0  0  0  0  0  0  0
  -10.9215    1.5334    2.1225 C   0  0  0  0  0  0  0  0  0  0  0  0
  -11.5034    2.8634    3.1078 S   0  0  0  0  0  0  0  0  0  0  0  0
   -9.6224    0.9888    2.3427 C   0  0  0  0  0  0  0  0  0  0  0  0
   -8.6663    1.4264    3.2088 C   0  0  0  0  0  0  0  0  0  0  0  0
   -7.4463    0.7082    3.1218 C   0  0  0  0  0  0  0  0  0  0  0  0
   -6.2439    0.9683    3.8015 C   0  0  0  0  0  0  0  0  0  0  0  0
   -6.1650    2.0011    4.8405 C   0  0  0  0  0  0  0  0  0  0  0  0
   -7.0961    2.0392    5.8747 C   0  0  0  0  0  0  0  0  0  0  0  0
   -7.0275    2.9981    6.8668 C   0  0  0  0  0  0  0  0  0  0  0  0
   -6.0209    3.9571    6.8609 C   0  0  0  0  0  0  0  0  0  0  0  0
   -5.8235    5.2532    8.0363 S   0  0  0  0  0  0  0  0  0  0  0  0
   -6.9830    4.8297    9.3817 C   0  0  0  0  0  0  0  0  0  0  0  0
   -6.4976    3.6584   10.2147 C   0  0  0  0  0  0  0  0  0  0  0  0
   -5.0960    3.9085    5.8155 C   0  0  0  0  0  0  0  0  0  0  0  0
   -4.1139    4.8306    5.7709 F   0  0  0  0  0  0  0  0  0  0  0  0
   -5.1516    2.9575    4.8227 C   0  0  0  0  0  0  0  0  0  0  0  0
   -5.1448    0.2070    3.4319 C   0  0  0  0  0  0  0  0  0  0  0  0
   -5.2127   -0.8247    2.4625 C   0  0  0  0  0  0  0  0  0  0  0  0
   -6.4185   -1.0958    1.7923 C   0  0  0  0  0  0  0  0  0  0  0  0
   -6.4904   -2.1269    0.7496 C   0  0  0  0  0  0  0  0  0  0  0  0
   -7.4974   -3.0898    0.7521 C   0  0  0  0  0  0  0  0  0  0  0  0
   -7.5255   -4.0805   -0.2084 C   0  0  0  0  0  0  0  0  0  0  0  0
   -6.5570   -4.1456   -1.2045 C   0  0  0  0  0  0  0  0  0  0  0  0
   -6.6376   -5.4471   -2.4072 S   0  0  0  0  0  0  0  0  0  0  0  0
   -4.9621   -6.1738   -2.2510 C   0  0  0  0  0  0  0  0  0  0  0  0
   -4.7287   -6.7497   -0.8702 C   0  0  0  0  0  0  0  0  0  0  0  0
   -5.5848   -3.1508   -1.2247 C   0  0  0  0  0  0  0  0  0  0  0  0
   -5.5389   -2.1591   -0.2676 C   0  0  0  0  0  0  0  0  0  0  0  0
   -4.6451   -3.1298   -2.1957 F   0  0  0  0  0  0  0  0  0  0  0  0
   -7.5075   -0.3141    2.1413 C   0  0  0  0  0  0  0  0  0  0  0  0
   -9.0754   -0.3712    1.3790 S   0  0  0  0  0  0  0  0  0  0  0  0
   -3.9632   -1.4636    2.2846 C   0  0  0  0  0  0  0  0  0  0  0  0
   -2.9572   -0.9236    3.0333 C   0  0  0  0  0  0  0  0  0  0  0  0
   -3.5277    0.3659    4.0693 S   0  0  0  0  0  0  0  0  0  0  0  0
   -1.5687   -1.2359    2.9153 C   0  0  0  0  0  0  0  0  0  0  0  0
   -1.0222   -2.1179    2.0282 C   0  0  0  0  0  0  0  0  0  0  0  0
    0.3915   -2.0879    1.9933 C   0  0  0  0  0  0  0  0  0  0  0  0
    1.2334   -2.7689    1.0979 C   0  0  0  0  0  0  0  0  0  0  0  0
    0.6812   -3.7584    0.1657 C   0  0  0  0  0  0  0  0  0  0  0  0
    0.9412   -3.6992   -1.1995 C   0  0  0  0  0  0  0  0  0  0  0  0
    0.3737   -4.6029   -2.0776 C   0  0  0  0  0  0  0  0  0  0  0  0
   -0.4755   -5.6039   -1.6200 C   0  0  0  0  0  0  0  0  0  0  0  0
   -1.2770   -6.8148   -2.6165 S   0  0  0  0  0  0  0  0  0  0  0  0
   -0.9378   -6.2929   -4.3315 C   0  0  0  0  0  0  0  0  0  0  0  0
   -1.7622   -5.0889   -4.7466 C   0  0  0  0  0  0  0  0  0  0  0  0
   -0.7032   -5.6688   -0.2437 C   0  0  0  0  0  0  0  0  0  0  0  0
   -1.5017   -6.6439    0.2423 F   0  0  0  0  0  0  0  0  0  0  0  0
   -0.1501   -4.7727    0.6406 C   0  0  0  0  0  0  0  0  0  0  0  0
    2.5719   -2.4154    1.1230 C   0  0  0  0  0  0  0  0  0  0  0  0
    3.1104   -1.4623    2.0261 C   0  0  0  0  0  0  0  0  0  0  0  0
    2.2723   -0.8182    2.9522 C   0  0  0  0  0  0  0  0  0  0  0  0
    2.7702    0.1970    3.8878 C   0  0  0  0  0  0  0  0  0  0  0  0
    3.5359    1.2759    3.4488 C   0  0  0  0  0  0  0  0  0  0  0  0
    3.9494    2.2478    4.3344 C   0  0  0  0  0  0  0  0  0  0  0  0
    3.6305    2.1783    5.6887 C   0  0  0  0  0  0  0  0  0  0  0  0
    4.2339    3.4664    6.7401 S   0  0  0  0  0  0  0  0  0  0  0  0
    2.8181    3.8180    7.8481 C   0  0  0  0  0  0  0  0  0  0  0  0
    1.5639    4.1705    7.0743 C   0  0  0  0  0  0  0  0  0  0  0  0
    2.8930    1.0791    6.1181 C   0  0  0  0  0  0  0  0  0  0  0  0
    2.4497    0.1126    5.2389 C   0  0  0  0  0  0  0  0  0  0  0  0
    2.5881    0.9190    7.4237 F   0  0  0  0  0  0  0  0  0  0  0  0
    0.9245   -1.1433    2.9033 C   0  0  0  0  0  0  0  0  0  0  0  0
   -0.3451   -0.3603    3.8118 S   0  0  0  0  0  0  0  0  0  0  0  0
    4.5013   -1.2726    1.8211 C   0  0  0  0  0  0  0  0  0  0  0  0
    5.0071   -2.0119    0.7938 C   0  0  0  0  0  0  0  0  0  0  0  0
    3.7974   -3.0472    0.0583 S   0  0  0  0  0  0  0  0  0  0  0  0
    6.3028   -1.9431    0.2029 C   0  0  0  0  0  0  0  0  0  0  0  0
    6.7319   -2.6311   -0.8928 C   0  0  0  0  0  0  0  0  0  0  0  0
    8.0089   -2.2282   -1.3541 C   0  0  0  0  0  0  0  0  0  0  0  0
    8.6966   -2.6758   -2.4936 C   0  0  0  0  0  0  0  0  0  0  0  0
    8.1146   -3.6816   -3.3893 C   0  0  0  0  0  0  0  0  0  0  0  0
    8.8386   -4.8047   -3.7755 C   0  0  0  0  0  0  0  0  0  0  0  0
    8.2844   -5.7661   -4.5992 C   0  0  0  0  0  0  0  0  0  0  0  0
    6.9856   -5.6325   -5.0759 C   0  0  0  0  0  0  0  0  0  0  0  0
    6.1361   -6.7899   -6.0959 S   0  0  0  0  0  0  0  0  0  0  0  0
    7.4346   -7.9455   -6.6534 C   0  0  0  0  0  0  0  0  0  0  0  0
    8.3639   -7.3211   -7.6768 C   0  0  0  0  0  0  0  0  0  0  0  0
    6.2755   -4.4933   -4.6901 C   0  0  0  0  0  0  0  0  0  0  0  0
    5.0120   -4.3297   -5.1339 F   0  0  0  0  0  0  0  0  0  0  0  0
    6.8137   -3.5307   -3.8681 C   0  0  0  0  0  0  0  0  0  0  0  0
    9.9285   -2.0910   -2.7412 C   0  0  0  0  0  0  0  0  0  0  0  0
   10.4865   -1.0728   -1.9292 C   0  0  0  0  0  0  0  0  0  0  0  0
    9.7968   -0.6253   -0.7912 C   0  0  0  0  0  0  0  0  0  0  0  0
   10.3047    0.4537    0.0649 C   0  0  0  0  0  0  0  0  0  0  0  0
   10.6821    1.6865   -0.4659 C   0  0  0  0  0  0  0  0  0  0  0  0
   11.0887    2.7099    0.3626 C   0  0  0  0  0  0  0  0  0  0  0  0
   11.1519    2.5454    1.7467 C   0  0  0  0  0  0  0  0  0  0  0  0
   11.6928    3.9233    2.7052 S   0  0  0  0  0  0  0  0  0  0  0  0
   10.7731    3.7426    4.2867 C   0  0  0  0  0  0  0  0  0  0  0  0
   10.6499    5.1041    4.9415 C   0  0  0  0  0  0  0  0  0  0  0  0
   10.8136    1.2951    2.2568 C   0  0  0  0  0  0  0  0  0  0  0  0
   10.3785    0.2706    1.4415 C   0  0  0  0  0  0  0  0  0  0  0  0
   10.9100    1.0342    3.5795 F   0  0  0  0  0  0  0  0  0  0  0  0
    8.5748   -1.2259   -0.5284 C   0  0  0  0  0  0  0  0  0  0  0  0
    7.4932   -0.7897    0.7713 S   0  0  0  0  0  0  0  0  0  0  0  0
   11.7305   -0.6131   -2.4384 C   0  0  0  0  0  0  0  0  0  0  0  0
   12.0810   -1.1957   -3.6148 C   0  0  0  0  0  0  0  0  0  0  0  0
   10.9416   -2.4376   -4.1133 S   0  0  0  0  0  0  0  0  0  0  0  0
   13.2473   -0.9533   -4.4179 C   0  0  0  0  0  0  0  0  0  0  0  0
   14.8279   -1.0376   -3.7312 S   0  0  0  0  0  0  0  0  0  0  0  0
   15.6003   -0.7900   -5.2622 C   0  0  0  0  0  0  0  0  0  0  0  0
   14.6589   -0.6738   -6.2766 C   0  0  0  0  0  0  0  0  0  0  0  0
   13.3120   -0.7209   -5.7858 C   0  0  0  0  0  0  0  0  0  0  0  0
   12.2388   -0.4550   -6.6837 C   0  0  0  0  0  0  0  0  0  0  0  0
   10.9221   -0.2286   -6.2252 C   0  0  0  0  0  0  0  0  0  0  0  0
    9.8511    0.0290   -5.9053 N   0  0  0  0  0  0  0  0  0  0  0  0
   12.4991   -0.3074   -8.0286 C   0  0  0  0  0  0  0  0  0  0  0  0
   13.8032   -0.4081   -8.5277 C   0  0  0  0  0  0  0  0  0  0  0  0
   14.8786   -0.5655   -7.6804 C   0  0  0  0  0  0  0  0  0  0  0  0
   16.1711   -0.6477   -8.2381 C   0  0  0  0  0  0  0  0  0  0  0  0
   17.2006   -0.7314   -8.7388 N   0  0  0  0  0  0  0  0  0  0  0  0
   17.0300   -0.7172   -5.3677 C   0  0  0  0  0  0  0  0  0  0  0  0
   18.0366   -1.9978   -4.7760 S   0  0  0  0  0  0  0  0  0  0  0  0
   19.4591   -1.2395   -5.3181 C   0  0  0  0  0  0  0  0  0  0  0  0
   19.2010   -0.0331   -5.9268 C   0  0  0  0  0  0  0  0  0  0  0  0
   17.8012    0.2865   -5.9398 C   0  0  0  0  0  0  0  0  0  0  0  0
   17.3905    1.5462   -6.4638 C   0  0  0  0  0  0  0  0  0  0  0  0
   16.0454    1.9659   -6.4044 C   0  0  0  0  0  0  0  0  0  0  0  0
   14.9644    2.3479   -6.3537 N   0  0  0  0  0  0  0  0  0  0  0  0
   18.3292    2.3975   -7.0063 C   0  0  0  0  0  0  0  0  0  0  0  0
   19.6890    2.0577   -7.0450 C   0  0  0  0  0  0  0  0  0  0  0  0
   20.1357    0.8736   -6.5060 C   0  0  0  0  0  0  0  0  0  0  0  0
   21.5085    0.5460   -6.5091 C   0  0  0  0  0  0  0  0  0  0  0  0
   22.6238    0.2797   -6.5001 N   0  0  0  0  0  0  0  0  0  0  0  0
  -18.1228    4.5955    0.3178 H   0  0  0  0  0  0  0  0  0  0  0  0
  -16.5050    5.3014    2.2317 H   0  0  0  0  0  0  0  0  0  0  0  0
  -12.1338    5.6332    2.9888 H   0  0  0  0  0  0  0  0  0  0  0  0
  -12.0906    7.1980    4.8837 H   0  0  0  0  0  0  0  0  0  0  0  0
  -14.3553    7.6649    9.2476 H   0  0  0  0  0  0  0  0  0  0  0  0
  -15.5236    6.7016    8.3261 H   0  0  0  0  0  0  0  0  0  0  0  0
  -13.7716    4.9307    7.9849 H   0  0  0  0  0  0  0  0  0  0  0  0
  -12.6111    5.9110    8.8868 H   0  0  0  0  0  0  0  0  0  0  0  0
  -14.0242    5.2304    9.7065 H   0  0  0  0  0  0  0  0  0  0  0  0
  -15.9043    4.1365    4.3630 H   0  0  0  0  0  0  0  0  0  0  0  0
  -12.2070    1.4762   -1.5817 H   0  0  0  0  0  0  0  0  0  0  0  0
  -12.2033   -0.1161   -3.4085 H   0  0  0  0  0  0  0  0  0  0  0  0
  -12.7954   -2.7296   -5.9318 H   0  0  0  0  0  0  0  0  0  0  0  0
  -11.9414   -1.8069   -4.6887 H   0  0  0  0  0  0  0  0  0  0  0  0
  -12.1299   -0.4772   -6.8120 H   0  0  0  0  0  0  0  0  0  0  0  0
  -13.8854   -0.6789   -6.7856 H   0  0  0  0  0  0  0  0  0  0  0  0
  -13.0950    0.2986   -5.5503 H   0  0  0  0  0  0  0  0  0  0  0  0
  -16.0535    0.0603   -0.3342 H   0  0  0  0  0  0  0  0  0  0  0  0
  -11.6380    0.3596    0.4808 H   0  0  0  0  0  0  0  0  0  0  0  0
   -8.8185    2.2682    3.8605 H   0  0  0  0  0  0  0  0  0  0  0  0
   -7.8756    1.2933    5.9166 H   0  0  0  0  0  0  0  0  0  0  0  0
   -7.7731    2.9917    7.6449 H   0  0  0  0  0  0  0  0  0  0  0  0
   -7.0197    5.7401    9.9800 H   0  0  0  0  0  0  0  0  0  0  0  0
   -7.9691    4.6590    8.9519 H   0  0  0  0  0  0  0  0  0  0  0  0
   -6.4078    2.7577    9.6115 H   0  0  0  0  0  0  0  0  0  0  0  0
   -5.5228    3.8818   10.6414 H   0  0  0  0  0  0  0  0  0  0  0  0
   -7.1969    3.4661   11.0262 H   0  0  0  0  0  0  0  0  0  0  0  0
   -4.4176    2.9828    4.0332 H   0  0  0  0  0  0  0  0  0  0  0  0
   -8.2446   -3.0798    1.5303 H   0  0  0  0  0  0  0  0  0  0  0  0
   -8.2971   -4.8342   -0.1935 H   0  0  0  0  0  0  0  0  0  0  0  0
   -4.2270   -5.4128   -2.5023 H   0  0  0  0  0  0  0  0  0  0  0  0
   -4.9422   -6.9538   -3.0111 H   0  0  0  0  0  0  0  0  0  0  0  0
   -4.7725   -5.9692   -0.1120 H   0  0  0  0  0  0  0  0  0  0  0  0
   -3.7467   -7.2144   -0.8303 H   0  0  0  0  0  0  0  0  0  0  0  0
   -5.4812   -7.4994   -0.6369 H   0  0  0  0  0  0  0  0  0  0  0  0
   -4.7776   -1.3977   -0.3415 H   0  0  0  0  0  0  0  0  0  0  0  0
   -3.8171   -2.2921    1.6179 H   0  0  0  0  0  0  0  0  0  0  0  0
   -1.6076   -2.7344    1.3721 H   0  0  0  0  0  0  0  0  0  0  0  0
    1.5764   -2.9196   -1.5902 H   0  0  0  0  0  0  0  0  0  0  0  0
    0.6029   -4.5152   -3.1266 H   0  0  0  0  0  0  0  0  0  0  0  0
   -1.2071   -7.1686   -4.9223 H   0  0  0  0  0  0  0  0  0  0  0  0
    0.1333   -6.1238   -4.4339 H   0  0  0  0  0  0  0  0  0  0  0  0
   -1.5759   -4.2385   -4.0942 H   0  0  0  0  0  0  0  0  0  0  0  0
   -1.5097   -4.8053   -5.7665 H   0  0  0  0  0  0  0  0  0  0  0  0
   -2.8231   -5.3240   -4.7053 H   0  0  0  0  0  0  0  0  0  0  0  0
   -0.3539   -4.8784    1.6949 H   0  0  0  0  0  0  0  0  0  0  0  0
    3.7721    1.3730    2.4002 H   0  0  0  0  0  0  0  0  0  0  0  0
    4.5260    3.0917    3.9887 H   0  0  0  0  0  0  0  0  0  0  0  0
    2.6657    2.9671    8.5086 H   0  0  0  0  0  0  0  0  0  0  0  0
    3.1698    4.6658    8.4361 H   0  0  0  0  0  0  0  0  0  0  0  0
    1.2002    3.3148    6.5086 H   0  0  0  0  0  0  0  0  0  0  0  0
    0.7824    4.4800    7.7650 H   0  0  0  0  0  0  0  0  0  0  0  0
    1.7587    4.9857    6.3806 H   0  0  0  0  0  0  0  0  0  0  0  0
    1.8796   -0.7177    5.6259 H   0  0  0  0  0  0  0  0  0  0  0  0
    5.1067   -0.6018    2.4041 H   0  0  0  0  0  0  0  0  0  0  0  0
    6.1402   -3.3974   -1.3602 H   0  0  0  0  0  0  0  0  0  0  0  0
    9.8431   -4.9455   -3.4061 H   0  0  0  0  0  0  0  0  0  0  0  0
    8.8749   -6.6304   -4.8556 H   0  0  0  0  0  0  0  0  0  0  0  0
    6.8699   -8.7671   -7.0943 H   0  0  0  0  0  0  0  0  0  0  0  0
    7.9653   -8.3211   -5.7793 H   0  0  0  0  0  0  0  0  0  0  0  0
    9.1013   -8.0524   -8.0011 H   0  0  0  0  0  0  0  0  0  0  0  0
    7.7974   -6.9906   -8.5440 H   0  0  0  0  0  0  0  0  0  0  0  0
    8.8852   -6.4614   -7.2611 H   0  0  0  0  0  0  0  0  0  0  0  0
    6.2285   -2.6575   -3.6273 H   0  0  0  0  0  0  0  0  0  0  0  0
   10.6143    1.8534   -1.5302 H   0  0  0  0  0  0  0  0  0  0  0  0
   11.3588    3.6701   -0.0487 H   0  0  0  0  0  0  0  0  0  0  0  0
   11.3172    3.0473    4.9240 H   0  0  0  0  0  0  0  0  0  0  0  0
    9.7938    3.3334    4.0438 H   0  0  0  0  0  0  0  0  0  0  0  0
   10.1110    5.0087    5.8817 H   0  0  0  0  0  0  0  0  0  0  0  0
   10.1088    5.7922    4.2961 H   0  0  0  0  0  0  0  0  0  0  0  0
   11.6339    5.5214    5.1437 H   0  0  0  0  0  0  0  0  0  0  0  0
   10.1275   -0.6766    1.8929 H   0  0  0  0  0  0  0  0  0  0  0  0
   12.3228    0.1492   -1.9646 H   0  0  0  0  0  0  0  0  0  0  0  0
   11.6853   -0.1031   -8.7078 H   0  0  0  0  0  0  0  0  0  0  0  0
   13.9731   -0.3323   -9.5911 H   0  0  0  0  0  0  0  0  0  0  0  0
   20.4123   -1.7082   -5.1746 H   0  0  0  0  0  0  0  0  0  0  0  0
   18.0104    3.3491   -7.4053 H   0  0  0  0  0  0  0  0  0  0  0  0
   20.3938    2.7433   -7.4904 H   0  0  0  0  0  0  0  0  0  0  0  0
  1  2  2  0  0  0  0
  2  3  1  0  0  0  0
  3  4  2  0  0  0  0
  4  5  1  0  0  0  0
  5  6  2  0  0  0  0
  6  7  1  0  0  0  0
  7  8  2  0  0  0  0
  8  9  1  0  0  0  0
  9 10  1  0  0  0  0
 10 11  1  0  0  0  0
  8 12  1  0  0  0  0
 12 13  1  0  0  0  0
 12 14  2  0  0  0  0
  4 15  1  0  0  0  0
 15 16  2  0  0  0  0
 16 17  1  0  0  0  0
 17 18  1  0  0  0  0
 18 19  2  0  0  0  0
 19 20  1  0  0  0  0
 20 21  2  0  0  0  0
 21 22  1  0  0  0  0
 22 23  1  0  0  0  0
 23 24  1  0  0  0  0
 21 25  1  0  0  0  0
 25 26  2  0  0  0  0
 25 27  1  0  0  0  0
 17 28  2  0  0  0  0
 28 29  1  0  0  0  0
 16 30  1  0  0  0  0
 30 31  2  0  0  0  0
 31 32  1  0  0  0  0
 31 33  1  0  0  0  0
 33 34  2  0  0  0  0
 34 35  1  0  0  0  0
 35 36  2  0  0  0  0
 36 37  1  0  0  0  0
 37 38  2  0  0  0  0
 38 39  1  0  0  0  0
 39 40  2  0  0  0  0
 40 41  1  0  0  0  0
 41 42  1  0  0  0  0
 42 43  1  0  0  0  0
 40 44  1  0  0  0  0
 44 45  1  0  0  0  0
 44 46  2  0  0  0  0
 36 47  1  0  0  0  0
 47 48  2  0  0  0  0
 48 49  1  0  0  0  0
 49 50  1  0  0  0  0
 50 51  2  0  0  0  0
 51 52  1  0  0  0  0
 52 53  2  0  0  0  0
 53 54  1  0  0  0  0
 54 55  1  0  0  0  0
 55 56  1  0  0  0  0
 53 57  1  0  0  0  0
 57 58  2  0  0  0  0
 57 59  1  0  0  0  0
 49 60  2  0  0  0  0
 60 61  1  0  0  0  0
 48 62  1  0  0  0  0
 62 63  2  0  0  0  0
 63 64  1  0  0  0  0
 63 65  1  0  0  0  0
 65 66  2  0  0  0  0
 66 67  1  0  0  0  0
 67 68  2  0  0  0  0
 68 69  1  0  0  0  0
 69 70  2  0  0  0  0
 70 71  1  0  0  0  0
 71 72  2  0  0  0  0
 72 73  1  0  0  0  0
 73 74  1  0  0  0  0
 74 75  1  0  0  0  0
 72 76  1  0  0  0  0
 76 77  1  0  0  0  0
 76 78  2  0  0  0  0
 68 79  1  0  0  0  0
 79 80  2  0  0  0  0
 80 81  1  0  0  0  0
 81 82  1  0  0  0  0
 82 83  2  0  0  0  0
 83 84  1  0  0  0  0
 84 85  2  0  0  0  0
 85 86  1  0  0  0  0
 86 87  1  0  0  0  0
 87 88  1  0  0  0  0
 85 89  1  0  0  0  0
 89 90  2  0  0  0  0
 89 91  1  0  0  0  0
 81 92  2  0  0  0  0
 92 93  1  0  0  0  0
 80 94  1  0  0  0  0
 94 95  2  0  0  0  0
 95 96  1  0  0  0  0
 95 97  1  0  0  0  0
 97 98  2  0  0  0  0
 98 99  1  0  0  0  0
 99100  2  0  0  0  0
100101  1  0  0  0  0
101102  2  0  0  0  0
102103  1  0  0  0  0
103104  2  0  0  0  0
104105  1  0  0  0  0
105106  1  0  0  0  0
106107  1  0  0  0  0
104108  1  0  0  0  0
108109  1  0  0  0  0
108110  2  0  0  0  0
100111  1  0  0  0  0
111112  2  0  0  0  0
112113  1  0  0  0  0
113114  1  0  0  0  0
114115  2  0  0  0  0
115116  1  0  0  0  0
116117  2  0  0  0  0
117118  1  0  0  0  0
118119  1  0  0  0  0
119120  1  0  0  0  0
117121  1  0  0  0  0
121122  2  0  0  0  0
121123  1  0  0  0  0
113124  2  0  0  0  0
124125  1  0  0  0  0
112126  1  0  0  0  0
126127  2  0  0  0  0
127128  1  0  0  0  0
127129  1  0  0  0  0
129130  1  0  0  0  0
130131  1  0  0  0  0
131132  2  0  0  0  0
132133  1  0  0  0  0
133134  1  0  0  0  0
134135  1  0  0  0  0
135136  3  0  0  0  0
134137  2  0  0  0  0
137138  1  0  0  0  0
138139  2  0  0  0  0
139140  1  0  0  0  0
140141  3  0  0  0  0
131142  1  0  0  0  0
142143  1  0  0  0  0
143144  1  0  0  0  0
144145  2  0  0  0  0
145146  1  0  0  0  0
146147  1  0  0  0  0
147148  1  0  0  0  0
148149  3  0  0  0  0
147150  2  0  0  0  0
150151  1  0  0  0  0
151152  2  0  0  0  0
152153  1  0  0  0  0
153154  3  0  0  0  0
 29  1  1  0  0  0  0
 61 33  1  0  0  0  0
 93 65  1  0  0  0  0
125 97  1  0  0  0  0
133129  2  0  0  0  0
146142  2  0  0  0  0
 28  3  1  0  0  0  0
 60 35  1  0  0  0  0
 92 67  1  0  0  0  0
124 99  1  0  0  0  0
139132  1  0  0  0  0
152145  1  0  0  0  0
 14  5  1  0  0  0  0
 32 15  1  0  0  0  0
 46 37  1  0  0  0  0
 64 47  1  0  0  0  0
 78 69  1  0  0  0  0
 96 79  1  0  0  0  0
110101  1  0  0  0  0
128111  1  0  0  0  0
 26 18  1  0  0  0  0
 58 50  1  0  0  0  0
 90 82  1  0  0  0  0
122114  1  0  0  0  0
  1155  1  0  0  0  0
  2156  1  0  0  0  0
  6157  1  0  0  0  0
  7158  1  0  0  0  0
 10159  1  0  0  0  0
 10160  1  0  0  0  0
 11161  1  0  0  0  0
 11162  1  0  0  0  0
 11163  1  0  0  0  0
 14164  1  0  0  0  0
 19165  1  0  0  0  0
 20166  1  0  0  0  0
 23167  1  0  0  0  0
 23168  1  0  0  0  0
 24169  1  0  0  0  0
 24170  1  0  0  0  0
 24171  1  0  0  0  0
 26172  1  0  0  0  0
 30173  1  0  0  0  0
 34174  1  0  0  0  0
 38175  1  0  0  0  0
 39176  1  0  0  0  0
 42177  1  0  0  0  0
 42178  1  0  0  0  0
 43179  1  0  0  0  0
 43180  1  0  0  0  0
 43181  1  0  0  0  0
 46182  1  0  0  0  0
 51183  1  0  0  0  0
 52184  1  0  0  0  0
 55185  1  0  0  0  0
 55186  1  0  0  0  0
 56187  1  0  0  0  0
 56188  1  0  0  0  0
 56189  1  0  0  0  0
 58190  1  0  0  0  0
 62191  1  0  0  0  0
 66192  1  0  0  0  0
 70193  1  0  0  0  0
 71194  1  0  0  0  0
 74195  1  0  0  0  0
 74196  1  0  0  0  0
 75197  1  0  0  0  0
 75198  1  0  0  0  0
 75199  1  0  0  0  0
 78200  1  0  0  0  0
 83201  1  0  0  0  0
 84202  1  0  0  0  0
 87203  1  0  0  0  0
 87204  1  0  0  0  0
 88205  1  0  0  0  0
 88206  1  0  0  0  0
 88207  1  0  0  0  0
 90208  1  0  0  0  0
 94209  1  0  0  0  0
 98210  1  0  0  0  0
102211  1  0  0  0  0
103212  1  0  0  0  0
106213  1  0  0  0  0
106214  1  0  0  0  0
107215  1  0  0  0  0
107216  1  0  0  0  0
107217  1  0  0  0  0
110218  1  0  0  0  0
115219  1  0  0  0  0
116220  1  0  0  0  0
119221  1  0  0  0  0
119222  1  0  0  0  0
120223  1  0  0  0  0
120224  1  0  0  0  0
120225  1  0  0  0  0
122226  1  0  0  0  0
126227  1  0  0  0  0
137228  1  0  0  0  0
138229  1  0  0  0  0
144230  1  0  0  0  0
150231  1  0  0  0  0
151232  1  0  0  0  0
M  END
