
  xtb     02282215493D
 energy: -206.203098342015 gnorm: 0.000737195589 xtb: 6.4.1 (unknown)
116125  0     0  0            999 V2000
    2.6111   -4.0137    3.1342 C   0  0  0  0  0  0  0  0  0  0  0  0
    1.3502   -5.0429    3.6908 S   0  0  0  0  0  0  0  0  0  0  0  0
    0.8994   -3.9469    4.9447 C   0  0  0  0  0  0  0  0  0  0  0  0
    1.6900   -2.8463    4.9212 C   0  0  0  0  0  0  0  0  0  0  0  0
    2.6767   -2.8702    3.8736 C   0  0  0  0  0  0  0  0  0  0  0  0
    3.4280   -1.6668    3.8825 C   0  0  0  0  0  0  0  0  0  0  0  0
    3.0572   -0.7877    4.8886 C   0  0  0  0  0  0  0  0  0  0  0  0
    1.7540   -1.3935    5.8975 S   0  0  0  0  0  0  0  0  0  0  0  0
    3.7057    0.4515    4.8276 C   0  0  0  0  0  0  0  0  0  0  0  0
    4.5498    0.5376    3.7434 C   0  0  0  0  0  0  0  0  0  0  0  0
    4.6179   -0.9754    2.8520 S   0  0  0  0  0  0  0  0  0  0  0  0
    5.3121    1.6357    3.2386 C   0  0  0  0  0  0  0  0  0  0  0  0
    5.0975    2.9586    3.4024 C   0  0  0  0  0  0  0  0  0  0  0  0
    4.0132    3.6394    4.0435 C   0  0  0  0  0  0  0  0  0  0  0  0
    4.3899    5.1407    4.8672 S   0  0  0  0  0  0  0  0  0  0  0  0
    2.7720    5.3551    5.4166 C   0  0  0  0  0  0  0  0  0  0  0  0
    1.9786    4.3533    4.9645 C   0  0  0  0  0  0  0  0  0  0  0  0
    2.6585    3.3806    4.1519 C   0  0  0  0  0  0  0  0  0  0  0  0
    1.7277    2.4235    3.6815 C   0  0  0  0  0  0  0  0  0  0  0  0
    0.4400    2.5954    4.1819 C   0  0  0  0  0  0  0  0  0  0  0  0
    0.2771    4.0101    5.2003 S   0  0  0  0  0  0  0  0  0  0  0  0
   -0.4619    1.6021    3.7974 C   0  0  0  0  0  0  0  0  0  0  0  0
    0.1270    0.6633    2.9750 C   0  0  0  0  0  0  0  0  0  0  0  0
    1.7913    1.0711    2.6170 S   0  0  0  0  0  0  0  0  0  0  0  0
   -0.4398   -0.5327    2.4590 C   0  0  0  0  0  0  0  0  0  0  0  0
    0.2844   -1.4751    1.8130 C   0  0  0  0  0  0  0  0  0  0  0  0
   -0.2208   -2.6898    1.2954 C   0  0  0  0  0  0  0  0  0  0  0  0
   -1.8396   -3.2287    1.6859 S   0  0  0  0  0  0  0  0  0  0  0  0
   -1.5309   -4.7830    0.9698 C   0  0  0  0  0  0  0  0  0  0  0  0
   -2.5846   -5.6120    0.9754 O   0  0  0  0  0  0  0  0  0  0  0  0
   -2.6297   -6.7178    0.0912 C   0  0  0  0  0  0  0  0  0  0  0  0
   -0.2755   -4.8684    0.4345 C   0  0  0  0  0  0  0  0  0  0  0  0
    0.3265   -6.0731   -0.1954 C   0  0  0  0  0  0  0  0  0  0  0  0
    0.7283   -6.0856   -1.3335 O   0  0  0  0  0  0  0  0  0  0  0  0
    0.5035   -7.2396    0.7478 C   0  0  0  0  0  0  0  0  0  0  0  0
    0.4646   -3.6449    0.5619 C   0  0  0  0  0  0  0  0  0  0  0  0
    1.7939   -3.5385    0.0185 C   0  0  0  0  0  0  0  0  0  0  0  0
    2.4892   -2.4807   -0.4523 C   0  0  0  0  0  0  0  0  0  0  0  0
    2.1730   -1.0901   -0.5979 C   0  0  0  0  0  0  0  0  0  0  0  0
    3.5521   -0.0168   -0.4171 S   0  0  0  0  0  0  0  0  0  0  0  0
    2.5427    1.3829   -0.5604 C   0  0  0  0  0  0  0  0  0  0  0  0
    3.1952    2.5343   -0.3609 O   0  0  0  0  0  0  0  0  0  0  0  0
    2.4877    3.7111   -0.0358 C   0  0  0  0  0  0  0  0  0  0  0  0
    1.2186    1.0573   -0.7339 C   0  0  0  0  0  0  0  0  0  0  0  0
    0.1721    2.0773   -0.9562 C   0  0  0  0  0  0  0  0  0  0  0  0
    0.3270    2.9805   -1.7520 O   0  0  0  0  0  0  0  0  0  0  0  0
   -1.0745    1.9937   -0.1067 C   0  0  0  0  0  0  0  0  0  0  0  0
    1.0090   -0.3698   -0.7982 C   0  0  0  0  0  0  0  0  0  0  0  0
   -0.2590   -0.9077   -1.2086 C   0  0  0  0  0  0  0  0  0  0  0  0
   -0.4612   -2.0746   -1.8491 C   0  0  0  0  0  0  0  0  0  0  0  0
   -1.7456   -2.5489   -2.2714 C   0  0  0  0  0  0  0  0  0  0  0  0
   -1.9483   -4.2833   -2.3556 S   0  0  0  0  0  0  0  0  0  0  0  0
   -3.6432   -4.1145   -2.6880 C   0  0  0  0  0  0  0  0  0  0  0  0
   -4.2932   -5.2882   -2.7383 O   0  0  0  0  0  0  0  0  0  0  0  0
   -5.6991   -5.3143   -2.8605 C   0  0  0  0  0  0  0  0  0  0  0  0
   -4.0401   -2.8024   -2.7269 C   0  0  0  0  0  0  0  0  0  0  0  0
   -5.4177   -2.3343   -3.0093 C   0  0  0  0  0  0  0  0  0  0  0  0
   -6.0379   -2.6794   -3.9900 O   0  0  0  0  0  0  0  0  0  0  0  0
   -6.0253   -1.4236   -1.9651 C   0  0  0  0  0  0  0  0  0  0  0  0
   -2.9355   -1.8959   -2.5390 C   0  0  0  0  0  0  0  0  0  0  0  0
   -3.0638   -0.4860   -2.8261 C   0  0  0  0  0  0  0  0  0  0  0  0
   -2.0872    0.2652   -3.3696 C   0  0  0  0  0  0  0  0  0  0  0  0
   -2.1878    1.6542   -3.6581 C   0  0  0  0  0  0  0  0  0  0  0  0
   -3.5955    2.5691   -3.1507 S   0  0  0  0  0  0  0  0  0  0  0  0
   -2.8686    4.0481   -3.6872 C   0  0  0  0  0  0  0  0  0  0  0  0
   -3.4914    5.2118   -3.5977 O   0  0  0  0  0  0  0  0  0  0  0  0
   -4.7832    5.2280   -3.0405 C   0  0  0  0  0  0  0  0  0  0  0  0
   -1.6166    3.8528   -4.2457 C   0  0  0  0  0  0  0  0  0  0  0  0
   -0.8884    5.0034   -4.8056 C   0  0  0  0  0  0  0  0  0  0  0  0
   -1.2173    6.1440   -4.5620 O   0  0  0  0  0  0  0  0  0  0  0  0
    0.2691    4.7088   -5.7299 C   0  0  0  0  0  0  0  0  0  0  0  0
   -1.2326    2.4765   -4.2184 C   0  0  0  0  0  0  0  0  0  0  0  0
    0.0619    1.9567   -4.6470 C   0  0  0  0  0  0  0  0  0  0  0  0
    0.2276    0.9014   -5.4313 C   0  0  0  0  0  0  0  0  0  0  0  0
    3.2190   -4.3032    2.3028 H   0  0  0  0  0  0  0  0  0  0  0  0
    0.0934   -4.1909    5.6050 H   0  0  0  0  0  0  0  0  0  0  0  0
    3.5594    1.2466    5.5344 H   0  0  0  0  0  0  0  0  0  0  0  0
    6.1599    1.3476    2.6303 H   0  0  0  0  0  0  0  0  0  0  0  0
    5.8683    3.6250    3.0341 H   0  0  0  0  0  0  0  0  0  0  0  0
    2.5179    6.1912    6.0348 H   0  0  0  0  0  0  0  0  0  0  0  0
   -1.4831    1.5459    4.1255 H   0  0  0  0  0  0  0  0  0  0  0  0
   -1.4985   -0.6829    2.6270 H   0  0  0  0  0  0  0  0  0  0  0  0
    1.3474   -1.3245    1.6908 H   0  0  0  0  0  0  0  0  0  0  0  0
   -2.3581   -7.6349    0.6192 H   0  0  0  0  0  0  0  0  0  0  0  0
   -1.9724   -6.5783   -0.7670 H   0  0  0  0  0  0  0  0  0  0  0  0
   -3.6612   -6.7944   -0.2536 H   0  0  0  0  0  0  0  0  0  0  0  0
    0.4857   -8.1790    0.2009 H   0  0  0  0  0  0  0  0  0  0  0  0
    1.4878   -7.1332    1.2050 H   0  0  0  0  0  0  0  0  0  0  0  0
   -0.2298   -7.2354    1.5476 H   0  0  0  0  0  0  0  0  0  0  0  0
    2.2933   -4.4948   -0.0768 H   0  0  0  0  0  0  0  0  0  0  0  0
    3.5152   -2.6908   -0.7346 H   0  0  0  0  0  0  0  0  0  0  0  0
    3.2396    4.4079    0.3310 H   0  0  0  0  0  0  0  0  0  0  0  0
    1.7474    3.5173    0.7461 H   0  0  0  0  0  0  0  0  0  0  0  0
    1.9812    4.1305   -0.9094 H   0  0  0  0  0  0  0  0  0  0  0  0
   -1.0241    1.1974    0.6285 H   0  0  0  0  0  0  0  0  0  0  0  0
   -1.9473    1.8645   -0.7447 H   0  0  0  0  0  0  0  0  0  0  0  0
   -1.1929    2.9514    0.4005 H   0  0  0  0  0  0  0  0  0  0  0  0
   -1.1117   -0.2681   -1.0559 H   0  0  0  0  0  0  0  0  0  0  0  0
    0.3613   -2.7520   -2.0267 H   0  0  0  0  0  0  0  0  0  0  0  0
   -5.9725   -6.3669   -2.8114 H   0  0  0  0  0  0  0  0  0  0  0  0
   -6.0308   -4.8846   -3.8088 H   0  0  0  0  0  0  0  0  0  0  0  0
   -6.1714   -4.7690   -2.0376 H   0  0  0  0  0  0  0  0  0  0  0  0
   -5.3451   -1.2285   -1.1420 H   0  0  0  0  0  0  0  0  0  0  0  0
   -6.9239   -1.9087   -1.5843 H   0  0  0  0  0  0  0  0  0  0  0  0
   -6.3434   -0.4904   -2.4266 H   0  0  0  0  0  0  0  0  0  0  0  0
   -4.0361   -0.0385   -2.6804 H   0  0  0  0  0  0  0  0  0  0  0  0
   -1.1301   -0.1813   -3.5975 H   0  0  0  0  0  0  0  0  0  0  0  0
   -5.4718    4.6092   -3.6258 H   0  0  0  0  0  0  0  0  0  0  0  0
   -5.1081    6.2658   -3.0614 H   0  0  0  0  0  0  0  0  0  0  0  0
   -4.7697    4.8624   -2.0082 H   0  0  0  0  0  0  0  0  0  0  0  0
    1.1619    4.5339   -5.1330 H   0  0  0  0  0  0  0  0  0  0  0  0
    0.4457    5.5820   -6.3539 H   0  0  0  0  0  0  0  0  0  0  0  0
    0.0812    3.8353   -6.3469 H   0  0  0  0  0  0  0  0  0  0  0  0
    0.9165    2.4810   -4.2432 H   0  0  0  0  0  0  0  0  0  0  0  0
   -0.6067    0.3786   -5.8698 H   0  0  0  0  0  0  0  0  0  0  0  0
    1.2086    0.5421   -5.6913 H   0  0  0  0  0  0  0  0  0  0  0  0
  1  2  1  0  0  0  0
  2  3  1  0  0  0  0
  3  4  2  0  0  0  0
  4  5  1  0  0  0  0
  5  6  1  0  0  0  0
  6  7  2  0  0  0  0
  7  8  1  0  0  0  0
  7  9  1  0  0  0  0
  9 10  2  0  0  0  0
 10 11  1  0  0  0  0
 10 12  1  0  0  0  0
 12 13  2  0  0  0  0
 13 14  1  0  0  0  0
 14 15  1  0  0  0  0
 15 16  1  0  0  0  0
 16 17  2  0  0  0  0
 17 18  1  0  0  0  0
 18 19  1  0  0  0  0
 19 20  2  0  0  0  0
 20 21  1  0  0  0  0
 20 22  1  0  0  0  0
 22 23  2  0  0  0  0
 23 24  1  0  0  0  0
 23 25  1  0  0  0  0
 25 26  2  0  0  0  0
 26 27  1  0  0  0  0
 27 28  1  0  0  0  0
 28 29  1  0  0  0  0
 29 30  1  0  0  0  0
 30 31  1  0  0  0  0
 29 32  2  0  0  0  0
 32 33  1  0  0  0  0
 33 34  2  0  0  0  0
 33 35  1  0  0  0  0
 32 36  1  0  0  0  0
 36 37  1  0  0  0  0
 37 38  2  0  0  0  0
 38 39  1  0  0  0  0
 39 40  1  0  0  0  0
 40 41  1  0  0  0  0
 41 42  1  0  0  0  0
 42 43  1  0  0  0  0
 41 44  2  0  0  0  0
 44 45  1  0  0  0  0
 45 46  2  0  0  0  0
 45 47  1  0  0  0  0
 44 48  1  0  0  0  0
 48 49  1  0  0  0  0
 49 50  2  0  0  0  0
 50 51  1  0  0  0  0
 51 52  1  0  0  0  0
 52 53  1  0  0  0  0
 53 54  1  0  0  0  0
 54 55  1  0  0  0  0
 53 56  2  0  0  0  0
 56 57  1  0  0  0  0
 57 58  2  0  0  0  0
 57 59  1  0  0  0  0
 56 60  1  0  0  0  0
 60 61  1  0  0  0  0
 61 62  2  0  0  0  0
 62 63  1  0  0  0  0
 63 64  1  0  0  0  0
 64 65  1  0  0  0  0
 65 66  1  0  0  0  0
 66 67  1  0  0  0  0
 65 68  2  0  0  0  0
 68 69  1  0  0  0  0
 69 70  2  0  0  0  0
 69 71  1  0  0  0  0
 68 72  1  0  0  0  0
 72 73  1  0  0  0  0
 73 74  2  0  0  0  0
  5  1  2  0  0  0  0
 11  6  1  0  0  0  0
 18 14  2  0  0  0  0
 24 19  1  0  0  0  0
 36 27  2  0  0  0  0
 48 39  2  0  0  0  0
 60 51  2  0  0  0  0
 72 63  2  0  0  0  0
  8  4  1  0  0  0  0
 21 17  1  0  0  0  0
  1 75  1  0  0  0  0
  3 76  1  0  0  0  0
  9 77  1  0  0  0  0
 12 78  1  0  0  0  0
 13 79  1  0  0  0  0
 16 80  1  0  0  0  0
 22 81  1  0  0  0  0
 25 82  1  0  0  0  0
 26 83  1  0  0  0  0
 31 84  1  0  0  0  0
 31 85  1  0  0  0  0
 31 86  1  0  0  0  0
 35 87  1  0  0  0  0
 35 88  1  0  0  0  0
 35 89  1  0  0  0  0
 37 90  1  0  0  0  0
 38 91  1  0  0  0  0
 43 92  1  0  0  0  0
 43 93  1  0  0  0  0
 43 94  1  0  0  0  0
 47 95  1  0  0  0  0
 47 96  1  0  0  0  0
 47 97  1  0  0  0  0
 49 98  1  0  0  0  0
 50 99  1  0  0  0  0
 55100  1  0  0  0  0
 55101  1  0  0  0  0
 55102  1  0  0  0  0
 59103  1  0  0  0  0
 59104  1  0  0  0  0
 59105  1  0  0  0  0
 61106  1  0  0  0  0
 62107  1  0  0  0  0
 67108  1  0  0  0  0
 67109  1  0  0  0  0
 67110  1  0  0  0  0
 71111  1  0  0  0  0
 71112  1  0  0  0  0
 71113  1  0  0  0  0
 73114  1  0  0  0  0
 74115  1  0  0  0  0
 74116  1  0  0  0  0
M  END
