
  xtb     03042200493D
 energy: -448.234628923639 gnorm: 0.000448921857 xtb: 6.4.1 (unknown)
266293  0     0  0            999 V2000
   -0.7892   -1.5669   11.1308 C   0  0  0  0  0  0  0  0  0  0  0  0
   -0.0859   -0.3703   11.2606 C   0  0  0  0  0  0  0  0  0  0  0  0
    0.6619    0.0798   10.1913 C   0  0  0  0  0  0  0  0  0  0  0  0
    0.7623   -0.7093    9.0200 C   0  0  0  0  0  0  0  0  0  0  0  0
    1.7066   -0.0623    8.1399 C   0  0  0  0  0  0  0  0  0  0  0  0
    2.2019    1.0372    8.7500 C   0  0  0  0  0  0  0  0  0  0  0  0
    1.5477    1.2365   10.0240 C   0  0  0  0  0  0  0  0  0  0  0  0
    1.6747    2.3185   10.8500 C   0  0  0  0  0  0  0  0  0  0  0  0
    0.7424    2.7050   11.8924 C   0  0  0  0  0  0  0  0  0  0  0  0
    1.1720    3.8237   12.5123 C   0  0  0  0  0  0  0  0  0  0  0  0
    2.4408    4.2201   11.9383 C   0  0  0  0  0  0  0  0  0  0  0  0
    2.7433    3.3211   10.8873 C   0  0  0  0  0  0  0  0  0  0  0  0
    3.9328    3.4629   10.1991 C   0  0  0  0  0  0  0  0  0  0  0  0
    4.7801    4.5171   10.5253 C   0  0  0  0  0  0  0  0  0  0  0  0
    4.4706    5.3988   11.5449 C   0  0  0  0  0  0  0  0  0  0  0  0
    3.2970    5.2482   12.2746 C   0  0  0  0  0  0  0  0  0  0  0  0
    0.0343   -1.8913    8.8720 C   0  0  0  0  0  0  0  0  0  0  0  0
   -0.7491   -2.2986    9.9642 C   0  0  0  0  0  0  0  0  0  0  0  0
    0.0694   -2.6185    7.6263 C   0  0  0  0  0  0  0  0  0  0  0  0
   -0.8728   -3.4733    7.1915 C   0  0  0  0  0  0  0  0  0  0  0  0
   -0.8850   -4.0310    5.8768 C   0  0  0  0  0  0  0  0  0  0  0  0
   -1.9534   -4.5930    5.2421 C   0  0  0  0  0  0  0  0  0  0  0  0
   -1.7226   -4.8895    3.8739 C   0  0  0  0  0  0  0  0  0  0  0  0
   -2.6444   -5.3401    2.9122 C   0  0  0  0  0  0  0  0  0  0  0  0
   -4.0754   -5.4717    3.1958 C   0  0  0  0  0  0  0  0  0  0  0  0
   -4.7522   -4.5019    3.9363 C   0  0  0  0  0  0  0  0  0  0  0  0
   -6.1183   -4.5710    4.1061 C   0  0  0  0  0  0  0  0  0  0  0  0
   -6.8604   -5.6078    3.5510 C   0  0  0  0  0  0  0  0  0  0  0  0
   -8.6156   -5.6193    3.7889 S   0  0  0  0  0  0  0  0  0  0  0  0
   -9.2121   -5.8123    2.0680 C   0  0  0  0  0  0  0  0  0  0  0  0
   -8.7090   -4.6959    1.1749 C   0  0  0  0  0  0  0  0  0  0  0  0
   -6.1705   -6.5940    2.8537 C   0  0  0  0  0  0  0  0  0  0  0  0
   -6.8286   -7.6539    2.3392 F   0  0  0  0  0  0  0  0  0  0  0  0
   -4.8062   -6.5301    2.6625 C   0  0  0  0  0  0  0  0  0  0  0  0
   -2.1579   -5.5150    1.6217 C   0  0  0  0  0  0  0  0  0  0  0  0
   -0.8046   -5.2975    1.2724 C   0  0  0  0  0  0  0  0  0  0  0  0
    0.1195   -4.8566    2.2326 C   0  0  0  0  0  0  0  0  0  0  0  0
    1.5196   -4.6208    1.8607 C   0  0  0  0  0  0  0  0  0  0  0  0
    2.1658   -3.4245    2.1519 C   0  0  0  0  0  0  0  0  0  0  0  0
    3.4783   -3.2113    1.7753 C   0  0  0  0  0  0  0  0  0  0  0  0
    4.1958   -4.1932    1.1031 C   0  0  0  0  0  0  0  0  0  0  0  0
    5.8527   -4.0299    0.5265 S   0  0  0  0  0  0  0  0  0  0  0  0
    6.5302   -2.6530    1.5171 C   0  0  0  0  0  0  0  0  0  0  0  0
    6.6706   -3.0149    2.9832 C   0  0  0  0  0  0  0  0  0  0  0  0
    3.5358   -5.3897    0.8185 C   0  0  0  0  0  0  0  0  0  0  0  0
    2.2274   -5.6111    1.1804 C   0  0  0  0  0  0  0  0  0  0  0  0
    4.1987   -6.3629    0.1635 F   0  0  0  0  0  0  0  0  0  0  0  0
   -0.3810   -4.6175    3.5025 C   0  0  0  0  0  0  0  0  0  0  0  0
    0.5139   -3.9195    4.8254 S   0  0  0  0  0  0  0  0  0  0  0  0
   -0.6084   -5.3199   -0.1351 C   0  0  0  0  0  0  0  0  0  0  0  0
   -1.7586   -5.4913   -0.8359 C   0  0  0  0  0  0  0  0  0  0  0  0
   -3.1367   -5.7935    0.1985 S   0  0  0  0  0  0  0  0  0  0  0  0
   -1.8957   -5.0849   -2.2200 C   0  0  0  0  0  0  0  0  0  0  0  0
   -2.4027   -3.8690   -2.5491 C   0  0  0  0  0  0  0  0  0  0  0  0
   -2.0455   -3.4411   -3.8540 C   0  0  0  0  0  0  0  0  0  0  0  0
   -2.1155   -2.1358   -4.3620 C   0  0  0  0  0  0  0  0  0  0  0  0
   -2.5170   -0.9986   -3.5265 C   0  0  0  0  0  0  0  0  0  0  0  0
   -1.9885   -0.8609   -2.2418 C   0  0  0  0  0  0  0  0  0  0  0  0
   -2.2843    0.2428   -1.4781 C   0  0  0  0  0  0  0  0  0  0  0  0
   -3.1038    1.2672   -1.9512 C   0  0  0  0  0  0  0  0  0  0  0  0
   -3.4178    2.5901   -0.8258 S   0  0  0  0  0  0  0  0  0  0  0  0
   -3.7614    4.0429   -1.8940 C   0  0  0  0  0  0  0  0  0  0  0  0
   -3.6870    5.3010   -1.0521 C   0  0  0  0  0  0  0  0  0  0  0  0
   -3.6275    1.1152   -3.2309 C   0  0  0  0  0  0  0  0  0  0  0  0
   -4.4575    2.0422   -3.7604 F   0  0  0  0  0  0  0  0  0  0  0  0
   -3.3378    0.0126   -4.0120 C   0  0  0  0  0  0  0  0  0  0  0  0
   -1.5510   -1.9286   -5.6100 C   0  0  0  0  0  0  0  0  0  0  0  0
   -0.9069   -2.9455   -6.3545 C   0  0  0  0  0  0  0  0  0  0  0  0
   -0.8040   -4.2432   -5.8255 C   0  0  0  0  0  0  0  0  0  0  0  0
   -0.0144   -5.2927   -6.4817 C   0  0  0  0  0  0  0  0  0  0  0  0
    1.2922   -5.0548   -6.9022 C   0  0  0  0  0  0  0  0  0  0  0  0
    2.0367   -6.0448   -7.5115 C   0  0  0  0  0  0  0  0  0  0  0  0
    1.4987   -7.3081   -7.7301 C   0  0  0  0  0  0  0  0  0  0  0  0
    2.3557   -8.6469   -8.4945 S   0  0  0  0  0  0  0  0  0  0  0  0
    3.5817   -7.8132   -9.5635 C   0  0  0  0  0  0  0  0  0  0  0  0
    2.9232   -7.0085  -10.6675 C   0  0  0  0  0  0  0  0  0  0  0  0
    0.2015   -7.5431   -7.2731 C   0  0  0  0  0  0  0  0  0  0  0  0
   -0.5497   -6.5664   -6.6574 C   0  0  0  0  0  0  0  0  0  0  0  0
   -0.3445   -8.7617   -7.4477 F   0  0  0  0  0  0  0  0  0  0  0  0
   -1.3632   -4.4513   -4.5716 C   0  0  0  0  0  0  0  0  0  0  0  0
   -1.0936   -5.8604   -3.5654 S   0  0  0  0  0  0  0  0  0  0  0  0
   -0.2291   -2.4122   -7.4839 C   0  0  0  0  0  0  0  0  0  0  0  0
   -0.2545   -1.0522   -7.5584 C   0  0  0  0  0  0  0  0  0  0  0  0
   -1.2933   -0.3616   -6.3226 S   0  0  0  0  0  0  0  0  0  0  0  0
    0.5928   -0.1754   -8.3345 C   0  0  0  0  0  0  0  0  0  0  0  0
    1.5494   -0.7128   -9.2134 C   0  0  0  0  0  0  0  0  0  0  0  0
    2.4769    0.1235   -9.7874 C   0  0  0  0  0  0  0  0  0  0  0  0
    2.4217    1.5206   -9.5614 C   0  0  0  0  0  0  0  0  0  0  0  0
    3.4469    2.1339  -10.3684 C   0  0  0  0  0  0  0  0  0  0  0  0
    4.0789    1.1772  -11.0875 C   0  0  0  0  0  0  0  0  0  0  0  0
    3.5702   -0.1291  -10.7316 C   0  0  0  0  0  0  0  0  0  0  0  0
    4.1080   -1.3347  -11.0883 C   0  0  0  0  0  0  0  0  0  0  0  0
    3.9485   -2.5866  -10.3718 C   0  0  0  0  0  0  0  0  0  0  0  0
    4.7578   -3.5291  -10.8982 C   0  0  0  0  0  0  0  0  0  0  0  0
    5.4442   -2.9747  -12.0458 C   0  0  0  0  0  0  0  0  0  0  0  0
    5.0529   -1.6204  -12.1704 C   0  0  0  0  0  0  0  0  0  0  0  0
    5.4995   -0.8803  -13.2480 C   0  0  0  0  0  0  0  0  0  0  0  0
    6.3798   -1.4696  -14.1506 C   0  0  0  0  0  0  0  0  0  0  0  0
    6.7925   -2.7815  -13.9977 C   0  0  0  0  0  0  0  0  0  0  0  0
    6.3152   -3.5544  -12.9453 C   0  0  0  0  0  0  0  0  0  0  0  0
    1.4853    2.0701   -8.6856 C   0  0  0  0  0  0  0  0  0  0  0  0
    0.5704    1.1971   -8.0979 C   0  0  0  0  0  0  0  0  0  0  0  0
    1.4406    3.5054   -8.4538 C   0  0  0  0  0  0  0  0  0  0  0  0
    1.2110    4.1812   -7.3161 C   0  0  0  0  0  0  0  0  0  0  0  0
    1.0390    3.7489   -5.9558 C   0  0  0  0  0  0  0  0  0  0  0  0
    0.6216    4.5850   -4.9598 C   0  0  0  0  0  0  0  0  0  0  0  0
    0.5392    3.9843   -3.6784 C   0  0  0  0  0  0  0  0  0  0  0  0
    0.1679    4.5967   -2.4687 C   0  0  0  0  0  0  0  0  0  0  0  0
   -0.2811    5.9923   -2.4105 C   0  0  0  0  0  0  0  0  0  0  0  0
    0.2297    6.8743   -1.4594 C   0  0  0  0  0  0  0  0  0  0  0  0
   -0.2137    8.1776   -1.3992 C   0  0  0  0  0  0  0  0  0  0  0  0
   -1.1960    8.6528   -2.2665 C   0  0  0  0  0  0  0  0  0  0  0  0
   -1.7246   10.3265   -2.0524 S   0  0  0  0  0  0  0  0  0  0  0  0
   -1.9840   10.9388   -3.7590 C   0  0  0  0  0  0  0  0  0  0  0  0
   -0.7309   10.8185   -4.6025 C   0  0  0  0  0  0  0  0  0  0  0  0
   -1.7199    7.7527   -3.1890 C   0  0  0  0  0  0  0  0  0  0  0  0
   -2.7133    8.1186   -4.0313 F   0  0  0  0  0  0  0  0  0  0  0  0
   -1.2651    6.4534   -3.2802 C   0  0  0  0  0  0  0  0  0  0  0  0
    0.2049    3.8011   -1.3325 C   0  0  0  0  0  0  0  0  0  0  0  0
    0.5565    2.4315   -1.3717 C   0  0  0  0  0  0  0  0  0  0  0  0
    0.9936    1.8306   -2.5688 C   0  0  0  0  0  0  0  0  0  0  0  0
    1.4596    0.4421   -2.5509 C   0  0  0  0  0  0  0  0  0  0  0  0
    2.2217   -0.0367   -1.4793 C   0  0  0  0  0  0  0  0  0  0  0  0
    2.5478   -1.3691   -1.3798 C   0  0  0  0  0  0  0  0  0  0  0  0
    2.1795   -2.2880   -2.3655 C   0  0  0  0  0  0  0  0  0  0  0  0
    2.5145   -3.9787   -2.0029 S   0  0  0  0  0  0  0  0  0  0  0  0
    2.5239   -4.8772   -3.6017 C   0  0  0  0  0  0  0  0  0  0  0  0
    2.9514   -6.3071   -3.3385 C   0  0  0  0  0  0  0  0  0  0  0  0
    1.5310   -1.7737   -3.4827 C   0  0  0  0  0  0  0  0  0  0  0  0
    1.1539   -0.4494   -3.5725 C   0  0  0  0  0  0  0  0  0  0  0  0
    1.2383   -2.5675   -4.5378 F   0  0  0  0  0  0  0  0  0  0  0  0
    0.9529    2.6278   -3.7075 C   0  0  0  0  0  0  0  0  0  0  0  0
    1.4089    2.1543   -5.3274 S   0  0  0  0  0  0  0  0  0  0  0  0
    0.3397    1.8109   -0.1134 C   0  0  0  0  0  0  0  0  0  0  0  0
   -0.0928    2.6580    0.8581 C   0  0  0  0  0  0  0  0  0  0  0  0
   -0.2522    4.2980    0.2813 S   0  0  0  0  0  0  0  0  0  0  0  0
   -0.4860    2.2238    2.1731 C   0  0  0  0  0  0  0  0  0  0  0  0
   -1.2386    1.1145    2.3888 C   0  0  0  0  0  0  0  0  0  0  0  0
   -1.4634    0.8282    3.7584 C   0  0  0  0  0  0  0  0  0  0  0  0
   -2.2791   -0.1845    4.2828 C   0  0  0  0  0  0  0  0  0  0  0  0
   -3.0054   -1.0570    3.3499 C   0  0  0  0  0  0  0  0  0  0  0  0
   -2.3314   -1.7525    2.3477 C   0  0  0  0  0  0  0  0  0  0  0  0
   -3.0298   -2.4072    1.3558 C   0  0  0  0  0  0  0  0  0  0  0  0
   -4.4211   -2.4168    1.3417 C   0  0  0  0  0  0  0  0  0  0  0  0
   -5.2493   -3.2640    0.0256 S   0  0  0  0  0  0  0  0  0  0  0  0
   -6.4979   -2.0384   -0.5169 C   0  0  0  0  0  0  0  0  0  0  0  0
   -5.8479   -0.7800   -1.0544 C   0  0  0  0  0  0  0  0  0  0  0  0
   -5.0800   -1.7886    2.3933 C   0  0  0  0  0  0  0  0  0  0  0  0
   -6.4261   -1.8157    2.4718 F   0  0  0  0  0  0  0  0  0  0  0  0
   -4.3948   -1.1019    3.3755 C   0  0  0  0  0  0  0  0  0  0  0  0
   -2.4117   -0.2172    5.6599 C   0  0  0  0  0  0  0  0  0  0  0  0
   -1.7532    0.6965    6.5212 C   0  0  0  0  0  0  0  0  0  0  0  0
   -0.9491    1.7201    5.9927 C   0  0  0  0  0  0  0  0  0  0  0  0
   -0.2995    2.7297    6.8355 C   0  0  0  0  0  0  0  0  0  0  0  0
   -0.9898    3.3949    7.8444 C   0  0  0  0  0  0  0  0  0  0  0  0
   -0.3938    4.4001    8.5819 C   0  0  0  0  0  0  0  0  0  0  0  0
    0.9195    4.7842    8.3343 C   0  0  0  0  0  0  0  0  0  0  0  0
    1.7718    6.0993    9.1246 S   0  0  0  0  0  0  0  0  0  0  0  0
    0.5418    6.7498   10.3126 C   0  0  0  0  0  0  0  0  0  0  0  0
    1.1476    7.9430   11.0263 C   0  0  0  0  0  0  0  0  0  0  0  0
    1.6099    4.0862    7.3419 C   0  0  0  0  0  0  0  0  0  0  0  0
    1.0284    3.0852    6.6010 C   0  0  0  0  0  0  0  0  0  0  0  0
    2.8991    4.4024    7.0978 F   0  0  0  0  0  0  0  0  0  0  0  0
   -0.8284    1.7626    4.6071 C   0  0  0  0  0  0  0  0  0  0  0  0
    0.0038    2.9867    3.6710 S   0  0  0  0  0  0  0  0  0  0  0  0
   -2.0432    0.4122    7.8897 C   0  0  0  0  0  0  0  0  0  0  0  0
   -2.8827   -0.6296    8.0482 C   0  0  0  0  0  0  0  0  0  0  0  0
   -3.3758   -1.3573    6.5580 S   0  0  0  0  0  0  0  0  0  0  0  0
   -1.3738   -1.9266   11.9652 H   0  0  0  0  0  0  0  0  0  0  0  0
   -0.1165    0.1594   12.1990 H   0  0  0  0  0  0  0  0  0  0  0  0
    1.9741   -0.4109    7.1590 H   0  0  0  0  0  0  0  0  0  0  0  0
    2.9078    1.7196    8.3208 H   0  0  0  0  0  0  0  0  0  0  0  0
   -0.1950    2.2133   12.0690 H   0  0  0  0  0  0  0  0  0  0  0  0
    0.6721    4.3551   13.3033 H   0  0  0  0  0  0  0  0  0  0  0  0
    4.2272    2.7809    9.4186 H   0  0  0  0  0  0  0  0  0  0  0  0
    5.6975    4.6443    9.9706 H   0  0  0  0  0  0  0  0  0  0  0  0
    5.1496    6.2046   11.7822 H   0  0  0  0  0  0  0  0  0  0  0  0
    3.0659    5.9131   13.0953 H   0  0  0  0  0  0  0  0  0  0  0  0
   -1.3010   -3.2241    9.9010 H   0  0  0  0  0  0  0  0  0  0  0  0
    0.8868   -2.3829    6.9575 H   0  0  0  0  0  0  0  0  0  0  0  0
   -1.7386   -3.7078    7.7951 H   0  0  0  0  0  0  0  0  0  0  0  0
   -2.8864   -4.7782    5.7419 H   0  0  0  0  0  0  0  0  0  0  0  0
   -4.2106   -3.6610    4.3400 H   0  0  0  0  0  0  0  0  0  0  0  0
   -6.6394   -3.8041    4.6575 H   0  0  0  0  0  0  0  0  0  0  0  0
   -8.9160   -6.7930    1.7014 H   0  0  0  0  0  0  0  0  0  0  0  0
  -10.2970   -5.7818    2.1679 H   0  0  0  0  0  0  0  0  0  0  0  0
   -7.6271   -4.7458    1.0636 H   0  0  0  0  0  0  0  0  0  0  0  0
   -8.9681   -3.7266    1.5962 H   0  0  0  0  0  0  0  0  0  0  0  0
   -9.1605   -4.7828    0.1883 H   0  0  0  0  0  0  0  0  0  0  0  0
   -4.3225   -7.3252    2.1169 H   0  0  0  0  0  0  0  0  0  0  0  0
    1.6314   -2.6354    2.6588 H   0  0  0  0  0  0  0  0  0  0  0  0
    3.9364   -2.2624    2.0056 H   0  0  0  0  0  0  0  0  0  0  0  0
    7.5061   -2.4733    1.0660 H   0  0  0  0  0  0  0  0  0  0  0  0
    5.9115   -1.7696    1.3630 H   0  0  0  0  0  0  0  0  0  0  0  0
    7.1156   -2.1850    3.5289 H   0  0  0  0  0  0  0  0  0  0  0  0
    7.3106   -3.8871    3.0936 H   0  0  0  0  0  0  0  0  0  0  0  0
    5.7023   -3.2423    3.4243 H   0  0  0  0  0  0  0  0  0  0  0  0
    1.7689   -6.5591    0.9465 H   0  0  0  0  0  0  0  0  0  0  0  0
    0.3349   -5.0969   -0.6022 H   0  0  0  0  0  0  0  0  0  0  0  0
   -2.9689   -3.2709   -1.8582 H   0  0  0  0  0  0  0  0  0  0  0  0
   -1.3103   -1.6067   -1.8563 H   0  0  0  0  0  0  0  0  0  0  0  0
   -1.8721    0.3435   -0.4882 H   0  0  0  0  0  0  0  0  0  0  0  0
   -4.7523    3.9244   -2.3285 H   0  0  0  0  0  0  0  0  0  0  0  0
   -3.0066    4.0428   -2.6793 H   0  0  0  0  0  0  0  0  0  0  0  0
   -3.9050    6.1677   -1.6717 H   0  0  0  0  0  0  0  0  0  0  0  0
   -4.4134    5.2602   -0.2436 H   0  0  0  0  0  0  0  0  0  0  0  0
   -2.6960    5.4225   -0.6203 H   0  0  0  0  0  0  0  0  0  0  0  0
   -3.7826   -0.0527   -4.9929 H   0  0  0  0  0  0  0  0  0  0  0  0
    1.7412   -4.0920   -6.7140 H   0  0  0  0  0  0  0  0  0  0  0  0
    3.0508   -5.8289   -7.8087 H   0  0  0  0  0  0  0  0  0  0  0  0
    4.2415   -7.2081   -8.9426 H   0  0  0  0  0  0  0  0  0  0  0  0
    4.1578   -8.6415   -9.9759 H   0  0  0  0  0  0  0  0  0  0  0  0
    2.2495   -7.6412  -11.2406 H   0  0  0  0  0  0  0  0  0  0  0  0
    3.6783   -6.6091  -11.3420 H   0  0  0  0  0  0  0  0  0  0  0  0
    2.3505   -6.1788  -10.2576 H   0  0  0  0  0  0  0  0  0  0  0  0
   -1.5538   -6.7986   -6.3392 H   0  0  0  0  0  0  0  0  0  0  0  0
    0.3041   -3.0356   -8.1771 H   0  0  0  0  0  0  0  0  0  0  0  0
    1.5316   -1.7662   -9.4338 H   0  0  0  0  0  0  0  0  0  0  0  0
    3.6667    3.1861  -10.3851 H   0  0  0  0  0  0  0  0  0  0  0  0
    4.9134    1.3413  -11.7410 H   0  0  0  0  0  0  0  0  0  0  0  0
    3.3582   -2.6980   -9.4828 H   0  0  0  0  0  0  0  0  0  0  0  0
    4.8965   -4.5327  -10.5383 H   0  0  0  0  0  0  0  0  0  0  0  0
    5.1703    0.1327  -13.4174 H   0  0  0  0  0  0  0  0  0  0  0  0
    6.7427   -0.8913  -14.9876 H   0  0  0  0  0  0  0  0  0  0  0  0
    7.4784   -3.2137  -14.7112 H   0  0  0  0  0  0  0  0  0  0  0  0
    6.6133   -4.5878  -12.8415 H   0  0  0  0  0  0  0  0  0  0  0  0
   -0.1985    1.6033   -7.4580 H   0  0  0  0  0  0  0  0  0  0  0  0
    1.6272    4.1013   -9.3391 H   0  0  0  0  0  0  0  0  0  0  0  0
    1.1671    5.2624   -7.3968 H   0  0  0  0  0  0  0  0  0  0  0  0
    0.3847    5.6189   -5.1377 H   0  0  0  0  0  0  0  0  0  0  0  0
    0.9999    6.5423   -0.7809 H   0  0  0  0  0  0  0  0  0  0  0  0
    0.1955    8.8594   -0.6704 H   0  0  0  0  0  0  0  0  0  0  0  0
   -2.2572   11.9831   -3.6082 H   0  0  0  0  0  0  0  0  0  0  0  0
   -2.8269   10.4129   -4.2019 H   0  0  0  0  0  0  0  0  0  0  0  0
    0.1021   11.3296   -4.1244 H   0  0  0  0  0  0  0  0  0  0  0  0
   -0.9028   11.2662   -5.5793 H   0  0  0  0  0  0  0  0  0  0  0  0
   -0.4586    9.7745   -4.7466 H   0  0  0  0  0  0  0  0  0  0  0  0
   -1.7200    5.7990   -4.0081 H   0  0  0  0  0  0  0  0  0  0  0  0
    2.5730    0.6503   -0.7252 H   0  0  0  0  0  0  0  0  0  0  0  0
    3.0958   -1.7383   -0.5267 H   0  0  0  0  0  0  0  0  0  0  0  0
    3.2253   -4.3629   -4.2572 H   0  0  0  0  0  0  0  0  0  0  0  0
    1.5232   -4.8474   -4.0261 H   0  0  0  0  0  0  0  0  0  0  0  0
    3.9251   -6.3386   -2.8547 H   0  0  0  0  0  0  0  0  0  0  0  0
    2.2307   -6.8052   -2.6940 H   0  0  0  0  0  0  0  0  0  0  0  0
    3.0036   -6.8483   -4.2806 H   0  0  0  0  0  0  0  0  0  0  0  0
    0.5927   -0.1370   -4.4375 H   0  0  0  0  0  0  0  0  0  0  0  0
    0.4801    0.7608    0.0653 H   0  0  0  0  0  0  0  0  0  0  0  0
   -1.6717    0.5395    1.5926 H   0  0  0  0  0  0  0  0  0  0  0  0
   -1.2518   -1.7665    2.3384 H   0  0  0  0  0  0  0  0  0  0  0  0
   -2.4984   -2.9049    0.5604 H   0  0  0  0  0  0  0  0  0  0  0  0
   -7.0450   -2.5648   -1.2987 H   0  0  0  0  0  0  0  0  0  0  0  0
   -7.1734   -1.8314    0.3092 H   0  0  0  0  0  0  0  0  0  0  0  0
   -6.6120   -0.0987   -1.4229 H   0  0  0  0  0  0  0  0  0  0  0  0
   -5.2790   -0.2713   -0.2773 H   0  0  0  0  0  0  0  0  0  0  0  0
   -5.1715   -1.0201   -1.8724 H   0  0  0  0  0  0  0  0  0  0  0  0
   -4.9534   -0.5927    4.1453 H   0  0  0  0  0  0  0  0  0  0  0  0
   -2.0254    3.1543    8.0302 H   0  0  0  0  0  0  0  0  0  0  0  0
   -0.9698    4.8952    9.3462 H   0  0  0  0  0  0  0  0  0  0  0  0
   -0.3473    7.0420    9.7536 H   0  0  0  0  0  0  0  0  0  0  0  0
    0.3048    5.9505   11.0156 H   0  0  0  0  0  0  0  0  0  0  0  0
    1.3901    8.7284   10.3141 H   0  0  0  0  0  0  0  0  0  0  0  0
    0.4426    8.3369   11.7556 H   0  0  0  0  0  0  0  0  0  0  0  0
    2.0603    7.6501   11.5393 H   0  0  0  0  0  0  0  0  0  0  0  0
    1.6174    2.5798    5.8524 H   0  0  0  0  0  0  0  0  0  0  0  0
   -1.6188    0.9580    8.7118 H   0  0  0  0  0  0  0  0  0  0  0  0
   -3.2561   -1.0380    8.9666 H   0  0  0  0  0  0  0  0  0  0  0  0
  1  2  2  0  0  0  0
  2  3  1  0  0  0  0
  3  4  2  0  0  0  0
  4  5  1  0  0  0  0
  5  6  2  0  0  0  0
  6  7  1  0  0  0  0
  7  8  2  0  0  0  0
  8  9  1  0  0  0  0
  9 10  2  0  0  0  0
 10 11  1  0  0  0  0
 11 12  2  0  0  0  0
 12 13  1  0  0  0  0
 13 14  2  0  0  0  0
 14 15  1  0  0  0  0
 15 16  2  0  0  0  0
  4 17  1  0  0  0  0
 17 18  2  0  0  0  0
 17 19  1  0  0  0  0
 19 20  2  0  0  0  0
 20 21  1  0  0  0  0
 21 22  2  0  0  0  0
 22 23  1  0  0  0  0
 23 24  2  0  0  0  0
 24 25  1  0  0  0  0
 25 26  2  0  0  0  0
 26 27  1  0  0  0  0
 27 28  2  0  0  0  0
 28 29  1  0  0  0  0
 29 30  1  0  0  0  0
 30 31  1  0  0  0  0
 28 32  1  0  0  0  0
 32 33  1  0  0  0  0
 32 34  2  0  0  0  0
 24 35  1  0  0  0  0
 35 36  2  0  0  0  0
 36 37  1  0  0  0  0
 37 38  1  0  0  0  0
 38 39  2  0  0  0  0
 39 40  1  0  0  0  0
 40 41  2  0  0  0  0
 41 42  1  0  0  0  0
 42 43  1  0  0  0  0
 43 44  1  0  0  0  0
 41 45  1  0  0  0  0
 45 46  2  0  0  0  0
 45 47  1  0  0  0  0
 37 48  2  0  0  0  0
 48 49  1  0  0  0  0
 36 50  1  0  0  0  0
 50 51  2  0  0  0  0
 51 52  1  0  0  0  0
 51 53  1  0  0  0  0
 53 54  2  0  0  0  0
 54 55  1  0  0  0  0
 55 56  2  0  0  0  0
 56 57  1  0  0  0  0
 57 58  2  0  0  0  0
 58 59  1  0  0  0  0
 59 60  2  0  0  0  0
 60 61  1  0  0  0  0
 61 62  1  0  0  0  0
 62 63  1  0  0  0  0
 60 64  1  0  0  0  0
 64 65  1  0  0  0  0
 64 66  2  0  0  0  0
 56 67  1  0  0  0  0
 67 68  2  0  0  0  0
 68 69  1  0  0  0  0
 69 70  1  0  0  0  0
 70 71  2  0  0  0  0
 71 72  1  0  0  0  0
 72 73  2  0  0  0  0
 73 74  1  0  0  0  0
 74 75  1  0  0  0  0
 75 76  1  0  0  0  0
 73 77  1  0  0  0  0
 77 78  2  0  0  0  0
 77 79  1  0  0  0  0
 69 80  2  0  0  0  0
 80 81  1  0  0  0  0
 68 82  1  0  0  0  0
 82 83  2  0  0  0  0
 83 84  1  0  0  0  0
 83 85  1  0  0  0  0
 85 86  2  0  0  0  0
 86 87  1  0  0  0  0
 87 88  2  0  0  0  0
 88 89  1  0  0  0  0
 89 90  2  0  0  0  0
 90 91  1  0  0  0  0
 91 92  2  0  0  0  0
 92 93  1  0  0  0  0
 93 94  2  0  0  0  0
 94 95  1  0  0  0  0
 95 96  2  0  0  0  0
 96 97  1  0  0  0  0
 97 98  2  0  0  0  0
 98 99  1  0  0  0  0
 99100  2  0  0  0  0
 88101  1  0  0  0  0
101102  2  0  0  0  0
101103  1  0  0  0  0
103104  2  0  0  0  0
104105  1  0  0  0  0
105106  2  0  0  0  0
106107  1  0  0  0  0
107108  2  0  0  0  0
108109  1  0  0  0  0
109110  2  0  0  0  0
110111  1  0  0  0  0
111112  2  0  0  0  0
112113  1  0  0  0  0
113114  1  0  0  0  0
114115  1  0  0  0  0
112116  1  0  0  0  0
116117  1  0  0  0  0
116118  2  0  0  0  0
108119  1  0  0  0  0
119120  2  0  0  0  0
120121  1  0  0  0  0
121122  1  0  0  0  0
122123  2  0  0  0  0
123124  1  0  0  0  0
124125  2  0  0  0  0
125126  1  0  0  0  0
126127  1  0  0  0  0
127128  1  0  0  0  0
125129  1  0  0  0  0
129130  2  0  0  0  0
129131  1  0  0  0  0
121132  2  0  0  0  0
132133  1  0  0  0  0
120134  1  0  0  0  0
134135  2  0  0  0  0
135136  1  0  0  0  0
135137  1  0  0  0  0
137138  2  0  0  0  0
138139  1  0  0  0  0
139140  2  0  0  0  0
140141  1  0  0  0  0
141142  2  0  0  0  0
142143  1  0  0  0  0
143144  2  0  0  0  0
144145  1  0  0  0  0
145146  1  0  0  0  0
146147  1  0  0  0  0
144148  1  0  0  0  0
148149  1  0  0  0  0
148150  2  0  0  0  0
140151  1  0  0  0  0
151152  2  0  0  0  0
152153  1  0  0  0  0
153154  1  0  0  0  0
154155  2  0  0  0  0
155156  1  0  0  0  0
156157  2  0  0  0  0
157158  1  0  0  0  0
158159  1  0  0  0  0
159160  1  0  0  0  0
157161  1  0  0  0  0
161162  2  0  0  0  0
161163  1  0  0  0  0
153164  2  0  0  0  0
164165  1  0  0  0  0
152166  1  0  0  0  0
166167  2  0  0  0  0
167168  1  0  0  0  0
 18  1  1  0  0  0  0
 49 21  1  0  0  0  0
 81 53  1  0  0  0  0
102 85  1  0  0  0  0
133105  1  0  0  0  0
165137  1  0  0  0  0
  7  3  1  0  0  0  0
 12  8  1  0  0  0  0
 48 23  1  0  0  0  0
 80 55  1  0  0  0  0
 91 87  1  0  0  0  0
 96 92  1  0  0  0  0
132107  1  0  0  0  0
164139  1  0  0  0  0
 16 11  1  0  0  0  0
 34 25  1  0  0  0  0
 52 35  1  0  0  0  0
 66 57  1  0  0  0  0
 84 67  1  0  0  0  0
100 95  1  0  0  0  0
118109  1  0  0  0  0
136119  1  0  0  0  0
150141  1  0  0  0  0
168151  1  0  0  0  0
 46 38  1  0  0  0  0
 78 70  1  0  0  0  0
130122  1  0  0  0  0
162154  1  0  0  0  0
  1169  1  0  0  0  0
  2170  1  0  0  0  0
  5171  1  0  0  0  0
  6172  1  0  0  0  0
  9173  1  0  0  0  0
 10174  1  0  0  0  0
 13175  1  0  0  0  0
 14176  1  0  0  0  0
 15177  1  0  0  0  0
 16178  1  0  0  0  0
 18179  1  0  0  0  0
 19180  1  0  0  0  0
 20181  1  0  0  0  0
 22182  1  0  0  0  0
 26183  1  0  0  0  0
 27184  1  0  0  0  0
 30185  1  0  0  0  0
 30186  1  0  0  0  0
 31187  1  0  0  0  0
 31188  1  0  0  0  0
 31189  1  0  0  0  0
 34190  1  0  0  0  0
 39191  1  0  0  0  0
 40192  1  0  0  0  0
 43193  1  0  0  0  0
 43194  1  0  0  0  0
 44195  1  0  0  0  0
 44196  1  0  0  0  0
 44197  1  0  0  0  0
 46198  1  0  0  0  0
 50199  1  0  0  0  0
 54200  1  0  0  0  0
 58201  1  0  0  0  0
 59202  1  0  0  0  0
 62203  1  0  0  0  0
 62204  1  0  0  0  0
 63205  1  0  0  0  0
 63206  1  0  0  0  0
 63207  1  0  0  0  0
 66208  1  0  0  0  0
 71209  1  0  0  0  0
 72210  1  0  0  0  0
 75211  1  0  0  0  0
 75212  1  0  0  0  0
 76213  1  0  0  0  0
 76214  1  0  0  0  0
 76215  1  0  0  0  0
 78216  1  0  0  0  0
 82217  1  0  0  0  0
 86218  1  0  0  0  0
 89219  1  0  0  0  0
 90220  1  0  0  0  0
 93221  1  0  0  0  0
 94222  1  0  0  0  0
 97223  1  0  0  0  0
 98224  1  0  0  0  0
 99225  1  0  0  0  0
100226  1  0  0  0  0
102227  1  0  0  0  0
103228  1  0  0  0  0
104229  1  0  0  0  0
106230  1  0  0  0  0
110231  1  0  0  0  0
111232  1  0  0  0  0
114233  1  0  0  0  0
114234  1  0  0  0  0
115235  1  0  0  0  0
115236  1  0  0  0  0
115237  1  0  0  0  0
118238  1  0  0  0  0
123239  1  0  0  0  0
124240  1  0  0  0  0
127241  1  0  0  0  0
127242  1  0  0  0  0
128243  1  0  0  0  0
128244  1  0  0  0  0
128245  1  0  0  0  0
130246  1  0  0  0  0
134247  1  0  0  0  0
138248  1  0  0  0  0
142249  1  0  0  0  0
143250  1  0  0  0  0
146251  1  0  0  0  0
146252  1  0  0  0  0
147253  1  0  0  0  0
147254  1  0  0  0  0
147255  1  0  0  0  0
150256  1  0  0  0  0
155257  1  0  0  0  0
156258  1  0  0  0  0
159259  1  0  0  0  0
159260  1  0  0  0  0
160261  1  0  0  0  0
160262  1  0  0  0  0
160263  1  0  0  0  0
162264  1  0  0  0  0
166265  1  0  0  0  0
167266  1  0  0  0  0
M  END
