
  xtb     03072220123D
 energy: -305.989191950616 gnorm: 0.000428539746 xtb: 6.4.1 (unknown)
178191  0     0  0            999 V2000
    4.6638    2.9380    6.3356 C   0  0  0  0  0  0  0  0  0  0  0  0
    5.8983    2.8346    5.7956 C   0  0  0  0  0  0  0  0  0  0  0  0
    7.1310    3.0334    6.3175 O   0  0  0  0  0  0  0  0  0  0  0  0
    7.1743    3.3726    7.6844 C   0  0  0  0  0  0  0  0  0  0  0  0
    5.8452    2.3565    4.1228 S   0  0  0  0  0  0  0  0  0  0  0  0
    4.0990    2.2922    4.1814 C   0  0  0  0  0  0  0  0  0  0  0  0
    3.3621    1.9868    3.0984 O   0  0  0  0  0  0  0  0  0  0  0  0
    4.0515    1.8476    1.8789 C   0  0  0  0  0  0  0  0  0  0  0  0
    3.6105    2.6076    5.4228 C   0  0  0  0  0  0  0  0  0  0  0  0
    2.2187    2.7419    5.7986 C   0  0  0  0  0  0  0  0  0  0  0  0
    1.1720    1.9656    5.4741 C   0  0  0  0  0  0  0  0  0  0  0  0
    1.1538    0.6976    4.8080 C   0  0  0  0  0  0  0  0  0  0  0  0
    0.0283    0.0732    4.3498 C   0  0  0  0  0  0  0  0  0  0  0  0
    0.2580   -1.2109    3.7932 C   0  0  0  0  0  0  0  0  0  0  0  0
   -0.6737   -2.0950    3.2192 C   0  0  0  0  0  0  0  0  0  0  0  0
   -2.1100   -1.7925    3.2190 C   0  0  0  0  0  0  0  0  0  0  0  0
   -2.7494   -1.3758    4.3870 C   0  0  0  0  0  0  0  0  0  0  0  0
   -4.0939   -1.0755    4.3854 C   0  0  0  0  0  0  0  0  0  0  0  0
   -4.8601   -1.1745    3.2243 C   0  0  0  0  0  0  0  0  0  0  0  0
   -6.5460   -0.6490    3.3452 S   0  0  0  0  0  0  0  0  0  0  0  0
   -7.4791   -1.7155    2.1882 C   0  0  0  0  0  0  0  0  0  0  0  0
   -7.3611   -3.1821    2.5492 C   0  0  0  0  0  0  0  0  0  0  0  0
   -4.2125   -1.6024    2.0697 C   0  0  0  0  0  0  0  0  0  0  0  0
   -4.8884   -1.7238    0.9050 F   0  0  0  0  0  0  0  0  0  0  0  0
   -2.8679   -1.9145    2.0582 C   0  0  0  0  0  0  0  0  0  0  0  0
   -0.1614   -3.2518    2.6494 C   0  0  0  0  0  0  0  0  0  0  0  0
    1.2179   -3.5736    2.6558 C   0  0  0  0  0  0  0  0  0  0  0  0
    2.1392   -2.7211    3.2820 C   0  0  0  0  0  0  0  0  0  0  0  0
    3.5684   -3.0504    3.3025 C   0  0  0  0  0  0  0  0  0  0  0  0
    4.0099   -4.3107    3.7007 C   0  0  0  0  0  0  0  0  0  0  0  0
    5.3495   -4.6340    3.6479 C   0  0  0  0  0  0  0  0  0  0  0  0
    6.2917   -3.7166    3.1965 C   0  0  0  0  0  0  0  0  0  0  0  0
    7.9958   -4.2083    3.1242 S   0  0  0  0  0  0  0  0  0  0  0  0
    8.3943   -3.8288    1.3771 C   0  0  0  0  0  0  0  0  0  0  0  0
    7.5313   -4.6265    0.4183 C   0  0  0  0  0  0  0  0  0  0  0  0
    5.8458   -2.4466    2.8512 C   0  0  0  0  0  0  0  0  0  0  0  0
    4.5095   -2.1113    2.8956 C   0  0  0  0  0  0  0  0  0  0  0  0
    6.7188   -1.4997    2.4380 F   0  0  0  0  0  0  0  0  0  0  0  0
    1.6345   -1.5473    3.8233 C   0  0  0  0  0  0  0  0  0  0  0  0
    2.5726   -0.3034    4.6026 S   0  0  0  0  0  0  0  0  0  0  0  0
    1.4887   -4.7601    1.9202 C   0  0  0  0  0  0  0  0  0  0  0  0
    0.3762   -5.3426    1.4105 C   0  0  0  0  0  0  0  0  0  0  0  0
   -1.0887   -4.4874    1.8433 S   0  0  0  0  0  0  0  0  0  0  0  0
    0.2837   -6.5074    0.5608 C   0  0  0  0  0  0  0  0  0  0  0  0
   -0.7218   -7.4212    0.7260 C   0  0  0  0  0  0  0  0  0  0  0  0
   -1.6773   -7.3440    1.6703 O   0  0  0  0  0  0  0  0  0  0  0  0
   -2.6559   -8.3530    1.6755 C   0  0  0  0  0  0  0  0  0  0  0  0
   -0.6107   -8.7509   -0.3903 S   0  0  0  0  0  0  0  0  0  0  0  0
    0.8131   -8.0436   -1.0983 C   0  0  0  0  0  0  0  0  0  0  0  0
    1.4548   -8.6152   -2.1377 O   0  0  0  0  0  0  0  0  0  0  0  0
    0.9547   -9.8467   -2.5967 C   0  0  0  0  0  0  0  0  0  0  0  0
    1.1728   -6.8493   -0.5210 C   0  0  0  0  0  0  0  0  0  0  0  0
    2.3438   -6.1744   -1.0515 C   0  0  0  0  0  0  0  0  0  0  0  0
    2.7489   -4.8987   -1.1276 C   0  0  0  0  0  0  0  0  0  0  0  0
    2.1975   -3.6296   -0.6846 C   0  0  0  0  0  0  0  0  0  0  0  0
    3.0784   -2.6723   -0.2579 C   0  0  0  0  0  0  0  0  0  0  0  0
    4.4141   -2.8326   -0.1394 O   0  0  0  0  0  0  0  0  0  0  0  0
    5.1958   -1.7009   -0.4792 C   0  0  0  0  0  0  0  0  0  0  0  0
    2.2801   -1.2167    0.2810 S   0  0  0  0  0  0  0  0  0  0  0  0
    0.7389   -1.8914   -0.1628 C   0  0  0  0  0  0  0  0  0  0  0  0
   -0.4061   -1.2343    0.0912 O   0  0  0  0  0  0  0  0  0  0  0  0
   -0.3200    0.0928    0.5458 C   0  0  0  0  0  0  0  0  0  0  0  0
    0.8390   -3.1487   -0.7049 C   0  0  0  0  0  0  0  0  0  0  0  0
   -0.2590   -3.8973   -1.2768 C   0  0  0  0  0  0  0  0  0  0  0  0
   -1.3703   -3.4070   -1.8431 C   0  0  0  0  0  0  0  0  0  0  0  0
   -1.6253   -2.0212   -2.1529 C   0  0  0  0  0  0  0  0  0  0  0  0
   -0.7926   -1.1352   -2.7597 C   0  0  0  0  0  0  0  0  0  0  0  0
   -1.3608    0.1526   -2.9465 C   0  0  0  0  0  0  0  0  0  0  0  0
   -0.7924    1.2783   -3.5644 C   0  0  0  0  0  0  0  0  0  0  0  0
    0.6096    1.2780   -3.9987 C   0  0  0  0  0  0  0  0  0  0  0  0
    0.9823    1.6897   -5.2769 C   0  0  0  0  0  0  0  0  0  0  0  0
    2.3053    1.6747   -5.6623 C   0  0  0  0  0  0  0  0  0  0  0  0
    3.3163    1.2777   -4.7875 C   0  0  0  0  0  0  0  0  0  0  0  0
    4.9751    1.3573   -5.3963 S   0  0  0  0  0  0  0  0  0  0  0  0
    5.8555   -0.0171   -4.5656 C   0  0  0  0  0  0  0  0  0  0  0  0
    5.1987   -1.3603   -4.8146 C   0  0  0  0  0  0  0  0  0  0  0  0
    2.9334    0.9087   -3.5032 C   0  0  0  0  0  0  0  0  0  0  0  0
    3.8538    0.5608   -2.5695 F   0  0  0  0  0  0  0  0  0  0  0  0
    1.6099    0.8820   -3.1165 C   0  0  0  0  0  0  0  0  0  0  0  0
   -1.6099    2.3902   -3.7136 C   0  0  0  0  0  0  0  0  0  0  0  0
   -2.9364    2.4447   -3.2191 C   0  0  0  0  0  0  0  0  0  0  0  0
   -3.4815    1.3423   -2.5475 C   0  0  0  0  0  0  0  0  0  0  0  0
   -4.8190    1.3710   -1.9381 C   0  0  0  0  0  0  0  0  0  0  0  0
   -4.9634    1.1279   -0.5736 C   0  0  0  0  0  0  0  0  0  0  0  0
   -6.2111    1.1189    0.0105 C   0  0  0  0  0  0  0  0  0  0  0  0
   -7.3603    1.3395   -0.7438 C   0  0  0  0  0  0  0  0  0  0  0  0
   -8.9176    1.2941    0.1016 S   0  0  0  0  0  0  0  0  0  0  0  0
   -9.9795    0.3271   -1.0358 C   0  0  0  0  0  0  0  0  0  0  0  0
   -9.4228   -1.0592   -1.2926 C   0  0  0  0  0  0  0  0  0  0  0  0
   -7.1988    1.6206   -2.0961 C   0  0  0  0  0  0  0  0  0  0  0  0
   -5.9544    1.6310   -2.6949 C   0  0  0  0  0  0  0  0  0  0  0  0
   -8.2676    1.8928   -2.8798 F   0  0  0  0  0  0  0  0  0  0  0  0
   -2.6854    0.2119   -2.4514 C   0  0  0  0  0  0  0  0  0  0  0  0
   -3.1822   -1.3152   -1.7790 S   0  0  0  0  0  0  0  0  0  0  0  0
   -3.5429    3.7058   -3.4618 C   0  0  0  0  0  0  0  0  0  0  0  0
   -2.7330    4.5889   -4.1059 C   0  0  0  0  0  0  0  0  0  0  0  0
   -1.1614    3.8987   -4.4671 S   0  0  0  0  0  0  0  0  0  0  0  0
   -3.0368    5.9309   -4.5334 C   0  0  0  0  0  0  0  0  0  0  0  0
   -2.3858    6.5252   -5.5832 C   0  0  0  0  0  0  0  0  0  0  0  0
   -1.3887    5.9613   -6.2871 O   0  0  0  0  0  0  0  0  0  0  0  0
   -0.7980    6.7342   -7.3025 C   0  0  0  0  0  0  0  0  0  0  0  0
   -3.0298    8.0949   -5.9606 S   0  0  0  0  0  0  0  0  0  0  0  0
   -4.1803    7.9562   -4.6498 C   0  0  0  0  0  0  0  0  0  0  0  0
   -5.0611    8.9387   -4.3834 O   0  0  0  0  0  0  0  0  0  0  0  0
   -4.7956   10.2026   -4.9437 C   0  0  0  0  0  0  0  0  0  0  0  0
   -4.0626    6.7745   -3.9726 C   0  0  0  0  0  0  0  0  0  0  0  0
   -4.7987    6.4635   -2.7584 C   0  0  0  0  0  0  0  0  0  0  0  0
   -6.0069    6.9211   -2.4576 C   0  0  0  0  0  0  0  0  0  0  0  0
    4.4641    3.2161    7.3540 H   0  0  0  0  0  0  0  0  0  0  0  0
    6.6621    4.3216    7.8718 H   0  0  0  0  0  0  0  0  0  0  0  0
    6.7205    2.5894    8.2995 H   0  0  0  0  0  0  0  0  0  0  0  0
    8.2291    3.4701    7.9325 H   0  0  0  0  0  0  0  0  0  0  0  0
    4.4798    2.8024    1.5577 H   0  0  0  0  0  0  0  0  0  0  0  0
    4.8622    1.1166    1.9667 H   0  0  0  0  0  0  0  0  0  0  0  0
    3.3188    1.5054    1.1497 H   0  0  0  0  0  0  0  0  0  0  0  0
    2.0224    3.5992    6.4321 H   0  0  0  0  0  0  0  0  0  0  0  0
    0.1880    2.2953    5.7873 H   0  0  0  0  0  0  0  0  0  0  0  0
   -0.9417    0.5373    4.3801 H   0  0  0  0  0  0  0  0  0  0  0  0
   -2.1896   -1.3126    5.3076 H   0  0  0  0  0  0  0  0  0  0  0  0
   -4.5827   -0.7531    5.2919 H   0  0  0  0  0  0  0  0  0  0  0  0
   -8.5026   -1.3574    2.3036 H   0  0  0  0  0  0  0  0  0  0  0  0
   -7.1440   -1.5165    1.1728 H   0  0  0  0  0  0  0  0  0  0  0  0
   -7.9933   -3.7751    1.8909 H   0  0  0  0  0  0  0  0  0  0  0  0
   -7.6732   -3.3494    3.5782 H   0  0  0  0  0  0  0  0  0  0  0  0
   -6.3344   -3.5254    2.4379 H   0  0  0  0  0  0  0  0  0  0  0  0
   -2.4166   -2.2146    1.1257 H   0  0  0  0  0  0  0  0  0  0  0  0
    3.2957   -5.0368    4.0580 H   0  0  0  0  0  0  0  0  0  0  0  0
    5.6896   -5.6135    3.9470 H   0  0  0  0  0  0  0  0  0  0  0  0
    8.2946   -2.7557    1.2254 H   0  0  0  0  0  0  0  0  0  0  0  0
    9.4450   -4.1024    1.2840 H   0  0  0  0  0  0  0  0  0  0  0  0
    7.6394   -5.6920    0.6099 H   0  0  0  0  0  0  0  0  0  0  0  0
    6.4799   -4.3630    0.5245 H   0  0  0  0  0  0  0  0  0  0  0  0
    7.8378   -4.4258   -0.6072 H   0  0  0  0  0  0  0  0  0  0  0  0
    4.2046   -1.1217    2.5955 H   0  0  0  0  0  0  0  0  0  0  0  0
    2.4780   -5.1468    1.7573 H   0  0  0  0  0  0  0  0  0  0  0  0
   -3.2004   -8.3804    0.7255 H   0  0  0  0  0  0  0  0  0  0  0  0
   -2.2074   -9.3362    1.8558 H   0  0  0  0  0  0  0  0  0  0  0  0
   -3.3396   -8.1055    2.4846 H   0  0  0  0  0  0  0  0  0  0  0  0
    1.6067  -10.1531   -3.4121 H   0  0  0  0  0  0  0  0  0  0  0  0
   -0.0721   -9.7428   -2.9635 H   0  0  0  0  0  0  0  0  0  0  0  0
    0.9725  -10.6022   -1.8037 H   0  0  0  0  0  0  0  0  0  0  0  0
    3.0043   -6.8922   -1.5260 H   0  0  0  0  0  0  0  0  0  0  0  0
    3.7406   -4.7620   -1.5477 H   0  0  0  0  0  0  0  0  0  0  0  0
    5.0304   -1.4104   -1.5192 H   0  0  0  0  0  0  0  0  0  0  0  0
    6.2339   -1.9902   -0.3363 H   0  0  0  0  0  0  0  0  0  0  0  0
    4.9591   -0.8505    0.1657 H   0  0  0  0  0  0  0  0  0  0  0  0
    0.0663    0.7578   -0.2337 H   0  0  0  0  0  0  0  0  0  0  0  0
   -1.3349    0.3892    0.8031 H   0  0  0  0  0  0  0  0  0  0  0  0
    0.3189    0.1688    1.4318 H   0  0  0  0  0  0  0  0  0  0  0  0
   -0.1468   -4.9688   -1.2384 H   0  0  0  0  0  0  0  0  0  0  0  0
   -2.1607   -4.0952   -2.1156 H   0  0  0  0  0  0  0  0  0  0  0  0
    0.1921   -1.4062   -3.0975 H   0  0  0  0  0  0  0  0  0  0  0  0
    0.2248    1.9981   -5.9800 H   0  0  0  0  0  0  0  0  0  0  0  0
    2.5864    1.9749   -6.6597 H   0  0  0  0  0  0  0  0  0  0  0  0
    6.8476    0.0214   -5.0158 H   0  0  0  0  0  0  0  0  0  0  0  0
    5.9420    0.2087   -3.5045 H   0  0  0  0  0  0  0  0  0  0  0  0
    5.1074   -1.5474   -5.8823 H   0  0  0  0  0  0  0  0  0  0  0  0
    4.2044   -1.3993   -4.3736 H   0  0  0  0  0  0  0  0  0  0  0  0
    5.8015   -2.1510   -4.3715 H   0  0  0  0  0  0  0  0  0  0  0  0
    1.3781    0.5804   -2.1069 H   0  0  0  0  0  0  0  0  0  0  0  0
   -4.0876    0.9455    0.0300 H   0  0  0  0  0  0  0  0  0  0  0  0
   -6.3205    0.9400    1.0687 H   0  0  0  0  0  0  0  0  0  0  0  0
  -10.9339    0.2778   -0.5117 H   0  0  0  0  0  0  0  0  0  0  0  0
  -10.1117    0.8888   -1.9576 H   0  0  0  0  0  0  0  0  0  0  0  0
  -10.0967   -1.6093   -1.9466 H   0  0  0  0  0  0  0  0  0  0  0  0
   -8.4473   -1.0025   -1.7728 H   0  0  0  0  0  0  0  0  0  0  0  0
   -9.3157   -1.6079   -0.3593 H   0  0  0  0  0  0  0  0  0  0  0  0
   -5.8848    1.8306   -3.7532 H   0  0  0  0  0  0  0  0  0  0  0  0
   -4.5584    3.9248   -3.1890 H   0  0  0  0  0  0  0  0  0  0  0  0
   -0.3635    7.6536   -6.8965 H   0  0  0  0  0  0  0  0  0  0  0  0
   -1.5316    6.9983   -8.0721 H   0  0  0  0  0  0  0  0  0  0  0  0
   -0.0144    6.1155   -7.7344 H   0  0  0  0  0  0  0  0  0  0  0  0
   -4.8231   10.1589   -6.0383 H   0  0  0  0  0  0  0  0  0  0  0  0
   -3.8182   10.5813   -4.6281 H   0  0  0  0  0  0  0  0  0  0  0  0
   -5.5809   10.8641   -4.5838 H   0  0  0  0  0  0  0  0  0  0  0  0
   -4.2706    5.8235   -2.0637 H   0  0  0  0  0  0  0  0  0  0  0  0
   -6.5610    7.5471   -3.1335 H   0  0  0  0  0  0  0  0  0  0  0  0
   -6.4813    6.6720   -1.5239 H   0  0  0  0  0  0  0  0  0  0  0  0
  1  2  2  0  0  0  0
  2  3  1  0  0  0  0
  3  4  1  0  0  0  0
  2  5  1  0  0  0  0
  5  6  1  0  0  0  0
  6  7  1  0  0  0  0
  7  8  1  0  0  0  0
  6  9  2  0  0  0  0
  9 10  1  0  0  0  0
 10 11  2  0  0  0  0
 11 12  1  0  0  0  0
 12 13  2  0  0  0  0
 13 14  1  0  0  0  0
 14 15  2  0  0  0  0
 15 16  1  0  0  0  0
 16 17  2  0  0  0  0
 17 18  1  0  0  0  0
 18 19  2  0  0  0  0
 19 20  1  0  0  0  0
 20 21  1  0  0  0  0
 21 22  1  0  0  0  0
 19 23  1  0  0  0  0
 23 24  1  0  0  0  0
 23 25  2  0  0  0  0
 15 26  1  0  0  0  0
 26 27  2  0  0  0  0
 27 28  1  0  0  0  0
 28 29  1  0  0  0  0
 29 30  2  0  0  0  0
 30 31  1  0  0  0  0
 31 32  2  0  0  0  0
 32 33  1  0  0  0  0
 33 34  1  0  0  0  0
 34 35  1  0  0  0  0
 32 36  1  0  0  0  0
 36 37  2  0  0  0  0
 36 38  1  0  0  0  0
 28 39  2  0  0  0  0
 39 40  1  0  0  0  0
 27 41  1  0  0  0  0
 41 42  2  0  0  0  0
 42 43  1  0  0  0  0
 42 44  1  0  0  0  0
 44 45  2  0  0  0  0
 45 46  1  0  0  0  0
 46 47  1  0  0  0  0
 45 48  1  0  0  0  0
 48 49  1  0  0  0  0
 49 50  1  0  0  0  0
 50 51  1  0  0  0  0
 49 52  2  0  0  0  0
 52 53  1  0  0  0  0
 53 54  2  0  0  0  0
 54 55  1  0  0  0  0
 55 56  2  0  0  0  0
 56 57  1  0  0  0  0
 57 58  1  0  0  0  0
 56 59  1  0  0  0  0
 59 60  1  0  0  0  0
 60 61  1  0  0  0  0
 61 62  1  0  0  0  0
 60 63  2  0  0  0  0
 63 64  1  0  0  0  0
 64 65  2  0  0  0  0
 65 66  1  0  0  0  0
 66 67  2  0  0  0  0
 67 68  1  0  0  0  0
 68 69  2  0  0  0  0
 69 70  1  0  0  0  0
 70 71  2  0  0  0  0
 71 72  1  0  0  0  0
 72 73  2  0  0  0  0
 73 74  1  0  0  0  0
 74 75  1  0  0  0  0
 75 76  1  0  0  0  0
 73 77  1  0  0  0  0
 77 78  1  0  0  0  0
 77 79  2  0  0  0  0
 69 80  1  0  0  0  0
 80 81  2  0  0  0  0
 81 82  1  0  0  0  0
 82 83  1  0  0  0  0
 83 84  2  0  0  0  0
 84 85  1  0  0  0  0
 85 86  2  0  0  0  0
 86 87  1  0  0  0  0
 87 88  1  0  0  0  0
 88 89  1  0  0  0  0
 86 90  1  0  0  0  0
 90 91  2  0  0  0  0
 90 92  1  0  0  0  0
 82 93  2  0  0  0  0
 93 94  1  0  0  0  0
 81 95  1  0  0  0  0
 95 96  2  0  0  0  0
 96 97  1  0  0  0  0
 96 98  1  0  0  0  0
 98 99  2  0  0  0  0
 99100  1  0  0  0  0
100101  1  0  0  0  0
 99102  1  0  0  0  0
102103  1  0  0  0  0
103104  1  0  0  0  0
104105  1  0  0  0  0
103106  2  0  0  0  0
106107  1  0  0  0  0
107108  2  0  0  0  0
  9  1  1  0  0  0  0
 40 12  1  0  0  0  0
 52 44  1  0  0  0  0
 63 55  1  0  0  0  0
 94 66  1  0  0  0  0
106 98  1  0  0  0  0
 39 14  1  0  0  0  0
 93 68  1  0  0  0  0
 25 16  1  0  0  0  0
 43 26  1  0  0  0  0
 79 70  1  0  0  0  0
 97 80  1  0  0  0  0
 37 29  1  0  0  0  0
 91 83  1  0  0  0  0
  1109  1  0  0  0  0
  4110  1  0  0  0  0
  4111  1  0  0  0  0
  4112  1  0  0  0  0
  8113  1  0  0  0  0
  8114  1  0  0  0  0
  8115  1  0  0  0  0
 10116  1  0  0  0  0
 11117  1  0  0  0  0
 13118  1  0  0  0  0
 17119  1  0  0  0  0
 18120  1  0  0  0  0
 21121  1  0  0  0  0
 21122  1  0  0  0  0
 22123  1  0  0  0  0
 22124  1  0  0  0  0
 22125  1  0  0  0  0
 25126  1  0  0  0  0
 30127  1  0  0  0  0
 31128  1  0  0  0  0
 34129  1  0  0  0  0
 34130  1  0  0  0  0
 35131  1  0  0  0  0
 35132  1  0  0  0  0
 35133  1  0  0  0  0
 37134  1  0  0  0  0
 41135  1  0  0  0  0
 47136  1  0  0  0  0
 47137  1  0  0  0  0
 47138  1  0  0  0  0
 51139  1  0  0  0  0
 51140  1  0  0  0  0
 51141  1  0  0  0  0
 53142  1  0  0  0  0
 54143  1  0  0  0  0
 58144  1  0  0  0  0
 58145  1  0  0  0  0
 58146  1  0  0  0  0
 62147  1  0  0  0  0
 62148  1  0  0  0  0
 62149  1  0  0  0  0
 64150  1  0  0  0  0
 65151  1  0  0  0  0
 67152  1  0  0  0  0
 71153  1  0  0  0  0
 72154  1  0  0  0  0
 75155  1  0  0  0  0
 75156  1  0  0  0  0
 76157  1  0  0  0  0
 76158  1  0  0  0  0
 76159  1  0  0  0  0
 79160  1  0  0  0  0
 84161  1  0  0  0  0
 85162  1  0  0  0  0
 88163  1  0  0  0  0
 88164  1  0  0  0  0
 89165  1  0  0  0  0
 89166  1  0  0  0  0
 89167  1  0  0  0  0
 91168  1  0  0  0  0
 95169  1  0  0  0  0
101170  1  0  0  0  0
101171  1  0  0  0  0
101172  1  0  0  0  0
105173  1  0  0  0  0
105174  1  0  0  0  0
105175  1  0  0  0  0
107176  1  0  0  0  0
108177  1  0  0  0  0
108178  1  0  0  0  0
M  END
