224

C         -9.60790       -3.60590        0.99940
C         -9.04980       -4.82980        0.90310
C         -7.65320       -4.78350        0.61840
C         -6.75060       -5.85470        0.50630
C         -7.18640       -7.23600        0.63660
S         -8.46830       -7.87710       -0.34810
C         -8.32100       -9.45570        0.34650
C         -9.23380      -10.56100       -0.05480
C        -10.58210      -10.44460        0.66000
C         -7.34010       -9.46550        1.29230
Cl        -6.90890      -10.84900        2.21120
C         -6.68880       -8.21250        1.45340
Cl        -5.46210       -7.95870        2.62270
C         -5.42170       -5.53740        0.24720
C         -4.97940       -4.20050        0.11390
C         -5.86760       -3.12660        0.27270
C         -5.37870       -1.75510        0.24280
S         -4.17460       -1.25000        1.39130
C         -4.15050        0.36020        0.77280
C         -3.28260        1.42090        1.35100
C         -2.61450        1.00050        2.65030
C         -5.01830        0.48070       -0.27270
C         -5.72570       -0.71340       -0.57060
Cl        -6.84550       -0.83800       -1.86380
Cl        -5.22610        1.94460       -1.14800
C         -7.19570       -3.44750        0.50870
S         -8.48860       -2.31070        0.75720
C         -3.61430       -4.13130       -0.24460
C         -3.01380       -5.34770       -0.36500
S         -4.11450       -6.66310       -0.02400
C         -1.64430       -5.51080       -0.75380
C         -0.69830       -6.42940       -0.41530
C          0.59740       -6.10800       -0.90730
C          1.82240       -6.75780       -0.66390
C          1.86710       -8.03630        0.02180
S          2.94670       -8.32670        1.35560
C          2.39790       -9.95440        1.54880
C          3.00130      -10.85020        2.57240
C          4.29050      -11.48490        2.04470
C          1.44440      -10.24730        0.61950
Cl         0.67280      -11.77470        0.48930
C          1.13520       -9.16210       -0.24330
Cl         0.01470       -9.30430       -1.53550
C          2.97760       -6.11270       -1.09680
C          2.96200       -4.88140       -1.79690
C          1.73820       -4.26770       -2.10580
C          1.64090       -3.01700       -2.84180
S          2.44660       -1.56160       -2.32660
C          1.78630       -0.64080       -3.63590
C          2.10690        0.79580       -3.87190
C          3.04370        1.37810       -2.82630
C          0.98090       -1.42640       -4.40620
C          0.89270       -2.77020       -3.96050
Cl         0.00430       -3.96310       -4.81380
Cl         0.15540       -0.85060       -5.79630
C          0.59120       -4.90090       -1.64810
S         -1.00390       -4.24580       -1.77840
C          4.26300       -4.43480       -2.12460
C          5.25230       -5.27350       -1.69970
S          4.61270       -6.67790       -0.87190
C          6.65750       -5.05340       -1.84020
S          7.85600       -6.19290       -1.28520
C          9.14800       -5.11860       -1.69610
C          8.65580       -3.96760       -2.28730
C          7.24810       -3.93470       -2.36710
C          9.46600       -2.92910       -2.77870
N         10.09840       -2.07220       -3.20500
C         10.53840       -5.33600       -1.32350
C         11.17940       -4.44280       -0.55920
C         10.44640       -3.33820        0.04280
C         10.59580       -1.99840       -0.09660
C          9.48630       -1.25200        0.39880
C          9.21780        0.11890        0.23840
C         10.23590        1.01950       -0.26650
S          9.91390        2.13910       -1.55490
C         11.53170        2.74900       -1.53400
C         11.94780        3.85490       -2.43930
C         11.50300        5.21050       -1.88490
C         12.26430        2.12140       -0.57030
Cl        13.91110        2.47100       -0.23780
C         11.53660        1.13410        0.14430
Cl        12.21740        0.24950        1.44730
C          7.92820        0.54700        0.54140
C          6.92610       -0.32030        1.03980
C          7.22360       -1.66720        1.30090
C          6.24650       -2.60630        1.82160
S          4.67240       -2.79920        1.10070
C          4.23690       -4.06210        2.20150
C          2.90690       -4.72810        2.16500
C          1.81420       -3.81910        1.62230
C          5.26550       -4.31760        3.05780
C          6.40430       -3.49680        2.84840
Cl         7.77880       -3.56580        3.86780
Cl         5.20280       -5.51590        4.28250
C          8.49910       -2.09510        0.95950
S          9.00380       -3.75240        0.95380
C          5.68430        0.33730        1.19720
C          5.71520        1.65260        0.84080
S          7.30940        2.16460        0.33450
C          4.55930        2.49680        0.78580
C          3.29900        2.03210        0.55330
C          2.31470        3.04620        0.55030
C          0.95000        2.91480        0.25910
C          0.33370        1.64900       -0.10360
S         -0.61610        1.53160       -1.55800
C         -1.07540       -0.09990       -1.22430
C         -1.98740       -0.85100       -2.13100
C         -2.57680        0.01990       -3.22980
C         -0.50590       -0.51800       -0.05740
Cl        -0.77170       -2.05890        0.64500
C          0.30310        0.46360        0.57380
Cl         1.07880        0.18670        2.07950
C          0.18410        4.06880        0.32080
C          0.70710        5.34050        0.65270
C          2.08860        5.47910        0.88990
C          2.67010        6.77950        1.17450
S          2.37910        8.13300        0.12010
C          3.36320        9.18960        1.07240
C          3.59710       10.60190        0.66440
C          4.72230       10.69400       -0.36910
C          3.88230        8.51820        2.13890
C          3.48970        7.15390        2.20340
Cl         3.93820        6.13360        3.50470
Cl         4.90670        9.23500        3.31410
C          2.86280        4.32420        0.82780
S          4.59460        4.22850        1.01290
C         -0.32040        6.31670        0.75440
C         -1.56700        5.81760        0.51830
S         -1.53670        4.11790        0.10740
C         -2.84820        6.43860        0.60720
C         -4.04680        5.78920        0.56530
C         -5.16180        6.64490        0.72470
C         -6.51780        6.28840        0.79880
C         -6.92910        4.89300        0.83390
S         -8.12610        4.24990       -0.24860
C         -8.04260        2.67660        0.46570
C         -8.90460        1.56050       -0.00880
C        -10.27260        1.59320        0.67500
C         -7.14580        2.66890        1.49230
Cl        -6.82020        1.28790        2.45910
C         -6.50400        3.91860        1.69570
Cl        -5.36880        4.18090        2.95880
C         -7.43270        7.32920        0.89750
C         -7.04660        8.68860        0.97280
C         -5.68710        9.03950        0.94730
C         -5.25360       10.42370        1.06010
S         -5.73120       11.41320        2.40800
C         -4.82680       12.77200        1.83340
C         -4.75650       14.03960        2.61100
C         -3.62050       13.98800        3.63560
C         -4.19320       12.45890        0.66830
C         -4.43460       11.13070        0.22470
Cl        -3.81600       10.53000       -1.25650
Cl        -3.20230       13.55450       -0.20440
C         -4.77080        8.00300        0.82420
S         -3.03540        8.16480        0.81830
C         -8.17890        9.54910        1.07120
C         -9.34740        8.87630        1.09020
S         -9.16310        7.15980        0.98810
H        -10.63250       -3.36490        1.20500
H         -9.59850       -5.74420        1.03300
H         -8.76330      -11.51180        0.20110
H         -9.39240      -10.52790       -1.13430
H        -11.06170       -9.50150        0.40870
H        -11.23540      -11.25920        0.35960
H        -10.44280      -10.48870        1.73730
H         -3.89150        2.31230        1.52180
H         -2.52350        1.69170        0.61240
H         -1.96650        1.79600        3.00890
H         -3.36270        0.79220        3.41120
H         -2.01650        0.10470        2.50240
H         -3.08920       -3.20850       -0.40470
H         -0.90650       -7.27270        0.21770
H          2.28240      -11.63230        2.82270
H          3.22280      -10.27500        3.47310
H          4.72160      -12.13620        2.80000
H          5.01450      -10.71350        1.79300
H          4.08400      -12.07280        1.15390
H          2.55320        0.88760       -4.86720
H          1.17150        1.36370       -3.88720
H          3.25900        2.41900       -3.05120
H          2.58460        1.32700       -1.84390
H          3.98180        0.82850       -2.79760
H          4.44730       -3.52030       -2.65560
H          6.70780       -3.10150       -2.77670
H         11.03400       -6.22160       -1.69440
H         12.23590       -4.53600       -0.35360
H         11.40980       -1.55500       -0.63970
H         11.50320        3.70290       -3.42430
H         13.03450        3.83670       -2.53830
H         10.42110        5.23700       -1.77900
H         11.80940        6.00730       -2.55710
H         11.95190        5.38490       -0.91030
H          2.66130       -5.05320        3.17870
H          2.97640       -5.62890        1.54810
H          2.05450       -3.49460        0.61170
H          1.70700       -2.93730        2.24900
H          0.86530       -4.34890        1.60110
H          4.80140       -0.14780        1.56820
H          3.08910        0.99500        0.37140
H         -1.43820       -1.68510       -2.57700
H         -2.79440       -1.28080       -1.53090
H         -3.13120        0.85230       -2.80360
H         -1.78920        0.41740       -3.86540
H         -3.25240       -0.56760       -3.84540
H          2.67980       11.01340        0.23960
H          3.86490       11.18140        1.54970
H          5.64650       10.29780        0.04370
H          4.46530       10.12300       -1.25820
H          4.88310       11.73020       -0.65350
H         -0.15010        7.34320        1.02450
H         -4.12870        4.72790        0.41410
H         -8.41110        0.61310        0.21630
H         -9.03490        1.63830       -1.08920
H        -10.88450        0.77010        0.31630
H        -10.78180        2.52990        0.46070
H        -10.15730        1.49740        1.75170
H         -4.58630       14.86660        1.91890
H         -5.70440       14.20230        3.12650
H         -3.77950       13.17030        4.33460
H         -2.66820       13.83620        3.13390
H         -3.57720       14.92020        4.19210
H         -8.10680       10.61990        1.12030
H        -10.33830        9.28100        1.15670
