
  xtb     03012203223D
 energy: -404.994036952718 gnorm: 0.000869172909 xtb: 6.4.1 (unknown)
200223  0     0  0            999 V2000
    5.5316   -5.7497    4.9286 C   0  0  0  0  0  0  0  0  0  0  0  0
    5.8232   -4.6564    4.1948 C   0  0  0  0  0  0  0  0  0  0  0  0
    4.6605   -3.9698    3.7399 C   0  0  0  0  0  0  0  0  0  0  0  0
    4.5810   -2.8136    2.9488 C   0  0  0  0  0  0  0  0  0  0  0  0
    5.7552   -2.1637    2.3890 C   0  0  0  0  0  0  0  0  0  0  0  0
    7.0835   -1.6327    3.3758 S   0  0  0  0  0  0  0  0  0  0  0  0
    7.9472   -1.0044    2.0143 C   0  0  0  0  0  0  0  0  0  0  0  0
    9.2469   -0.2972    2.1786 C   0  0  0  0  0  0  0  0  0  0  0  0
    9.0247    1.2013    2.3984 C   0  0  0  0  0  0  0  0  0  0  0  0
    7.2334   -1.2015    0.8706 C   0  0  0  0  0  0  0  0  0  0  0  0
    7.7690   -0.7142   -0.6829 Cl  0  0  0  0  0  0  0  0  0  0  0  0
    5.9915   -1.8607    1.0750 C   0  0  0  0  0  0  0  0  0  0  0  0
    4.9610   -2.2859   -0.2272 Cl  0  0  0  0  0  0  0  0  0  0  0  0
    3.3088   -2.3278    2.6729 C   0  0  0  0  0  0  0  0  0  0  0  0
    2.1244   -2.9926    3.0707 C   0  0  0  0  0  0  0  0  0  0  0  0
    2.2036   -4.1853    3.8079 C   0  0  0  0  0  0  0  0  0  0  0  0
    0.9989   -4.9155    4.1759 C   0  0  0  0  0  0  0  0  0  0  0  0
   -0.2666   -4.1791    5.1123 S   0  0  0  0  0  0  0  0  0  0  0  0
   -1.2617   -5.5923    5.0252 C   0  0  0  0  0  0  0  0  0  0  0  0
   -2.5941   -5.6431    5.6865 C   0  0  0  0  0  0  0  0  0  0  0  0
   -2.4595   -5.9877    7.1707 C   0  0  0  0  0  0  0  0  0  0  0  0
   -0.6288   -6.5732    4.3227 C   0  0  0  0  0  0  0  0  0  0  0  0
    0.6564   -6.1966    3.8482 C   0  0  0  0  0  0  0  0  0  0  0  0
    1.6434   -7.2392    2.9141 Cl  0  0  0  0  0  0  0  0  0  0  0  0
   -1.3210   -8.1085    3.9929 Cl  0  0  0  0  0  0  0  0  0  0  0  0
    3.4741   -4.6287    4.1496 C   0  0  0  0  0  0  0  0  0  0  0  0
    3.8359   -6.0363    5.1066 S   0  0  0  0  0  0  0  0  0  0  0  0
    0.9683   -2.3063    2.6299 C   0  0  0  0  0  0  0  0  0  0  0  0
    1.2405   -1.1368    1.9833 C   0  0  0  0  0  0  0  0  0  0  0  0
    2.9558   -0.8409    1.8473 S   0  0  0  0  0  0  0  0  0  0  0  0
    0.2814   -0.2051    1.4852 C   0  0  0  0  0  0  0  0  0  0  0  0
    0.4472    1.1109    1.1694 C   0  0  0  0  0  0  0  0  0  0  0  0
   -0.7525    1.7584    0.7817 C   0  0  0  0  0  0  0  0  0  0  0  0
   -0.9585    3.1235    0.4941 C   0  0  0  0  0  0  0  0  0  0  0  0
    0.1438    4.0677    0.4678 C   0  0  0  0  0  0  0  0  0  0  0  0
    1.6078    3.6639   -0.3794 S   0  0  0  0  0  0  0  0  0  0  0  0
    2.3383    5.1928   -0.0325 C   0  0  0  0  0  0  0  0  0  0  0  0
    3.7039    5.5132   -0.5330 C   0  0  0  0  0  0  0  0  0  0  0  0
    3.7216    5.6949   -2.0517 C   0  0  0  0  0  0  0  0  0  0  0  0
    1.4871    5.9627    0.7035 C   0  0  0  0  0  0  0  0  0  0  0  0
    1.8547    7.5490    1.2683 Cl  0  0  0  0  0  0  0  0  0  0  0  0
    0.2431    5.3316    0.9874 C   0  0  0  0  0  0  0  0  0  0  0  0
   -0.9406    6.0954    1.9630 Cl  0  0  0  0  0  0  0  0  0  0  0  0
   -2.2593    3.5094    0.1829 C   0  0  0  0  0  0  0  0  0  0  0  0
   -3.3399    2.5883    0.1092 C   0  0  0  0  0  0  0  0  0  0  0  0
   -3.1512    1.2366    0.4719 C   0  0  0  0  0  0  0  0  0  0  0  0
   -4.2372    0.2779    0.4892 C   0  0  0  0  0  0  0  0  0  0  0  0
   -3.9987   -1.3363   -0.1227 S   0  0  0  0  0  0  0  0  0  0  0  0
   -5.6392   -1.7845    0.1594 C   0  0  0  0  0  0  0  0  0  0  0  0
   -6.1600   -3.1354   -0.1919 C   0  0  0  0  0  0  0  0  0  0  0  0
   -5.1078   -4.0105   -0.8567 C   0  0  0  0  0  0  0  0  0  0  0  0
   -6.3164   -0.7470    0.7320 C   0  0  0  0  0  0  0  0  0  0  0  0
   -5.5291    0.4171    0.9292 C   0  0  0  0  0  0  0  0  0  0  0  0
   -6.1479    1.7923    1.7482 Cl  0  0  0  0  0  0  0  0  0  0  0  0
   -7.9755   -0.8328    1.1638 Cl  0  0  0  0  0  0  0  0  0  0  0  0
   -1.8524    0.8632    0.7889 C   0  0  0  0  0  0  0  0  0  0  0  0
   -1.3747   -0.7310    1.2930 S   0  0  0  0  0  0  0  0  0  0  0  0
   -4.4919    3.1891   -0.4324 C   0  0  0  0  0  0  0  0  0  0  0  0
   -4.3354    4.5213   -0.7167 C   0  0  0  0  0  0  0  0  0  0  0  0
   -2.7535    5.1137   -0.2798 S   0  0  0  0  0  0  0  0  0  0  0  0
   -5.2886    5.3448   -1.3605 C   0  0  0  0  0  0  0  0  0  0  0  0
   -5.3522    6.7050   -1.5029 C   0  0  0  0  0  0  0  0  0  0  0  0
   -6.4508    7.1654   -2.3009 C   0  0  0  0  0  0  0  0  0  0  0  0
   -7.3094    6.1403   -2.8346 C   0  0  0  0  0  0  0  0  0  0  0  0
   -8.2852    6.1939   -3.5223 O   0  0  0  0  0  0  0  0  0  0  0  0
   -6.6264    4.5606   -2.2056 S   0  0  0  0  0  0  0  0  0  0  0  0
   -6.4253    8.5265   -2.3222 C   0  0  0  0  0  0  0  0  0  0  0  0
   -5.3699    8.9822   -1.5802 N   0  0  0  0  0  0  0  0  0  0  0  0
   -4.6578    7.8777   -0.9940 C   0  0  0  0  0  0  0  0  0  0  0  0
   -3.7960    8.0044   -0.1563 O   0  0  0  0  0  0  0  0  0  0  0  0
   -5.1602   10.3203   -1.3911 C   0  0  0  0  0  0  0  0  0  0  0  0
   -4.0592   10.9950   -0.9941 C   0  0  0  0  0  0  0  0  0  0  0  0
   -2.7136   10.5809   -0.8189 C   0  0  0  0  0  0  0  0  0  0  0  0
   -1.9749    9.5358   -1.3225 C   0  0  0  0  0  0  0  0  0  0  0  0
   -0.6011    9.5297   -0.9032 C   0  0  0  0  0  0  0  0  0  0  0  0
   -0.1916   10.6152   -0.0610 C   0  0  0  0  0  0  0  0  0  0  0  0
    0.8581   10.8962    0.4381 O   0  0  0  0  0  0  0  0  0  0  0  0
   -1.6985   11.6426    0.1548 S   0  0  0  0  0  0  0  0  0  0  0  0
   -0.0032    8.4217   -1.4275 C   0  0  0  0  0  0  0  0  0  0  0  0
   -0.9087    7.7186   -2.1669 N   0  0  0  0  0  0  0  0  0  0  0  0
   -2.1634    8.3923   -2.1874 C   0  0  0  0  0  0  0  0  0  0  0  0
   -3.1250    8.0252   -2.8364 O   0  0  0  0  0  0  0  0  0  0  0  0
   -0.6467    6.4408   -2.6105 C   0  0  0  0  0  0  0  0  0  0  0  0
   -1.5197    5.6040   -3.1910 C   0  0  0  0  0  0  0  0  0  0  0  0
   -1.2195    4.2097   -3.3261 C   0  0  0  0  0  0  0  0  0  0  0  0
   -0.0192    3.5746   -3.2091 C   0  0  0  0  0  0  0  0  0  0  0  0
   -0.1303    2.1738   -3.0412 C   0  0  0  0  0  0  0  0  0  0  0  0
    0.9120    1.2609   -2.7844 C   0  0  0  0  0  0  0  0  0  0  0  0
    2.2913    1.6567   -3.0105 C   0  0  0  0  0  0  0  0  0  0  0  0
    2.6934    2.4193   -4.5282 S   0  0  0  0  0  0  0  0  0  0  0  0
    4.3692    2.5601   -4.1147 C   0  0  0  0  0  0  0  0  0  0  0  0
    5.3598    3.1583   -5.0528 C   0  0  0  0  0  0  0  0  0  0  0  0
    4.8173    4.3989   -5.7562 C   0  0  0  0  0  0  0  0  0  0  0  0
    4.5864    2.0449   -2.8722 C   0  0  0  0  0  0  0  0  0  0  0  0
    6.1144    2.0229   -2.0926 Cl  0  0  0  0  0  0  0  0  0  0  0  0
    3.4188    1.5258   -2.2488 C   0  0  0  0  0  0  0  0  0  0  0  0
    3.4712    0.8956   -0.6628 Cl  0  0  0  0  0  0  0  0  0  0  0  0
    0.5253   -0.0107   -2.3789 C   0  0  0  0  0  0  0  0  0  0  0  0
   -0.8311   -0.4300   -2.3704 C   0  0  0  0  0  0  0  0  0  0  0  0
   -1.8513    0.4265   -2.8309 C   0  0  0  0  0  0  0  0  0  0  0  0
   -3.1991   -0.0491   -3.0637 C   0  0  0  0  0  0  0  0  0  0  0  0
   -4.5886    0.9173   -2.6582 S   0  0  0  0  0  0  0  0  0  0  0  0
   -5.7003   -0.2957   -3.1901 C   0  0  0  0  0  0  0  0  0  0  0  0
   -7.1695   -0.0897   -3.0716 C   0  0  0  0  0  0  0  0  0  0  0  0
   -7.6354    1.1231   -3.8767 C   0  0  0  0  0  0  0  0  0  0  0  0
   -5.0209   -1.3607   -3.7010 C   0  0  0  0  0  0  0  0  0  0  0  0
   -3.6080   -1.2258   -3.6389 C   0  0  0  0  0  0  0  0  0  0  0  0
   -2.5651   -2.4014   -4.3306 Cl  0  0  0  0  0  0  0  0  0  0  0  0
   -5.7780   -2.7541   -4.3614 Cl  0  0  0  0  0  0  0  0  0  0  0  0
   -1.4784    1.7463   -3.0595 C   0  0  0  0  0  0  0  0  0  0  0  0
   -2.5546    3.0756   -3.3758 S   0  0  0  0  0  0  0  0  0  0  0  0
   -0.9727   -1.7392   -1.8572 C   0  0  0  0  0  0  0  0  0  0  0  0
    0.2128   -2.3346   -1.5390 C   0  0  0  0  0  0  0  0  0  0  0  0
    1.5785   -1.2900   -1.8507 S   0  0  0  0  0  0  0  0  0  0  0  0
    0.3869   -3.6570   -1.0310 C   0  0  0  0  0  0  0  0  0  0  0  0
   -0.5902   -4.4907   -0.5692 C   0  0  0  0  0  0  0  0  0  0  0  0
   -0.1146   -5.7738   -0.2044 C   0  0  0  0  0  0  0  0  0  0  0  0
   -0.8492   -6.8705    0.2872 C   0  0  0  0  0  0  0  0  0  0  0  0
   -2.2098   -6.7184    0.7630 C   0  0  0  0  0  0  0  0  0  0  0  0
   -3.4235   -7.9272    0.4580 S   0  0  0  0  0  0  0  0  0  0  0  0
   -4.6193   -7.0879    1.3831 C   0  0  0  0  0  0  0  0  0  0  0  0
   -5.9753   -7.6624    1.5969 C   0  0  0  0  0  0  0  0  0  0  0  0
   -5.9663   -8.6372    2.7772 C   0  0  0  0  0  0  0  0  0  0  0  0
   -4.0950   -5.9412    1.8988 C   0  0  0  0  0  0  0  0  0  0  0  0
   -4.9692   -4.8400    2.8866 Cl  0  0  0  0  0  0  0  0  0  0  0  0
   -2.7392   -5.7220    1.5429 C   0  0  0  0  0  0  0  0  0  0  0  0
   -1.8887   -4.3538    2.1256 Cl  0  0  0  0  0  0  0  0  0  0  0  0
   -0.1843   -8.0945    0.3336 C   0  0  0  0  0  0  0  0  0  0  0  0
    1.1821   -8.2431   -0.0059 C   0  0  0  0  0  0  0  0  0  0  0  0
    1.9421   -7.1226   -0.3750 C   0  0  0  0  0  0  0  0  0  0  0  0
    3.3637   -7.2132   -0.6644 C   0  0  0  0  0  0  0  0  0  0  0  0
    4.0028   -8.3125   -1.8501 S   0  0  0  0  0  0  0  0  0  0  0  0
    5.6257   -7.7502   -1.6152 C   0  0  0  0  0  0  0  0  0  0  0  0
    6.7620   -8.3556   -2.3621 C   0  0  0  0  0  0  0  0  0  0  0  0
    7.0712   -9.7636   -1.8502 C   0  0  0  0  0  0  0  0  0  0  0  0
    5.6533   -6.7764   -0.6632 C   0  0  0  0  0  0  0  0  0  0  0  0
    4.3742   -6.4661   -0.1292 C   0  0  0  0  0  0  0  0  0  0  0  0
    4.1596   -5.3270    1.1278 Cl  0  0  0  0  0  0  0  0  0  0  0  0
    7.0735   -5.9676   -0.1393 Cl  0  0  0  0  0  0  0  0  0  0  0  0
    1.2709   -5.9098   -0.4661 C   0  0  0  0  0  0  0  0  0  0  0  0
    1.9618   -4.4126   -1.0207 S   0  0  0  0  0  0  0  0  0  0  0  0
    1.6285   -9.5852    0.1676 C   0  0  0  0  0  0  0  0  0  0  0  0
    0.6548  -10.4060    0.6099 C   0  0  0  0  0  0  0  0  0  0  0  0
   -0.8611   -9.6129    0.8502 S   0  0  0  0  0  0  0  0  0  0  0  0
    6.2166   -6.4349    5.3886 H   0  0  0  0  0  0  0  0  0  0  0  0
    6.8244   -4.3341    3.9758 H   0  0  0  0  0  0  0  0  0  0  0  0
    9.8455   -0.4483    1.2779 H   0  0  0  0  0  0  0  0  0  0  0  0
    9.7835   -0.7159    3.0315 H   0  0  0  0  0  0  0  0  0  0  0  0
    8.4957    1.6305    1.5513 H   0  0  0  0  0  0  0  0  0  0  0  0
    9.9793    1.7087    2.5078 H   0  0  0  0  0  0  0  0  0  0  0  0
    8.4349    1.3671    3.2967 H   0  0  0  0  0  0  0  0  0  0  0  0
   -3.0871   -4.6749    5.5809 H   0  0  0  0  0  0  0  0  0  0  0  0
   -3.2007   -6.4011    5.1867 H   0  0  0  0  0  0  0  0  0  0  0  0
   -1.9845   -6.9582    7.2906 H   0  0  0  0  0  0  0  0  0  0  0  0
   -3.4404   -6.0191    7.6374 H   0  0  0  0  0  0  0  0  0  0  0  0
   -1.8549   -5.2394    7.6779 H   0  0  0  0  0  0  0  0  0  0  0  0
   -0.0354   -2.6426    2.8085 H   0  0  0  0  0  0  0  0  0  0  0  0
    1.3982    1.6033    1.2540 H   0  0  0  0  0  0  0  0  0  0  0  0
    4.3824    4.6992   -0.2693 H   0  0  0  0  0  0  0  0  0  0  0  0
    4.0467    6.4259   -0.0438 H   0  0  0  0  0  0  0  0  0  0  0  0
    3.0918    6.5308   -2.3487 H   0  0  0  0  0  0  0  0  0  0  0  0
    4.7358    5.8924   -2.3879 H   0  0  0  0  0  0  0  0  0  0  0  0
    3.3643    4.7917   -2.5414 H   0  0  0  0  0  0  0  0  0  0  0  0
   -7.0223   -3.0162   -0.8545 H   0  0  0  0  0  0  0  0  0  0  0  0
   -6.5198   -3.6177    0.7221 H   0  0  0  0  0  0  0  0  0  0  0  0
   -5.5100   -5.0001   -1.0571 H   0  0  0  0  0  0  0  0  0  0  0  0
   -4.7838   -3.5710   -1.7962 H   0  0  0  0  0  0  0  0  0  0  0  0
   -4.2422   -4.1155   -0.2072 H   0  0  0  0  0  0  0  0  0  0  0  0
   -5.4069    2.6693   -0.6431 H   0  0  0  0  0  0  0  0  0  0  0  0
   -7.0842    9.2076   -2.8291 H   0  0  0  0  0  0  0  0  0  0  0  0
   -6.0534   10.9069   -1.5777 H   0  0  0  0  0  0  0  0  0  0  0  0
   -4.2175   12.0433   -0.7730 H   0  0  0  0  0  0  0  0  0  0  0  0
    1.0076    8.0777   -1.3128 H   0  0  0  0  0  0  0  0  0  0  0  0
    0.3486    6.1041   -2.3519 H   0  0  0  0  0  0  0  0  0  0  0  0
   -2.5206    5.9288   -3.4274 H   0  0  0  0  0  0  0  0  0  0  0  0
    0.9216    4.0907   -3.1984 H   0  0  0  0  0  0  0  0  0  0  0  0
    5.6349    2.4120   -5.8048 H   0  0  0  0  0  0  0  0  0  0  0  0
    6.2594    3.4053   -4.4854 H   0  0  0  0  0  0  0  0  0  0  0  0
    5.5671    4.8033   -6.4306 H   0  0  0  0  0  0  0  0  0  0  0  0
    4.5524    5.1642   -5.0310 H   0  0  0  0  0  0  0  0  0  0  0  0
    3.9299    4.1475   -6.3328 H   0  0  0  0  0  0  0  0  0  0  0  0
   -7.4276    0.0584   -2.0195 H   0  0  0  0  0  0  0  0  0  0  0  0
   -7.6738   -0.9908   -3.4247 H   0  0  0  0  0  0  0  0  0  0  0  0
   -7.4082    0.9886   -4.9312 H   0  0  0  0  0  0  0  0  0  0  0  0
   -8.7080    1.2545   -3.7659 H   0  0  0  0  0  0  0  0  0  0  0  0
   -7.1376    2.0239   -3.5257 H   0  0  0  0  0  0  0  0  0  0  0  0
   -1.9225   -2.2131   -1.7041 H   0  0  0  0  0  0  0  0  0  0  0  0
   -1.6246   -4.2063   -0.5359 H   0  0  0  0  0  0  0  0  0  0  0  0
   -6.2941   -8.1872    0.6951 H   0  0  0  0  0  0  0  0  0  0  0  0
   -6.6760   -6.8498    1.7980 H   0  0  0  0  0  0  0  0  0  0  0  0
   -5.2612   -9.4444    2.5931 H   0  0  0  0  0  0  0  0  0  0  0  0
   -5.6736   -8.1225    3.6890 H   0  0  0  0  0  0  0  0  0  0  0  0
   -6.9561   -9.0620    2.9194 H   0  0  0  0  0  0  0  0  0  0  0  0
    7.6371   -7.7157   -2.2391 H   0  0  0  0  0  0  0  0  0  0  0  0
    6.5134   -8.4064   -3.4241 H   0  0  0  0  0  0  0  0  0  0  0  0
    6.2038  -10.4073   -1.9755 H   0  0  0  0  0  0  0  0  0  0  0  0
    7.3332   -9.7338   -0.7957 H   0  0  0  0  0  0  0  0  0  0  0  0
    7.9041  -10.1881   -2.4041 H   0  0  0  0  0  0  0  0  0  0  0  0
    2.6363   -9.9029   -0.0263 H   0  0  0  0  0  0  0  0  0  0  0  0
    0.7230  -11.4549    0.8223 H   0  0  0  0  0  0  0  0  0  0  0  0
  1  2  2  0  0  0  0
  2  3  1  0  0  0  0
  3  4  2  0  0  0  0
  4  5  1  0  0  0  0
  5  6  1  0  0  0  0
  6  7  1  0  0  0  0
  7  8  1  0  0  0  0
  8  9  1  0  0  0  0
  7 10  2  0  0  0  0
 10 11  1  0  0  0  0
 10 12  1  0  0  0  0
 12 13  1  0  0  0  0
  4 14  1  0  0  0  0
 14 15  2  0  0  0  0
 15 16  1  0  0  0  0
 16 17  1  0  0  0  0
 17 18  1  0  0  0  0
 18 19  1  0  0  0  0
 19 20  1  0  0  0  0
 20 21  1  0  0  0  0
 19 22  2  0  0  0  0
 22 23  1  0  0  0  0
 23 24  1  0  0  0  0
 22 25  1  0  0  0  0
 16 26  2  0  0  0  0
 26 27  1  0  0  0  0
 15 28  1  0  0  0  0
 28 29  2  0  0  0  0
 29 30  1  0  0  0  0
 29 31  1  0  0  0  0
 31 32  2  0  0  0  0
 32 33  1  0  0  0  0
 33 34  2  0  0  0  0
 34 35  1  0  0  0  0
 35 36  1  0  0  0  0
 36 37  1  0  0  0  0
 37 38  1  0  0  0  0
 38 39  1  0  0  0  0
 37 40  2  0  0  0  0
 40 41  1  0  0  0  0
 40 42  1  0  0  0  0
 42 43  1  0  0  0  0
 34 44  1  0  0  0  0
 44 45  2  0  0  0  0
 45 46  1  0  0  0  0
 46 47  1  0  0  0  0
 47 48  1  0  0  0  0
 48 49  1  0  0  0  0
 49 50  1  0  0  0  0
 50 51  1  0  0  0  0
 49 52  2  0  0  0  0
 52 53  1  0  0  0  0
 53 54  1  0  0  0  0
 52 55  1  0  0  0  0
 46 56  2  0  0  0  0
 56 57  1  0  0  0  0
 45 58  1  0  0  0  0
 58 59  2  0  0  0  0
 59 60  1  0  0  0  0
 59 61  1  0  0  0  0
 61 62  2  0  0  0  0
 62 63  1  0  0  0  0
 63 64  1  0  0  0  0
 64 65  2  0  0  0  0
 64 66  1  0  0  0  0
 63 67  2  0  0  0  0
 67 68  1  0  0  0  0
 68 69  1  0  0  0  0
 69 70  2  0  0  0  0
 68 71  1  0  0  0  0
 71 72  2  0  0  0  0
 72 73  1  0  0  0  0
 73 74  2  0  0  0  0
 74 75  1  0  0  0  0
 75 76  1  0  0  0  0
 76 77  2  0  0  0  0
 76 78  1  0  0  0  0
 75 79  2  0  0  0  0
 79 80  1  0  0  0  0
 80 81  1  0  0  0  0
 81 82  2  0  0  0  0
 80 83  1  0  0  0  0
 83 84  2  0  0  0  0
 84 85  1  0  0  0  0
 85 86  2  0  0  0  0
 86 87  1  0  0  0  0
 87 88  2  0  0  0  0
 88 89  1  0  0  0  0
 89 90  1  0  0  0  0
 90 91  1  0  0  0  0
 91 92  1  0  0  0  0
 92 93  1  0  0  0  0
 91 94  2  0  0  0  0
 94 95  1  0  0  0  0
 94 96  1  0  0  0  0
 96 97  1  0  0  0  0
 88 98  1  0  0  0  0
 98 99  2  0  0  0  0
 99100  1  0  0  0  0
100101  1  0  0  0  0
101102  1  0  0  0  0
102103  1  0  0  0  0
103104  1  0  0  0  0
104105  1  0  0  0  0
103106  2  0  0  0  0
106107  1  0  0  0  0
107108  1  0  0  0  0
106109  1  0  0  0  0
100110  2  0  0  0  0
110111  1  0  0  0  0
 99112  1  0  0  0  0
112113  2  0  0  0  0
113114  1  0  0  0  0
113115  1  0  0  0  0
115116  2  0  0  0  0
116117  1  0  0  0  0
117118  2  0  0  0  0
118119  1  0  0  0  0
119120  1  0  0  0  0
120121  1  0  0  0  0
121122  1  0  0  0  0
122123  1  0  0  0  0
121124  2  0  0  0  0
124125  1  0  0  0  0
124126  1  0  0  0  0
126127  1  0  0  0  0
118128  1  0  0  0  0
128129  2  0  0  0  0
129130  1  0  0  0  0
130131  1  0  0  0  0
131132  1  0  0  0  0
132133  1  0  0  0  0
133134  1  0  0  0  0
134135  1  0  0  0  0
133136  2  0  0  0  0
136137  1  0  0  0  0
137138  1  0  0  0  0
136139  1  0  0  0  0
130140  2  0  0  0  0
140141  1  0  0  0  0
129142  1  0  0  0  0
142143  2  0  0  0  0
143144  1  0  0  0  0
 27  1  1  0  0  0  0
 57 31  1  0  0  0  0
 66 61  1  0  0  0  0
 78 73  1  0  0  0  0
111 85  1  0  0  0  0
141115  1  0  0  0  0
 26  3  1  0  0  0  0
 56 33  1  0  0  0  0
 69 62  1  0  0  0  0
 81 74  1  0  0  0  0
110 87  1  0  0  0  0
140117  1  0  0  0  0
 12  5  2  0  0  0  0
 30 14  1  0  0  0  0
 42 35  2  0  0  0  0
 60 44  1  0  0  0  0
 96 89  2  0  0  0  0
114 98  1  0  0  0  0
126119  2  0  0  0  0
144128  1  0  0  0  0
 23 17  2  0  0  0  0
 53 47  2  0  0  0  0
107101  2  0  0  0  0
137131  2  0  0  0  0
  1145  1  0  0  0  0
  2146  1  0  0  0  0
  8147  1  0  0  0  0
  8148  1  0  0  0  0
  9149  1  0  0  0  0
  9150  1  0  0  0  0
  9151  1  0  0  0  0
 20152  1  0  0  0  0
 20153  1  0  0  0  0
 21154  1  0  0  0  0
 21155  1  0  0  0  0
 21156  1  0  0  0  0
 28157  1  0  0  0  0
 32158  1  0  0  0  0
 38159  1  0  0  0  0
 38160  1  0  0  0  0
 39161  1  0  0  0  0
 39162  1  0  0  0  0
 39163  1  0  0  0  0
 50164  1  0  0  0  0
 50165  1  0  0  0  0
 51166  1  0  0  0  0
 51167  1  0  0  0  0
 51168  1  0  0  0  0
 58169  1  0  0  0  0
 67170  1  0  0  0  0
 71171  1  0  0  0  0
 72172  1  0  0  0  0
 79173  1  0  0  0  0
 83174  1  0  0  0  0
 84175  1  0  0  0  0
 86176  1  0  0  0  0
 92177  1  0  0  0  0
 92178  1  0  0  0  0
 93179  1  0  0  0  0
 93180  1  0  0  0  0
 93181  1  0  0  0  0
104182  1  0  0  0  0
104183  1  0  0  0  0
105184  1  0  0  0  0
105185  1  0  0  0  0
105186  1  0  0  0  0
112187  1  0  0  0  0
116188  1  0  0  0  0
122189  1  0  0  0  0
122190  1  0  0  0  0
123191  1  0  0  0  0
123192  1  0  0  0  0
123193  1  0  0  0  0
134194  1  0  0  0  0
134195  1  0  0  0  0
135196  1  0  0  0  0
135197  1  0  0  0  0
135198  1  0  0  0  0
142199  1  0  0  0  0
143200  1  0  0  0  0
M  END
