227

C          3.30370       -6.99490        5.79180
C          2.77210       -6.63460        4.60630
C          2.08910       -5.38250        4.65250
C          1.47970       -4.66490        3.60100
C          1.63770       -5.08860        2.21980
S          1.46480       -6.74560        1.70810
C          1.95230       -6.39730        0.08530
C          2.13710       -7.47720       -0.92270
C          3.59990       -7.92550       -0.97290
C          2.22590       -5.06870       -0.03970
Cl         2.75890       -4.32380       -1.48790
C          2.05750       -4.32750        1.15900
Cl         2.51390       -2.67790        1.23060
C          0.85580       -3.46440        3.93950
C          0.94390       -2.90830        5.24020
C          1.65040       -3.56710        6.25730
C          1.88700       -2.92200        7.53820
S          1.49930       -3.69160        9.04800
C          2.07580       -2.34770        9.97250
C          1.98240       -2.33700       11.45800
C          0.60140       -1.86370       11.91790
C          2.53250       -1.36550        9.14530
C          2.43510       -1.68870        7.76500
Cl         3.02850       -0.64670        6.53560
Cl         3.17650        0.12820        9.69130
C          2.15660       -4.82250        5.95020
S          3.04210       -5.84030        7.04970
C          0.32910       -1.63960        5.32380
C         -0.19070       -1.20130        4.14260
S         -0.06250       -2.41720        2.88530
C         -0.56400        0.15420        3.88480
C         -1.08550        0.74410        2.77290
C         -1.08130        2.16290        2.83310
C         -1.56770        3.09570        1.91220
C         -2.26390        2.84590        0.64760
S         -1.39740        2.49750       -0.81990
C         -2.76280        2.89140       -1.80990
C         -2.66320        2.88880       -3.29250
C         -1.77680        4.03540       -3.77740
C         -3.82040        3.26120       -1.03530
Cl        -5.33660        3.76350       -1.65310
C         -3.53840        3.24280        0.35560
Cl        -4.68680        3.67610        1.55270
C         -1.29510        4.43230        2.16850
C         -0.51680        4.90280        3.24950
C         -0.12930        3.98030        4.23740
C          0.60090        4.40580        5.41960
S         -0.01630        5.69230        6.41550
C          1.29880        5.56680        7.53270
C          1.36100        6.41240        8.75630
C          0.60980        5.75150        9.91470
C          2.15740        4.58300        7.14240
C          1.77270        3.92900        5.94090
Cl         2.75880        2.73920        5.20100
Cl         3.57940        4.15790        8.00310
C         -0.45150        2.64510        4.01440
S         -0.06370        1.33590        5.08470
C         -0.11450        6.25530        3.05850
C         -0.60030        6.80240        1.90830
S         -1.67440        5.69950        1.05190
C         -0.17800        7.89970        1.08940
C         -0.83070        8.24730       -0.05840
C          0.01570        8.76750       -1.06100
C         -0.28250        8.86500       -2.43120
C         -1.61800        8.70860       -2.97580
S         -2.69610        7.43150       -2.49340
C         -3.90550        7.90090       -3.63430
C         -5.17260        7.13210       -3.77560
C         -5.07670        6.11790       -4.91810
C         -3.48710        8.98760       -4.34400
Cl        -4.42670        9.75220       -5.55860
C         -2.19280        9.44270       -3.98010
Cl        -1.47550       10.82900       -4.68670
C          0.81650        8.92910       -3.28230
C          2.14230        9.10890       -2.82410
C          2.40370        9.24540       -1.44050
C          3.72990        9.58210       -0.97480
S          4.46530        8.83100        0.41110
C          5.90030        9.78660        0.26770
C          7.00830        9.66300        1.25360
C          6.69920       10.46160        2.52240
C          5.79620       10.64610       -0.78640
C          4.57400       10.53040       -1.49750
Cl         4.18530       11.55910       -2.81450
Cl         7.01600       11.76800       -1.23120
C          1.34380        8.94030       -0.59250
S          1.47630        8.49240        1.09420
C          3.09010        8.83070       -3.84310
C          2.51160        8.37760       -4.99360
S          0.76950        8.47100       -4.95570
C          3.12990        7.59100       -6.02280
C          2.74100        6.30950       -6.31160
C          3.56890        5.61170       -7.25490
C          4.63350        6.39170       -7.80980
O          5.47680        6.16410       -8.62280
S          4.53800        8.04660       -6.94270
C          3.18250        4.29550       -7.26340
N          2.15740        4.11510       -6.38420
C          1.81670        5.35670       -5.74310
O          0.95620        5.44380       -4.90060
C          1.55690        2.95400       -5.95200
C          1.83160        1.69350       -6.32180
C          1.22800        0.56200       -5.68490
C          1.50380       -0.75660       -5.91150
C          0.83850       -1.64550       -5.02900
C          0.93480       -3.05130       -4.97150
C          1.61120       -3.79160       -6.02310
S          1.19730       -3.48700       -7.68910
C          2.28190       -4.70290       -8.26840
C          2.38820       -5.02240       -9.71850
C          1.37140       -6.09550      -10.11560
C          2.91570       -5.30440       -7.22290
Cl         4.07260       -6.55910       -7.40290
C          2.54160       -4.79170       -5.95120
Cl         3.28180       -5.33710       -4.50870
C          0.30380       -3.67990       -3.90310
C         -0.45560       -2.96030       -2.94800
C         -0.66850       -1.58030       -3.08700
C         -1.70540       -0.94730       -2.27950
S         -1.71080       -0.93250       -0.54380
C         -3.34500       -0.35170       -0.47110
C         -4.05710       -0.18870        0.82690
C         -4.03970       -1.48450        1.63680
C         -3.82940       -0.15980       -1.73010
C         -2.90480       -0.49920       -2.75440
Cl        -3.30590       -0.45140       -4.42330
Cl        -5.41240        0.39800       -2.08150
C          0.02400       -0.94480       -4.10370
S          0.07230        0.76920       -4.38170
C         -0.98540       -3.79990       -1.94530
C         -0.68610       -5.11550       -2.11770
S          0.24710       -5.39280       -3.57200
C         -1.02710       -6.13860       -1.18410
C         -1.07500       -7.48910       -1.32550
C         -1.43750       -8.16310       -0.12960
C         -1.52920       -9.54690        0.07850
C         -1.36380      -10.48240       -1.02090
S         -0.21670      -11.78610       -0.94720
C         -0.64740      -12.35620       -2.52330
C          0.05160      -13.51550       -3.14240
C          1.34940      -13.07310       -3.82280
C         -1.61920      -11.56790       -3.06430
Cl        -2.30700      -11.82410       -4.61550
C         -2.02890      -10.50520       -2.21550
Cl        -3.28750       -9.41580       -2.63510
C         -1.79130       -9.97140        1.37510
C         -1.95800       -9.08220        2.46220
C         -1.86770       -7.69240        2.25780
C         -1.92960       -6.75990        3.36960
S         -1.02330       -7.08190        4.82440
C         -1.56180       -5.62880        5.58860
C         -1.22110       -5.29320        6.99970
C         -0.60370       -6.46520        7.74800
C         -2.35820       -4.92230        4.73690
C         -2.57960       -5.56020        3.48810
Cl        -3.68690       -4.92380        2.34990
Cl        -3.04670       -3.40200        5.13710
C         -1.63980       -7.26860        0.95110
S         -1.44260       -5.62100        0.43830
C         -2.25810       -9.78800        3.66440
C         -2.30620      -11.12470        3.49290
S         -1.99110      -11.62790        1.87000
H          3.85270       -7.88720        6.01990
H          2.85340       -7.24180        3.72550
H          1.84420       -7.10110       -1.90520
H          1.50310       -8.32740       -0.66630
H          3.91560       -8.30320       -0.00330
H          4.24000       -7.09120       -1.24770
H          3.71990       -8.71360       -1.71110
H          2.74820       -1.66550       11.85050
H          2.16810       -3.34230       11.83990
H          0.40860       -0.85730       11.55530
H         -0.17120       -2.52600       11.53450
H          0.55100       -1.85890       13.00320
H          0.29890       -1.05160        6.22280
H         -1.40880        0.18710        1.91260
H         -3.66800        2.98500       -3.70750
H         -2.23600        1.94560       -3.63270
H         -0.76870        3.92740       -3.38700
H         -1.73130        4.04310       -4.86290
H         -2.16610        4.99050       -3.43690
H          0.92040        7.38830        8.54580
H          2.40790        6.55140        9.03310
H          1.04600        4.78190       10.14100
H          0.66820        6.37600       10.80210
H         -0.43650        5.61020        9.65440
H          0.56340        6.77120        3.71490
H         -1.86450        8.00490       -0.22020
H         -5.98860        7.82920       -3.97780
H         -5.38070        6.60770       -2.84200
H         -4.27060        5.41380       -4.73110
H         -4.88460        6.62590       -5.85960
H         -6.00930        5.56650       -5.00190
H          7.92630       10.03820        0.79800
H          7.14830        8.61220        1.51280
H          7.51620       10.36460        3.23210
H          5.78680       10.09360        2.98550
H          6.56850       11.51390        2.28300
H          4.15360        8.82310       -3.68610
H          3.59330        3.47920       -7.82700
H          0.81440        3.15440       -5.18860
H          2.56110        1.46870       -7.08700
H          2.19690       -1.08320       -6.66560
H          3.39770       -5.38300       -9.92560
H          2.21100       -4.11840      -10.30330
H          0.35980       -5.74850       -9.91890
H          1.54350       -7.00570       -9.54690
H          1.46320       -6.32270      -11.17410
H         -3.59610        0.60940        1.41340
H         -5.08590        0.10660        0.61380
H         -3.01740       -1.78930        1.85250
H         -4.56440       -1.34470        2.57800
H         -4.52700       -2.28360        1.08350
H         -1.55880       -3.44910       -1.10750
H         -0.84840       -7.98810       -2.24990
H          0.27870      -14.25480       -2.37250
H         -0.61170      -13.97000       -3.88060
H          1.13730      -12.34490       -4.60150
H          1.84560      -13.92890       -4.27190
H          2.02040      -12.62090       -3.09630
H         -0.53270       -4.44430        7.01290
H         -2.13670       -4.96690        7.50150
H         -1.30420       -7.29490        7.80240
H         -0.33440       -6.16380        8.75630
H          0.29390       -6.80890        7.24050
H         -2.44610       -9.30800        4.60630
H         -2.51670      -11.87480        4.22980
