
  xtb     03042205283D
 energy: -375.867913975231 gnorm: 0.000259989880 xtb: 6.4.1 (unknown)
216237  0     0  0            999 V2000
    5.1841   -4.0237   10.7608 C   0  0  0  0  0  0  0  0  0  0  0  0
    5.8710   -2.8692   10.6511 C   0  0  0  0  0  0  0  0  0  0  0  0
    5.7439   -2.2662    9.3638 C   0  0  0  0  0  0  0  0  0  0  0  0
    6.3073   -1.0647    8.9089 C   0  0  0  0  0  0  0  0  0  0  0  0
    7.2142   -0.2690    9.7463 C   0  0  0  0  0  0  0  0  0  0  0  0
    8.3345   -0.8502   10.3378 C   0  0  0  0  0  0  0  0  0  0  0  0
    9.2113   -0.0869   11.0784 C   0  0  0  0  0  0  0  0  0  0  0  0
    8.9994    1.2765   11.2731 C   0  0  0  0  0  0  0  0  0  0  0  0
   10.1745    2.1522   12.2640 S   0  0  0  0  0  0  0  0  0  0  0  0
   10.3893    3.7409   11.3785 C   0  0  0  0  0  0  0  0  0  0  0  0
   10.8244    3.5358    9.9416 C   0  0  0  0  0  0  0  0  0  0  0  0
    7.8564    1.8343   10.7086 C   0  0  0  0  0  0  0  0  0  0  0  0
    7.5572    3.1379   10.8972 F   0  0  0  0  0  0  0  0  0  0  0  0
    6.9848    1.0883    9.9416 C   0  0  0  0  0  0  0  0  0  0  0  0
    5.9841   -0.6734    7.6184 C   0  0  0  0  0  0  0  0  0  0  0  0
    5.1715   -1.4521    6.7587 C   0  0  0  0  0  0  0  0  0  0  0  0
    4.6121   -2.6570    7.2103 C   0  0  0  0  0  0  0  0  0  0  0  0
    3.7460   -3.4552    6.3330 C   0  0  0  0  0  0  0  0  0  0  0  0
    4.1619   -3.8288    5.0558 C   0  0  0  0  0  0  0  0  0  0  0  0
    3.3273   -4.5488    4.2278 C   0  0  0  0  0  0  0  0  0  0  0  0
    2.0422   -4.9067    4.6306 C   0  0  0  0  0  0  0  0  0  0  0  0
    1.0175   -5.7498    3.4542 S   0  0  0  0  0  0  0  0  0  0  0  0
    0.1577   -7.0272    4.4384 C   0  0  0  0  0  0  0  0  0  0  0  0
    1.1310   -7.9414    5.1537 C   0  0  0  0  0  0  0  0  0  0  0  0
    1.6369   -4.5182    5.9034 C   0  0  0  0  0  0  0  0  0  0  0  0
    2.4728   -3.8236    6.7538 C   0  0  0  0  0  0  0  0  0  0  0  0
    0.3908   -4.7976    6.3447 F   0  0  0  0  0  0  0  0  0  0  0  0
    4.8998   -3.0239    8.5164 C   0  0  0  0  0  0  0  0  0  0  0  0
    4.3294   -4.4632    9.3210 S   0  0  0  0  0  0  0  0  0  0  0  0
    5.0027   -0.8345    5.4958 C   0  0  0  0  0  0  0  0  0  0  0  0
    5.6535    0.3566    5.3685 C   0  0  0  0  0  0  0  0  0  0  0  0
    6.5280    0.7865    6.8254 S   0  0  0  0  0  0  0  0  0  0  0  0
    5.6290    1.2000    4.2202 C   0  0  0  0  0  0  0  0  0  0  0  0
    5.9848    2.5200    4.1081 C   0  0  0  0  0  0  0  0  0  0  0  0
    5.7685    3.0983    2.8464 C   0  0  0  0  0  0  0  0  0  0  0  0
    5.2695    2.2532    1.8892 C   0  0  0  0  0  0  0  0  0  0  0  0
    4.9924    0.5256    2.5834 Se  0  0  0  0  0  2  0  0  0  0  0  0
    4.8853    2.5234    0.5432 C   0  0  0  0  0  0  0  0  0  0  0  0
    4.6680    1.5842   -0.4199 C   0  0  0  0  0  0  0  0  0  0  0  0
    4.1580    2.1070   -1.6315 C   0  0  0  0  0  0  0  0  0  0  0  0
    3.7224    1.3836   -2.7524 C   0  0  0  0  0  0  0  0  0  0  0  0
    3.8214   -0.0807   -2.7980 C   0  0  0  0  0  0  0  0  0  0  0  0
    2.6860   -0.8527   -3.0335 C   0  0  0  0  0  0  0  0  0  0  0  0
    2.7430   -2.2315   -3.0441 C   0  0  0  0  0  0  0  0  0  0  0  0
    3.9457   -2.8947   -2.8232 C   0  0  0  0  0  0  0  0  0  0  0  0
    4.1454   -4.6396   -2.7891 S   0  0  0  0  0  0  0  0  0  0  0  0
    2.6138   -5.2838   -3.5426 C   0  0  0  0  0  0  0  0  0  0  0  0
    2.5277   -4.9816   -5.0259 C   0  0  0  0  0  0  0  0  0  0  0  0
    5.0745   -2.1087   -2.5784 C   0  0  0  0  0  0  0  0  0  0  0  0
    6.2581   -2.7134   -2.3428 F   0  0  0  0  0  0  0  0  0  0  0  0
    5.0299   -0.7326   -2.5608 C   0  0  0  0  0  0  0  0  0  0  0  0
    3.0816    2.1113   -3.7417 C   0  0  0  0  0  0  0  0  0  0  0  0
    2.8190    3.5006   -3.6434 C   0  0  0  0  0  0  0  0  0  0  0  0
    3.2642    4.2215   -2.5215 C   0  0  0  0  0  0  0  0  0  0  0  0
    2.8727    5.6230   -2.3182 C   0  0  0  0  0  0  0  0  0  0  0  0
    1.5241    5.9772   -2.3605 C   0  0  0  0  0  0  0  0  0  0  0  0
    1.1303    7.2777   -2.1358 C   0  0  0  0  0  0  0  0  0  0  0  0
    2.0639    8.2788   -1.8777 C   0  0  0  0  0  0  0  0  0  0  0  0
    1.4512    9.9271   -1.6669 S   0  0  0  0  0  0  0  0  0  0  0  0
    2.4285   10.5819   -0.2656 C   0  0  0  0  0  0  0  0  0  0  0  0
    2.2866    9.7213    0.9733 C   0  0  0  0  0  0  0  0  0  0  0  0
    3.4063    7.9146   -1.8521 C   0  0  0  0  0  0  0  0  0  0  0  0
    3.8126    6.6083   -2.0451 C   0  0  0  0  0  0  0  0  0  0  0  0
    4.3684    8.8385   -1.6371 F   0  0  0  0  0  0  0  0  0  0  0  0
    3.9576    3.5085   -1.5562 C   0  0  0  0  0  0  0  0  0  0  0  0
    4.5033    4.1422   -0.0194 S   0  0  0  0  0  0  0  0  0  0  0  0
    1.9905    3.9579   -4.7013 C   0  0  0  0  0  0  0  0  0  0  0  0
    1.6074    2.9667   -5.5575 C   0  0  0  0  0  0  0  0  0  0  0  0
    2.3722    1.4321   -5.1778 S   0  0  0  0  0  0  0  0  0  0  0  0
    0.4431    2.9113   -6.3896 C   0  0  0  0  0  0  0  0  0  0  0  0
   -0.6910    3.6496   -6.2013 C   0  0  0  0  0  0  0  0  0  0  0  0
   -1.8701    2.9875   -6.6284 C   0  0  0  0  0  0  0  0  0  0  0  0
   -3.1941    3.3142   -6.2823 C   0  0  0  0  0  0  0  0  0  0  0  0
   -3.5126    4.5695   -5.5852 C   0  0  0  0  0  0  0  0  0  0  0  0
   -4.4580    5.4556   -6.0948 C   0  0  0  0  0  0  0  0  0  0  0  0
   -4.7002    6.6589   -5.4664 C   0  0  0  0  0  0  0  0  0  0  0  0
   -4.0292    7.0206   -4.2985 C   0  0  0  0  0  0  0  0  0  0  0  0
   -4.4347    8.5876   -3.5884 S   0  0  0  0  0  0  0  0  0  0  0  0
   -2.8609    9.2007   -2.8772 C   0  0  0  0  0  0  0  0  0  0  0  0
   -1.7612    9.3047   -3.9140 C   0  0  0  0  0  0  0  0  0  0  0  0
   -3.1390    6.0935   -3.7655 C   0  0  0  0  0  0  0  0  0  0  0  0
   -2.4908    6.3333   -2.6016 F   0  0  0  0  0  0  0  0  0  0  0  0
   -2.8713    4.8953   -4.3948 C   0  0  0  0  0  0  0  0  0  0  0  0
   -4.1434    2.3248   -6.4768 C   0  0  0  0  0  0  0  0  0  0  0  0
   -3.8395    1.0801   -7.0792 C   0  0  0  0  0  0  0  0  0  0  0  0
   -2.5477    0.8080   -7.5593 C   0  0  0  0  0  0  0  0  0  0  0  0
   -2.2584   -0.4807   -8.2006 C   0  0  0  0  0  0  0  0  0  0  0  0
   -3.0309   -0.9022   -9.2794 C   0  0  0  0  0  0  0  0  0  0  0  0
   -2.7908   -2.1097   -9.9058 C   0  0  0  0  0  0  0  0  0  0  0  0
   -1.7793   -2.9526   -9.4591 C   0  0  0  0  0  0  0  0  0  0  0  0
   -1.3508   -4.5089  -10.1633 S   0  0  0  0  0  0  0  0  0  0  0  0
   -2.7356   -4.8925  -11.2898 C   0  0  0  0  0  0  0  0  0  0  0  0
   -4.0023   -5.2641  -10.5422 C   0  0  0  0  0  0  0  0  0  0  0  0
   -1.0189   -2.5208   -8.3702 C   0  0  0  0  0  0  0  0  0  0  0  0
   -1.2382   -1.3136   -7.7466 C   0  0  0  0  0  0  0  0  0  0  0  0
   -0.0379   -3.3179   -7.9033 F   0  0  0  0  0  0  0  0  0  0  0  0
   -1.5783    1.7490   -7.2568 C   0  0  0  0  0  0  0  0  0  0  0  0
    0.1430    1.4821   -7.3578 S   0  0  0  0  0  0  0  0  0  0  0  0
   -4.8333    0.1084   -6.8062 C   0  0  0  0  0  0  0  0  0  0  0  0
   -5.8308    0.5507   -5.9890 C   0  0  0  0  0  0  0  0  0  0  0  0
   -5.7196    2.2873   -5.7103 S   0  0  0  0  0  0  0  0  0  0  0  0
   -6.5949   -0.2909   -5.1164 C   0  0  0  0  0  0  0  0  0  0  0  0
   -7.7097   -0.0438   -4.3588 C   0  0  0  0  0  0  0  0  0  0  0  0
   -7.9641   -0.9731   -3.3303 C   0  0  0  0  0  0  0  0  0  0  0  0
   -7.0334   -1.9730   -3.1968 C   0  0  0  0  0  0  0  0  0  0  0  0
   -5.7307   -1.8723   -4.5449 Se  0  0  0  0  0  2  0  0  0  0  0  0
   -6.8346   -2.9101   -2.1307 C   0  0  0  0  0  0  0  0  0  0  0  0
   -7.6935   -3.4819   -1.2443 C   0  0  0  0  0  0  0  0  0  0  0  0
   -7.0444   -4.2888   -0.2659 C   0  0  0  0  0  0  0  0  0  0  0  0
   -7.6219   -4.9877    0.8062 C   0  0  0  0  0  0  0  0  0  0  0  0
   -9.0779   -5.0799    0.9626 C   0  0  0  0  0  0  0  0  0  0  0  0
   -9.8775   -5.4819   -0.1040 C   0  0  0  0  0  0  0  0  0  0  0  0
  -11.2476   -5.5948    0.0296 C   0  0  0  0  0  0  0  0  0  0  0  0
  -11.8717   -5.2940    1.2350 C   0  0  0  0  0  0  0  0  0  0  0  0
  -13.6011   -5.4053    1.5516 S   0  0  0  0  0  0  0  0  0  0  0  0
  -14.3537   -5.5512   -0.1060 C   0  0  0  0  0  0  0  0  0  0  0  0
  -14.2676   -4.2584   -0.8949 C   0  0  0  0  0  0  0  0  0  0  0  0
  -11.0567   -4.8983    2.2977 C   0  0  0  0  0  0  0  0  0  0  0  0
  -11.6280   -4.6016    3.4817 F   0  0  0  0  0  0  0  0  0  0  0  0
   -9.6894   -4.7933    2.1812 C   0  0  0  0  0  0  0  0  0  0  0  0
   -6.7468   -5.6071    1.6899 C   0  0  0  0  0  0  0  0  0  0  0  0
   -5.3382   -5.5636    1.5521 C   0  0  0  0  0  0  0  0  0  0  0  0
   -4.7589   -4.8800    0.4743 C   0  0  0  0  0  0  0  0  0  0  0  0
   -3.3067   -4.7217    0.3167 C   0  0  0  0  0  0  0  0  0  0  0  0
   -2.5243   -4.2452    1.3656 C   0  0  0  0  0  0  0  0  0  0  0  0
   -1.1772   -3.9843    1.1988 C   0  0  0  0  0  0  0  0  0  0  0  0
   -0.5620   -4.1961   -0.0297 C   0  0  0  0  0  0  0  0  0  0  0  0
    1.1254   -3.8646   -0.4007 S   0  0  0  0  0  0  0  0  0  0  0  0
    1.7389   -2.9714    1.0691 C   0  0  0  0  0  0  0  0  0  0  0  0
    3.1403   -2.4685    0.7782 C   0  0  0  0  0  0  0  0  0  0  0  0
   -1.3505   -4.7069   -1.0624 C   0  0  0  0  0  0  0  0  0  0  0  0
   -2.6930   -4.9651   -0.9114 C   0  0  0  0  0  0  0  0  0  0  0  0
   -0.7741   -4.9432   -2.2613 F   0  0  0  0  0  0  0  0  0  0  0  0
   -5.6364   -4.2826   -0.4199 C   0  0  0  0  0  0  0  0  0  0  0  0
   -5.1642   -3.3434   -1.8060 S   0  0  0  0  0  0  0  0  0  0  0  0
   -4.6848   -6.3138    2.5750 C   0  0  0  0  0  0  0  0  0  0  0  0
   -5.5482   -6.8879    3.4364 C   0  0  0  0  0  0  0  0  0  0  0  0
   -7.2092   -6.5627    3.0756 S   0  0  0  0  0  0  0  0  0  0  0  0
    5.1095   -4.6684   11.6146 H   0  0  0  0  0  0  0  0  0  0  0  0
    6.4430   -2.4364   11.4516 H   0  0  0  0  0  0  0  0  0  0  0  0
    8.5350   -1.8996   10.1834 H   0  0  0  0  0  0  0  0  0  0  0  0
   10.0885   -0.5346   11.5191 H   0  0  0  0  0  0  0  0  0  0  0  0
    9.4671    4.3134   11.4483 H   0  0  0  0  0  0  0  0  0  0  0  0
   11.1645    4.2440   11.9565 H   0  0  0  0  0  0  0  0  0  0  0  0
   11.7308    2.9354    9.8987 H   0  0  0  0  0  0  0  0  0  0  0  0
   11.0213    4.5004    9.4782 H   0  0  0  0  0  0  0  0  0  0  0  0
   10.0487    3.0317    9.3678 H   0  0  0  0  0  0  0  0  0  0  0  0
    6.1140    1.5725    9.5277 H   0  0  0  0  0  0  0  0  0  0  0  0
    5.1560   -3.5742    4.7214 H   0  0  0  0  0  0  0  0  0  0  0  0
    3.6605   -4.8472    3.2458 H   0  0  0  0  0  0  0  0  0  0  0  0
   -0.4174   -7.5709    3.6881 H   0  0  0  0  0  0  0  0  0  0  0  0
   -0.5282   -6.5394    5.1279 H   0  0  0  0  0  0  0  0  0  0  0  0
    1.7016   -7.3932    5.9016 H   0  0  0  0  0  0  0  0  0  0  0  0
    0.5836   -8.7367    5.6556 H   0  0  0  0  0  0  0  0  0  0  0  0
    1.8268   -8.3881    4.4463 H   0  0  0  0  0  0  0  0  0  0  0  0
    2.1037   -3.5417    7.7274 H   0  0  0  0  0  0  0  0  0  0  0  0
    4.3886   -1.2400    4.7072 H   0  0  0  0  0  0  0  0  0  0  0  0
    6.3793    3.0735    4.9442 H   0  0  0  0  0  0  0  0  0  0  0  0
    5.9815    4.1328    2.6337 H   0  0  0  0  0  0  0  0  0  0  0  0
    4.8416    0.5335   -0.2478 H   0  0  0  0  0  0  0  0  0  0  0  0
    1.7329   -0.3689   -3.1824 H   0  0  0  0  0  0  0  0  0  0  0  0
    1.8362   -2.7896   -3.2042 H   0  0  0  0  0  0  0  0  0  0  0  0
    2.6830   -6.3576   -3.3688 H   0  0  0  0  0  0  0  0  0  0  0  0
    1.7630   -4.8994   -2.9838 H   0  0  0  0  0  0  0  0  0  0  0  0
    3.3699   -5.4236   -5.5533 H   0  0  0  0  0  0  0  0  0  0  0  0
    1.6064   -5.3943   -5.4308 H   0  0  0  0  0  0  0  0  0  0  0  0
    2.5315   -3.9101   -5.2123 H   0  0  0  0  0  0  0  0  0  0  0  0
    5.9386   -0.1775   -2.3865 H   0  0  0  0  0  0  0  0  0  0  0  0
    0.7781    5.2168   -2.5332 H   0  0  0  0  0  0  0  0  0  0  0  0
    0.0843    7.5391   -2.1488 H   0  0  0  0  0  0  0  0  0  0  0  0
    2.0055   11.5741   -0.1078 H   0  0  0  0  0  0  0  0  0  0  0  0
    3.4660   10.6839   -0.5762 H   0  0  0  0  0  0  0  0  0  0  0  0
    2.7047    8.7298    0.8080 H   0  0  0  0  0  0  0  0  0  0  0  0
    2.8180   10.1840    1.8025 H   0  0  0  0  0  0  0  0  0  0  0  0
    1.2386    9.6129    1.2457 H   0  0  0  0  0  0  0  0  0  0  0  0
    4.8664    6.3795   -2.0088 H   0  0  0  0  0  0  0  0  0  0  0  0
    1.6616    4.9767   -4.7960 H   0  0  0  0  0  0  0  0  0  0  0  0
   -0.6945    4.5794   -5.6638 H   0  0  0  0  0  0  0  0  0  0  0  0
   -4.9835    5.2086   -7.0045 H   0  0  0  0  0  0  0  0  0  0  0  0
   -5.4156    7.3543   -5.8769 H   0  0  0  0  0  0  0  0  0  0  0  0
   -2.5796    8.5658   -2.0402 H   0  0  0  0  0  0  0  0  0  0  0  0
   -3.1319   10.1852   -2.4961 H   0  0  0  0  0  0  0  0  0  0  0  0
   -0.8713    9.7369   -3.4596 H   0  0  0  0  0  0  0  0  0  0  0  0
   -1.5032    8.3241   -4.3106 H   0  0  0  0  0  0  0  0  0  0  0  0
   -2.0756    9.9375   -4.7410 H   0  0  0  0  0  0  0  0  0  0  0  0
   -2.1854    4.2061   -3.9263 H   0  0  0  0  0  0  0  0  0  0  0  0
   -3.8221   -0.2646   -9.6452 H   0  0  0  0  0  0  0  0  0  0  0  0
   -3.3989   -2.3849  -10.7520 H   0  0  0  0  0  0  0  0  0  0  0  0
   -2.3653   -5.7396  -11.8673 H   0  0  0  0  0  0  0  0  0  0  0  0
   -2.8799   -4.0509  -11.9660 H   0  0  0  0  0  0  0  0  0  0  0  0
   -3.8202   -6.1246   -9.9027 H   0  0  0  0  0  0  0  0  0  0  0  0
   -4.7898   -5.5163  -11.2499 H   0  0  0  0  0  0  0  0  0  0  0  0
   -4.3452   -4.4416   -9.9181 H   0  0  0  0  0  0  0  0  0  0  0  0
   -0.6301   -1.0491   -6.8969 H   0  0  0  0  0  0  0  0  0  0  0  0
   -4.7340   -0.9285   -7.0879 H   0  0  0  0  0  0  0  0  0  0  0  0
   -8.3258    0.8262   -4.5160 H   0  0  0  0  0  0  0  0  0  0  0  0
   -8.7869   -0.8607   -2.6443 H   0  0  0  0  0  0  0  0  0  0  0  0
   -8.7573   -3.3286   -1.2701 H   0  0  0  0  0  0  0  0  0  0  0  0
   -9.4164   -5.7371   -1.0465 H   0  0  0  0  0  0  0  0  0  0  0  0
  -11.8254   -5.9315   -0.8158 H   0  0  0  0  0  0  0  0  0  0  0  0
  -15.3917   -5.8042    0.1093 H   0  0  0  0  0  0  0  0  0  0  0  0
  -13.8947   -6.3905   -0.6270 H   0  0  0  0  0  0  0  0  0  0  0  0
  -13.2320   -3.9722   -1.0661 H   0  0  0  0  0  0  0  0  0  0  0  0
  -14.7591   -3.4550   -0.3513 H   0  0  0  0  0  0  0  0  0  0  0  0
  -14.7593   -4.3788   -1.8585 H   0  0  0  0  0  0  0  0  0  0  0  0
   -9.1140   -4.4689    3.0335 H   0  0  0  0  0  0  0  0  0  0  0  0
   -2.9836   -4.0419    2.3213 H   0  0  0  0  0  0  0  0  0  0  0  0
   -0.6073   -3.6122    2.0337 H   0  0  0  0  0  0  0  0  0  0  0  0
    1.0588   -2.1419    1.2627 H   0  0  0  0  0  0  0  0  0  0  0  0
    1.7355   -3.6674    1.9075 H   0  0  0  0  0  0  0  0  0  0  0  0
    3.1278   -1.7665   -0.0535 H   0  0  0  0  0  0  0  0  0  0  0  0
    3.7983   -3.2944    0.5178 H   0  0  0  0  0  0  0  0  0  0  0  0
    3.5428   -1.9628    1.6569 H   0  0  0  0  0  0  0  0  0  0  0  0
   -3.2481   -5.3610   -1.7471 H   0  0  0  0  0  0  0  0  0  0  0  0
   -3.6170   -6.4214    2.6340 H   0  0  0  0  0  0  0  0  0  0  0  0
   -5.3222   -7.5002    4.2876 H   0  0  0  0  0  0  0  0  0  0  0  0
  1  2  2  0  0  0  0
  2  3  1  0  0  0  0
  3  4  2  0  0  0  0
  4  5  1  0  0  0  0
  5  6  2  0  0  0  0
  6  7  1  0  0  0  0
  7  8  2  0  0  0  0
  8  9  1  0  0  0  0
  9 10  1  0  0  0  0
 10 11  1  0  0  0  0
  8 12  1  0  0  0  0
 12 13  1  0  0  0  0
 12 14  2  0  0  0  0
  4 15  1  0  0  0  0
 15 16  2  0  0  0  0
 16 17  1  0  0  0  0
 17 18  1  0  0  0  0
 18 19  2  0  0  0  0
 19 20  1  0  0  0  0
 20 21  2  0  0  0  0
 21 22  1  0  0  0  0
 22 23  1  0  0  0  0
 23 24  1  0  0  0  0
 21 25  1  0  0  0  0
 25 26  2  0  0  0  0
 25 27  1  0  0  0  0
 17 28  2  0  0  0  0
 28 29  1  0  0  0  0
 16 30  1  0  0  0  0
 30 31  2  0  0  0  0
 31 32  1  0  0  0  0
 31 33  1  0  0  0  0
 33 34  2  0  0  0  0
 34 35  1  0  0  0  0
 35 36  2  0  0  0  0
 36 37  1  0  0  0  0
 36 38  1  0  0  0  0
 38 39  2  0  0  0  0
 39 40  1  0  0  0  0
 40 41  2  0  0  0  0
 41 42  1  0  0  0  0
 42 43  2  0  0  0  0
 43 44  1  0  0  0  0
 44 45  2  0  0  0  0
 45 46  1  0  0  0  0
 46 47  1  0  0  0  0
 47 48  1  0  0  0  0
 45 49  1  0  0  0  0
 49 50  1  0  0  0  0
 49 51  2  0  0  0  0
 41 52  1  0  0  0  0
 52 53  2  0  0  0  0
 53 54  1  0  0  0  0
 54 55  1  0  0  0  0
 55 56  2  0  0  0  0
 56 57  1  0  0  0  0
 57 58  2  0  0  0  0
 58 59  1  0  0  0  0
 59 60  1  0  0  0  0
 60 61  1  0  0  0  0
 58 62  1  0  0  0  0
 62 63  2  0  0  0  0
 62 64  1  0  0  0  0
 54 65  2  0  0  0  0
 65 66  1  0  0  0  0
 53 67  1  0  0  0  0
 67 68  2  0  0  0  0
 68 69  1  0  0  0  0
 68 70  1  0  0  0  0
 70 71  2  0  0  0  0
 71 72  1  0  0  0  0
 72 73  2  0  0  0  0
 73 74  1  0  0  0  0
 74 75  2  0  0  0  0
 75 76  1  0  0  0  0
 76 77  2  0  0  0  0
 77 78  1  0  0  0  0
 78 79  1  0  0  0  0
 79 80  1  0  0  0  0
 77 81  1  0  0  0  0
 81 82  1  0  0  0  0
 81 83  2  0  0  0  0
 73 84  1  0  0  0  0
 84 85  2  0  0  0  0
 85 86  1  0  0  0  0
 86 87  1  0  0  0  0
 87 88  2  0  0  0  0
 88 89  1  0  0  0  0
 89 90  2  0  0  0  0
 90 91  1  0  0  0  0
 91 92  1  0  0  0  0
 92 93  1  0  0  0  0
 90 94  1  0  0  0  0
 94 95  2  0  0  0  0
 94 96  1  0  0  0  0
 86 97  2  0  0  0  0
 97 98  1  0  0  0  0
 85 99  1  0  0  0  0
 99100  2  0  0  0  0
100101  1  0  0  0  0
100102  1  0  0  0  0
102103  2  0  0  0  0
103104  1  0  0  0  0
104105  2  0  0  0  0
105106  1  0  0  0  0
105107  1  0  0  0  0
107108  2  0  0  0  0
108109  1  0  0  0  0
109110  2  0  0  0  0
110111  1  0  0  0  0
111112  2  0  0  0  0
112113  1  0  0  0  0
113114  2  0  0  0  0
114115  1  0  0  0  0
115116  1  0  0  0  0
116117  1  0  0  0  0
114118  1  0  0  0  0
118119  1  0  0  0  0
118120  2  0  0  0  0
110121  1  0  0  0  0
121122  2  0  0  0  0
122123  1  0  0  0  0
123124  1  0  0  0  0
124125  2  0  0  0  0
125126  1  0  0  0  0
126127  2  0  0  0  0
127128  1  0  0  0  0
128129  1  0  0  0  0
129130  1  0  0  0  0
127131  1  0  0  0  0
131132  2  0  0  0  0
131133  1  0  0  0  0
123134  2  0  0  0  0
134135  1  0  0  0  0
122136  1  0  0  0  0
136137  2  0  0  0  0
137138  1  0  0  0  0
 29  1  1  0  0  0  0
 37 33  1  0  0  0  0
 66 38  1  0  0  0  0
 98 70  1  0  0  0  0
106102  1  0  0  0  0
135107  1  0  0  0  0
 28  3  1  0  0  0  0
 65 40  1  0  0  0  0
 97 72  1  0  0  0  0
134109  1  0  0  0  0
 14  5  1  0  0  0  0
 32 15  1  0  0  0  0
 51 42  1  0  0  0  0
 69 52  1  0  0  0  0
 83 74  1  0  0  0  0
101 84  1  0  0  0  0
120111  1  0  0  0  0
138121  1  0  0  0  0
 26 18  1  0  0  0  0
 63 55  1  0  0  0  0
 95 87  1  0  0  0  0
132124  1  0  0  0  0
  1139  1  0  0  0  0
  2140  1  0  0  0  0
  6141  1  0  0  0  0
  7142  1  0  0  0  0
 10143  1  0  0  0  0
 10144  1  0  0  0  0
 11145  1  0  0  0  0
 11146  1  0  0  0  0
 11147  1  0  0  0  0
 14148  1  0  0  0  0
 19149  1  0  0  0  0
 20150  1  0  0  0  0
 23151  1  0  0  0  0
 23152  1  0  0  0  0
 24153  1  0  0  0  0
 24154  1  0  0  0  0
 24155  1  0  0  0  0
 26156  1  0  0  0  0
 30157  1  0  0  0  0
 34158  1  0  0  0  0
 35159  1  0  0  0  0
 39160  1  0  0  0  0
 43161  1  0  0  0  0
 44162  1  0  0  0  0
 47163  1  0  0  0  0
 47164  1  0  0  0  0
 48165  1  0  0  0  0
 48166  1  0  0  0  0
 48167  1  0  0  0  0
 51168  1  0  0  0  0
 56169  1  0  0  0  0
 57170  1  0  0  0  0
 60171  1  0  0  0  0
 60172  1  0  0  0  0
 61173  1  0  0  0  0
 61174  1  0  0  0  0
 61175  1  0  0  0  0
 63176  1  0  0  0  0
 67177  1  0  0  0  0
 71178  1  0  0  0  0
 75179  1  0  0  0  0
 76180  1  0  0  0  0
 79181  1  0  0  0  0
 79182  1  0  0  0  0
 80183  1  0  0  0  0
 80184  1  0  0  0  0
 80185  1  0  0  0  0
 83186  1  0  0  0  0
 88187  1  0  0  0  0
 89188  1  0  0  0  0
 92189  1  0  0  0  0
 92190  1  0  0  0  0
 93191  1  0  0  0  0
 93192  1  0  0  0  0
 93193  1  0  0  0  0
 95194  1  0  0  0  0
 99195  1  0  0  0  0
103196  1  0  0  0  0
104197  1  0  0  0  0
108198  1  0  0  0  0
112199  1  0  0  0  0
113200  1  0  0  0  0
116201  1  0  0  0  0
116202  1  0  0  0  0
117203  1  0  0  0  0
117204  1  0  0  0  0
117205  1  0  0  0  0
120206  1  0  0  0  0
125207  1  0  0  0  0
126208  1  0  0  0  0
129209  1  0  0  0  0
129210  1  0  0  0  0
130211  1  0  0  0  0
130212  1  0  0  0  0
130213  1  0  0  0  0
132214  1  0  0  0  0
136215  1  0  0  0  0
137216  1  0  0  0  0
M  END
