216

C          5.18410       -4.02370       10.76080
C          5.87100       -2.86920       10.65110
C          5.74390       -2.26620        9.36380
C          6.30730       -1.06470        8.90890
C          7.21420       -0.26900        9.74630
C          8.33450       -0.85020       10.33780
C          9.21130       -0.08690       11.07840
C          8.99940        1.27650       11.27310
S         10.17450        2.15220       12.26400
C         10.38930        3.74090       11.37850
C         10.82440        3.53580        9.94160
C          7.85640        1.83430       10.70860
F          7.55720        3.13790       10.89720
C          6.98480        1.08830        9.94160
C          5.98410       -0.67340        7.61840
C          5.17150       -1.45210        6.75870
C          4.61210       -2.65700        7.21030
C          3.74600       -3.45520        6.33300
C          4.16190       -3.82880        5.05580
C          3.32730       -4.54880        4.22780
C          2.04220       -4.90670        4.63060
S          1.01750       -5.74980        3.45420
C          0.15770       -7.02720        4.43840
C          1.13100       -7.94140        5.15370
C          1.63690       -4.51820        5.90340
C          2.47280       -3.82360        6.75380
F          0.39080       -4.79760        6.34470
C          4.89980       -3.02390        8.51640
S          4.32940       -4.46320        9.32100
C          5.00270       -0.83450        5.49580
C          5.65350        0.35660        5.36850
S          6.52800        0.78650        6.82540
C          5.62900        1.20000        4.22020
C          5.98480        2.52000        4.10810
C          5.76850        3.09830        2.84640
C          5.26950        2.25320        1.88920
Se         4.99240        0.52560        2.58340
C          4.88530        2.52340        0.54320
C          4.66800        1.58420       -0.41990
C          4.15800        2.10700       -1.63150
C          3.72240        1.38360       -2.75240
C          3.82140       -0.08070       -2.79800
C          2.68600       -0.85270       -3.03350
C          2.74300       -2.23150       -3.04410
C          3.94570       -2.89470       -2.82320
S          4.14540       -4.63960       -2.78910
C          2.61380       -5.28380       -3.54260
C          2.52770       -4.98160       -5.02590
C          5.07450       -2.10870       -2.57840
F          6.25810       -2.71340       -2.34280
C          5.02990       -0.73260       -2.56080
C          3.08160        2.11130       -3.74170
C          2.81900        3.50060       -3.64340
C          3.26420        4.22150       -2.52150
C          2.87270        5.62300       -2.31820
C          1.52410        5.97720       -2.36050
C          1.13030        7.27770       -2.13580
C          2.06390        8.27880       -1.87770
S          1.45120        9.92710       -1.66690
C          2.42850       10.58190       -0.26560
C          2.28660        9.72130        0.97330
C          3.40630        7.91460       -1.85210
C          3.81260        6.60830       -2.04510
F          4.36840        8.83850       -1.63710
C          3.95760        3.50850       -1.55620
S          4.50330        4.14220       -0.01940
C          1.99050        3.95790       -4.70130
C          1.60740        2.96670       -5.55750
S          2.37220        1.43210       -5.17780
C          0.44310        2.91130       -6.38960
C         -0.69100        3.64960       -6.20130
C         -1.87010        2.98750       -6.62840
C         -3.19410        3.31420       -6.28230
C         -3.51260        4.56950       -5.58520
C         -4.45800        5.45560       -6.09480
C         -4.70020        6.65890       -5.46640
C         -4.02920        7.02060       -4.29850
S         -4.43470        8.58760       -3.58840
C         -2.86090        9.20070       -2.87720
C         -1.76120        9.30470       -3.91400
C         -3.13900        6.09350       -3.76550
F         -2.49080        6.33330       -2.60160
C         -2.87130        4.89530       -4.39480
C         -4.14340        2.32480       -6.47680
C         -3.83950        1.08010       -7.07920
C         -2.54770        0.80800       -7.55930
C         -2.25840       -0.48070       -8.20060
C         -3.03090       -0.90220       -9.27940
C         -2.79080       -2.10970       -9.90580
C         -1.77930       -2.95260       -9.45910
S         -1.35080       -4.50890      -10.16330
C         -2.73560       -4.89250      -11.28980
C         -4.00230       -5.26410      -10.54220
C         -1.01890       -2.52080       -8.37020
C         -1.23820       -1.31360       -7.74660
F         -0.03790       -3.31790       -7.90330
C         -1.57830        1.74900       -7.25680
S          0.14300        1.48210       -7.35780
C         -4.83330        0.10840       -6.80620
C         -5.83080        0.55070       -5.98900
S         -5.71960        2.28730       -5.71030
C         -6.59490       -0.29090       -5.11640
C         -7.70970       -0.04380       -4.35880
C         -7.96410       -0.97310       -3.33030
C         -7.03340       -1.97300       -3.19680
Se        -5.73070       -1.87230       -4.54490
C         -6.83460       -2.91010       -2.13070
C         -7.69350       -3.48190       -1.24430
C         -7.04440       -4.28880       -0.26590
C         -7.62190       -4.98770        0.80620
C         -9.07790       -5.07990        0.96260
C         -9.87750       -5.48190       -0.10400
C        -11.24760       -5.59480        0.02960
C        -11.87170       -5.29400        1.23500
S        -13.60110       -5.40530        1.55160
C        -14.35370       -5.55120       -0.10600
C        -14.26760       -4.25840       -0.89490
C        -11.05670       -4.89830        2.29770
F        -11.62800       -4.60160        3.48170
C         -9.68940       -4.79330        2.18120
C         -6.74680       -5.60710        1.68990
C         -5.33820       -5.56360        1.55210
C         -4.75890       -4.88000        0.47430
C         -3.30670       -4.72170        0.31670
C         -2.52430       -4.24520        1.36560
C         -1.17720       -3.98430        1.19880
C         -0.56200       -4.19610       -0.02970
S          1.12540       -3.86460       -0.40070
C          1.73890       -2.97140        1.06910
C          3.14030       -2.46850        0.77820
C         -1.35050       -4.70690       -1.06240
C         -2.69300       -4.96510       -0.91140
F         -0.77410       -4.94320       -2.26130
C         -5.63640       -4.28260       -0.41990
S         -5.16420       -3.34340       -1.80600
C         -4.68480       -6.31380        2.57500
C         -5.54820       -6.88790        3.43640
S         -7.20920       -6.56270        3.07560
H          5.10950       -4.66840       11.61460
H          6.44300       -2.43640       11.45160
H          8.53500       -1.89960       10.18340
H         10.08850       -0.53460       11.51910
H          9.46710        4.31340       11.44830
H         11.16450        4.24400       11.95650
H         11.73080        2.93540        9.89870
H         11.02130        4.50040        9.47820
H         10.04870        3.03170        9.36780
H          6.11400        1.57250        9.52770
H          5.15600       -3.57420        4.72140
H          3.66050       -4.84720        3.24580
H         -0.41740       -7.57090        3.68810
H         -0.52820       -6.53940        5.12790
H          1.70160       -7.39320        5.90160
H          0.58360       -8.73670        5.65560
H          1.82680       -8.38810        4.44630
H          2.10370       -3.54170        7.72740
H          4.38860       -1.24000        4.70720
H          6.37930        3.07350        4.94420
H          5.98150        4.13280        2.63370
H          4.84160        0.53350       -0.24780
H          1.73290       -0.36890       -3.18240
H          1.83620       -2.78960       -3.20420
H          2.68300       -6.35760       -3.36880
H          1.76300       -4.89940       -2.98380
H          3.36990       -5.42360       -5.55330
H          1.60640       -5.39430       -5.43080
H          2.53150       -3.91010       -5.21230
H          5.93860       -0.17750       -2.38650
H          0.77810        5.21680       -2.53320
H          0.08430        7.53910       -2.14880
H          2.00550       11.57410       -0.10780
H          3.46600       10.68390       -0.57620
H          2.70470        8.72980        0.80800
H          2.81800       10.18400        1.80250
H          1.23860        9.61290        1.24570
H          4.86640        6.37950       -2.00880
H          1.66160        4.97670       -4.79600
H         -0.69450        4.57940       -5.66380
H         -4.98350        5.20860       -7.00450
H         -5.41560        7.35430       -5.87690
H         -2.57960        8.56580       -2.04020
H         -3.13190       10.18520       -2.49610
H         -0.87130        9.73690       -3.45960
H         -1.50320        8.32410       -4.31060
H         -2.07560        9.93750       -4.74100
H         -2.18540        4.20610       -3.92630
H         -3.82210       -0.26460       -9.64520
H         -3.39890       -2.38490      -10.75200
H         -2.36530       -5.73960      -11.86730
H         -2.87990       -4.05090      -11.96600
H         -3.82020       -6.12460       -9.90270
H         -4.78980       -5.51630      -11.24990
H         -4.34520       -4.44160       -9.91810
H         -0.63010       -1.04910       -6.89690
H         -4.73400       -0.92850       -7.08790
H         -8.32580        0.82620       -4.51600
H         -8.78690       -0.86070       -2.64430
H         -8.75730       -3.32860       -1.27010
H         -9.41640       -5.73710       -1.04650
H        -11.82540       -5.93150       -0.81580
H        -15.39170       -5.80420        0.10930
H        -13.89470       -6.39050       -0.62700
H        -13.23200       -3.97220       -1.06610
H        -14.75910       -3.45500       -0.35130
H        -14.75930       -4.37880       -1.85850
H         -9.11400       -4.46890        3.03350
H         -2.98360       -4.04190        2.32130
H         -0.60730       -3.61220        2.03370
H          1.05880       -2.14190        1.26270
H          1.73550       -3.66740        1.90750
H          3.12780       -1.76650       -0.05350
H          3.79830       -3.29440        0.51780
H          3.54280       -1.96280        1.65690
H         -3.24810       -5.36100       -1.74710
H         -3.61700       -6.42140        2.63400
H         -5.32220       -7.50020        4.28760
