226

C          4.29500       -5.09240       11.54360
C          3.59830       -3.95010       11.37950
C          3.01960       -3.83280       10.08010
C          2.21520       -2.79970        9.57460
C          1.97650       -1.56450       10.33060
C          3.04120       -0.87350       10.90850
C          2.83090        0.31820       11.56840
C          1.55570        0.86530       11.68330
S          1.38280        2.38690       12.57380
C          0.32550        3.38790       11.46290
C          0.95020        3.55730       10.09250
C          0.49900        0.15270       11.12640
F         -0.77000        0.60680       11.23460
C          0.69590       -1.03390       10.45000
C          1.69960       -2.98020        8.29870
C          1.98680       -4.11380        7.49890
C          2.81790       -5.13020        7.99320
C          3.15630       -6.29860        7.17180
C          2.16520       -7.05690        6.55580
C          2.48410       -8.13490        5.75300
C          3.80990       -8.49200        5.53500
S          4.35810       -9.79890        4.48680
C          2.87640      -10.84100        4.26110
C          2.47900      -11.55810        5.53700
C          4.79320       -7.72600        6.16390
C          4.48870       -6.65470        6.97270
F          6.09010       -8.03200        5.96090
C          3.31090       -4.96280        9.27940
S          4.30520       -6.10790       10.14250
C          1.39770       -4.01590        6.21190
C          0.68200       -2.87440        6.02300
S          0.69370       -1.84350        7.44010
C         -0.02200       -2.45160        4.85900
C         -0.82080       -1.35490        4.74570
C         -1.36170       -1.17300        3.45010
C         -2.17890       -0.11790        3.01020
C         -2.67810        0.88010        3.96180
C         -3.28820        0.47210        5.14590
C         -3.72950        1.39030        6.07660
C         -3.56450        2.75460        5.86360
S         -4.05600        4.01440        6.99320
C         -4.14670        3.13920        8.59560
C         -2.78870        2.65200        9.06180
C         -2.98650        3.15040        4.65640
F         -2.83080        4.46510        4.40470
C         -2.55030        2.24460        3.71500
C         -2.47630       -0.08680        1.65710
C         -2.01250       -1.07190        0.75070
C         -1.18990       -2.12730        1.19060
C         -0.64110       -3.07990        0.22070
C         -0.66950       -4.45730        0.43010
C         -0.23820       -5.32570       -0.55040
C          0.23620       -4.86540       -1.77800
S          0.71360       -6.07370       -2.97610
C          0.15500       -5.37950       -4.57560
C         -1.32540       -5.06290       -4.58420
C          0.32230       -3.48760       -1.94640
C         -0.09920       -2.60830       -0.97290
F          0.79880       -2.94880       -3.09120
C         -0.90940       -2.16810        2.54700
S          0.09480       -3.34190        3.35570
C         -2.47260       -0.82770       -0.56490
C         -3.20470        0.31760       -0.69420
S         -3.43810        1.12240        0.84280
C         -3.58650        0.92070       -1.93280
C         -3.16180        0.51720       -3.16660
C         -3.45080        1.43700       -4.20300
C         -3.03090        1.38650       -5.54540
C         -2.21350        0.28070       -6.05640
C         -1.14040       -0.23660       -5.32880
C         -0.40410       -1.29670       -5.80890
C         -0.68350       -1.87840       -7.04510
S          0.32600       -3.24990       -7.50880
C          0.43540       -3.21170       -9.33890
C         -0.44950       -4.24980       -9.99940
C         -1.75000       -1.35050       -7.76600
F         -2.11620       -1.87830       -8.95330
C         -2.50000       -0.29330       -7.29150
C         -3.39860        2.46390       -6.34220
C         -4.20110        3.53310       -5.87700
C         -4.64430        3.56480       -4.54540
C         -5.48970        4.65710       -4.05060
C         -5.15090        5.37840       -2.90800
C         -5.97200        6.38420       -2.44580
C         -7.15710        6.71280       -3.10090
S         -8.11350        8.04590       -2.43880
C         -9.84100        7.45370       -2.57780
C        -10.05110        6.14430       -1.84450
C         -7.46770        6.00320       -4.25690
C         -6.66140        4.98570       -4.72480
F         -8.57970        6.29060       -4.97010
C         -4.20950        2.53570       -3.72530
S         -4.48630        2.41910       -2.00620
C         -4.32950        4.56190       -6.85050
C         -3.63820        4.31340       -7.98960
S         -2.83940        2.76020       -7.96740
C         -3.40980        5.24810       -9.09710
S         -3.86900        4.69930      -10.83950
C         -2.15820        5.00990      -10.86810
C         -1.98350        5.36350       -9.57870
C         -0.80220        5.63370       -8.77750
O          0.32510        5.73560       -9.19680
O         -1.13930        5.72270       -7.47220
C         -0.09760        5.78010       -6.51060
C         -0.39690        4.76890       -5.42490
S         -1.82810        5.21440       -4.32320
C         -0.44600        5.07050       -3.27590
C          0.48570        4.77070       -4.20400
C          1.90540        4.46750       -4.13300
O          2.61550        4.31090       -5.09970
O          2.32200        4.36960       -2.85670
C          3.66360        3.91020       -2.64650
C          3.71150        2.42210       -2.76440
C          3.59860        1.71910       -3.91350
C          3.53830        0.31060       -3.71740
C          3.36130       -0.67900       -4.69710
C          2.88480       -0.31670       -6.03470
C          3.29720       -0.95160       -7.20420
C          2.71430       -0.63840       -8.41430
C          1.68810        0.30010       -8.51330
S          0.92060        0.52590      -10.09010
C          0.65250        2.33240      -10.19240
C          1.93730        3.11000      -10.00290
C          1.29350        0.93420       -7.34100
F          0.28200        1.83500       -7.33140
C          1.88180        0.64750       -6.13040
C          3.49710       -1.99490       -4.26940
C          3.67150       -2.34590       -2.90650
C          3.70790       -1.35320       -1.91480
C          3.74110       -1.69540       -0.48750
C          4.66910       -2.59840        0.02350
C          4.65960       -2.95450        1.35740
C          3.71740       -2.42410        2.23170
S          3.59590       -2.83780        3.94210
C          4.37920       -4.48450        4.03790
C          3.63560       -5.53510        3.23660
C          2.82850       -1.48030        1.71870
C          2.82520       -1.11950        0.39050
F          1.93160       -0.89880        2.54270
C          3.66740       -0.03560       -2.35400
S          3.77280        1.39410       -1.35240
C          3.68660       -3.76320       -2.73160
C          3.55900       -4.43910       -3.89000
S          3.38630       -3.41560       -5.27270
H          4.82080       -5.42390       12.41760
H          3.46910       -3.21470       12.15270
H          4.04460       -1.25740       10.80520
H          3.65900        0.85670       12.00230
H         -0.66020        2.93120       11.40980
H          0.24830        4.34290       11.98220
H          1.00440        2.60410        9.56910
H          0.35310        4.24420        9.49600
H          1.95660        3.96110       10.18030
H         -0.16130       -1.54830       10.04510
H          1.12730       -6.80970        6.72060
H          1.68640       -8.69020        5.28700
H          2.07260      -10.22610        3.85820
H          3.18360      -11.55300        3.49510
H          2.22180      -10.84910        6.32120
H          3.30060      -12.17630        5.89090
H          1.61820      -12.19710        5.34940
H          5.29090       -6.09420        7.42660
H          1.50780       -4.76010        5.44500
H         -0.98870       -0.67640        5.56270
H         -3.43700       -0.58100        5.33180
H         -4.20880        1.03380        6.97380
H         -4.87490        2.33310        8.51620
H         -4.54210        3.89550        9.27350
H         -2.35960        1.94620        8.35360
H         -2.10620        3.49230        9.16300
H         -2.88150        2.15680       10.02620
H         -2.08450        2.60910        2.81350
H         -1.07220       -4.84980        1.35070
H         -0.28710       -6.39190       -0.39350
H          0.38830       -6.17360       -5.28420
H          0.75450       -4.50670       -4.82200
H         -1.91140       -5.94500       -4.33460
H         -1.60830       -4.71790       -5.57600
H         -1.56100       -4.27630       -3.86960
H          0.01180       -1.55070       -1.15460
H         -2.27670       -1.48650       -1.38950
H         -2.63900       -0.40580       -3.32810
H         -0.85250        0.22340       -4.39610
H          0.41650       -1.69360       -5.23330
H          0.20450       -2.20120       -9.66740
H          1.48720       -3.41710       -9.53920
H         -0.20480       -5.24490       -9.63410
H         -0.29460       -4.22350      -11.07590
H         -1.49820       -4.05130       -9.79820
H         -3.32970        0.05100       -7.88880
H         -4.23090        5.15800       -2.39040
H         -5.70900        6.93920       -1.55910
H        -10.10850        7.38080       -3.62950
H        -10.41700        8.25790       -2.12000
H         -9.74750        6.23630       -0.80380
H         -9.47190        5.34470       -2.30310
H        -11.10350        5.86990       -1.87960
H         -6.96140        4.45000       -5.61260
H         -4.86320        5.47740       -6.67120
H         -3.89230        6.20650       -8.90360
H         -1.49840        4.91660      -11.70810
H          0.86220        5.54100       -6.98580
H         -0.05430        6.79330       -6.09670
H         -0.56380        3.78110       -5.85700
H         -0.42130        5.19620       -2.21130
H          4.31870        4.36960       -3.39580
H          3.93270        4.24470       -1.64410
H          3.58600        2.18650       -4.88140
H          4.08990       -1.68210       -7.17090
H          3.03970       -1.13060       -9.31750
H          0.25060        2.46820      -11.19650
H         -0.10970        2.61430       -9.46870
H          2.36900        2.91530       -9.02240
H          2.66690        2.83970      -10.76350
H          1.72360        4.17410      -10.07200
H          1.50520        1.14700       -5.25230
H          5.42610       -3.00990       -0.62680
H          5.40350       -3.64650        1.71810
H          5.42130       -4.39690        3.73350
H          4.34870       -4.71550        5.10270
H          4.12120       -6.50070        3.36130
H          3.62250       -5.28520        2.17790
H          2.60570       -5.61660        3.57630
H          2.09740       -0.40110        0.04860
H          3.76540       -4.24290       -1.77320
H          3.54330       -5.50200       -4.03200
