
  xtb     03042220313D
 energy: -398.637850441259 gnorm: 0.000179214834 xtb: 6.4.1 (unknown)
226247  0     0  0            999 V2000
    4.2950   -5.0924   11.5436 C   0  0  0  0  0  0  0  0  0  0  0  0
    3.5983   -3.9501   11.3795 C   0  0  0  0  0  0  0  0  0  0  0  0
    3.0196   -3.8328   10.0801 C   0  0  0  0  0  0  0  0  0  0  0  0
    2.2152   -2.7997    9.5746 C   0  0  0  0  0  0  0  0  0  0  0  0
    1.9765   -1.5645   10.3306 C   0  0  0  0  0  0  0  0  0  0  0  0
    3.0412   -0.8735   10.9085 C   0  0  0  0  0  0  0  0  0  0  0  0
    2.8309    0.3182   11.5684 C   0  0  0  0  0  0  0  0  0  0  0  0
    1.5557    0.8653   11.6833 C   0  0  0  0  0  0  0  0  0  0  0  0
    1.3828    2.3869   12.5738 S   0  0  0  0  0  0  0  0  0  0  0  0
    0.3255    3.3879   11.4629 C   0  0  0  0  0  0  0  0  0  0  0  0
    0.9502    3.5573   10.0925 C   0  0  0  0  0  0  0  0  0  0  0  0
    0.4990    0.1527   11.1264 C   0  0  0  0  0  0  0  0  0  0  0  0
   -0.7700    0.6068   11.2346 F   0  0  0  0  0  0  0  0  0  0  0  0
    0.6959   -1.0339   10.4500 C   0  0  0  0  0  0  0  0  0  0  0  0
    1.6996   -2.9802    8.2987 C   0  0  0  0  0  0  0  0  0  0  0  0
    1.9868   -4.1138    7.4989 C   0  0  0  0  0  0  0  0  0  0  0  0
    2.8179   -5.1302    7.9932 C   0  0  0  0  0  0  0  0  0  0  0  0
    3.1563   -6.2986    7.1718 C   0  0  0  0  0  0  0  0  0  0  0  0
    2.1652   -7.0569    6.5558 C   0  0  0  0  0  0  0  0  0  0  0  0
    2.4841   -8.1349    5.7530 C   0  0  0  0  0  0  0  0  0  0  0  0
    3.8099   -8.4920    5.5350 C   0  0  0  0  0  0  0  0  0  0  0  0
    4.3581   -9.7989    4.4868 S   0  0  0  0  0  0  0  0  0  0  0  0
    2.8764  -10.8410    4.2611 C   0  0  0  0  0  0  0  0  0  0  0  0
    2.4790  -11.5581    5.5370 C   0  0  0  0  0  0  0  0  0  0  0  0
    4.7932   -7.7260    6.1639 C   0  0  0  0  0  0  0  0  0  0  0  0
    4.4887   -6.6547    6.9727 C   0  0  0  0  0  0  0  0  0  0  0  0
    6.0901   -8.0320    5.9609 F   0  0  0  0  0  0  0  0  0  0  0  0
    3.3109   -4.9628    9.2794 C   0  0  0  0  0  0  0  0  0  0  0  0
    4.3052   -6.1079   10.1425 S   0  0  0  0  0  0  0  0  0  0  0  0
    1.3977   -4.0159    6.2119 C   0  0  0  0  0  0  0  0  0  0  0  0
    0.6820   -2.8744    6.0230 C   0  0  0  0  0  0  0  0  0  0  0  0
    0.6937   -1.8435    7.4401 S   0  0  0  0  0  0  0  0  0  0  0  0
   -0.0220   -2.4516    4.8590 C   0  0  0  0  0  0  0  0  0  0  0  0
   -0.8208   -1.3549    4.7457 C   0  0  0  0  0  0  0  0  0  0  0  0
   -1.3617   -1.1730    3.4501 C   0  0  0  0  0  0  0  0  0  0  0  0
   -2.1789   -0.1179    3.0102 C   0  0  0  0  0  0  0  0  0  0  0  0
   -2.6781    0.8801    3.9618 C   0  0  0  0  0  0  0  0  0  0  0  0
   -3.2882    0.4721    5.1459 C   0  0  0  0  0  0  0  0  0  0  0  0
   -3.7295    1.3903    6.0766 C   0  0  0  0  0  0  0  0  0  0  0  0
   -3.5645    2.7546    5.8636 C   0  0  0  0  0  0  0  0  0  0  0  0
   -4.0560    4.0144    6.9932 S   0  0  0  0  0  0  0  0  0  0  0  0
   -4.1467    3.1392    8.5956 C   0  0  0  0  0  0  0  0  0  0  0  0
   -2.7887    2.6520    9.0618 C   0  0  0  0  0  0  0  0  0  0  0  0
   -2.9865    3.1504    4.6564 C   0  0  0  0  0  0  0  0  0  0  0  0
   -2.8308    4.4651    4.4047 F   0  0  0  0  0  0  0  0  0  0  0  0
   -2.5503    2.2446    3.7150 C   0  0  0  0  0  0  0  0  0  0  0  0
   -2.4763   -0.0868    1.6571 C   0  0  0  0  0  0  0  0  0  0  0  0
   -2.0125   -1.0719    0.7507 C   0  0  0  0  0  0  0  0  0  0  0  0
   -1.1899   -2.1273    1.1906 C   0  0  0  0  0  0  0  0  0  0  0  0
   -0.6411   -3.0799    0.2207 C   0  0  0  0  0  0  0  0  0  0  0  0
   -0.6695   -4.4573    0.4301 C   0  0  0  0  0  0  0  0  0  0  0  0
   -0.2382   -5.3257   -0.5504 C   0  0  0  0  0  0  0  0  0  0  0  0
    0.2362   -4.8654   -1.7780 C   0  0  0  0  0  0  0  0  0  0  0  0
    0.7136   -6.0737   -2.9761 S   0  0  0  0  0  0  0  0  0  0  0  0
    0.1550   -5.3795   -4.5756 C   0  0  0  0  0  0  0  0  0  0  0  0
   -1.3254   -5.0629   -4.5842 C   0  0  0  0  0  0  0  0  0  0  0  0
    0.3223   -3.4876   -1.9464 C   0  0  0  0  0  0  0  0  0  0  0  0
   -0.0992   -2.6083   -0.9729 C   0  0  0  0  0  0  0  0  0  0  0  0
    0.7988   -2.9488   -3.0912 F   0  0  0  0  0  0  0  0  0  0  0  0
   -0.9094   -2.1681    2.5470 C   0  0  0  0  0  0  0  0  0  0  0  0
    0.0948   -3.3419    3.3557 S   0  0  0  0  0  0  0  0  0  0  0  0
   -2.4726   -0.8277   -0.5649 C   0  0  0  0  0  0  0  0  0  0  0  0
   -3.2047    0.3176   -0.6942 C   0  0  0  0  0  0  0  0  0  0  0  0
   -3.4381    1.1224    0.8428 S   0  0  0  0  0  0  0  0  0  0  0  0
   -3.5865    0.9207   -1.9328 C   0  0  0  0  0  0  0  0  0  0  0  0
   -3.1618    0.5172   -3.1666 C   0  0  0  0  0  0  0  0  0  0  0  0
   -3.4508    1.4370   -4.2030 C   0  0  0  0  0  0  0  0  0  0  0  0
   -3.0309    1.3865   -5.5454 C   0  0  0  0  0  0  0  0  0  0  0  0
   -2.2135    0.2807   -6.0564 C   0  0  0  0  0  0  0  0  0  0  0  0
   -1.1404   -0.2366   -5.3288 C   0  0  0  0  0  0  0  0  0  0  0  0
   -0.4041   -1.2967   -5.8089 C   0  0  0  0  0  0  0  0  0  0  0  0
   -0.6835   -1.8784   -7.0451 C   0  0  0  0  0  0  0  0  0  0  0  0
    0.3260   -3.2499   -7.5088 S   0  0  0  0  0  0  0  0  0  0  0  0
    0.4354   -3.2117   -9.3389 C   0  0  0  0  0  0  0  0  0  0  0  0
   -0.4495   -4.2498   -9.9994 C   0  0  0  0  0  0  0  0  0  0  0  0
   -1.7500   -1.3505   -7.7660 C   0  0  0  0  0  0  0  0  0  0  0  0
   -2.1162   -1.8783   -8.9533 F   0  0  0  0  0  0  0  0  0  0  0  0
   -2.5000   -0.2933   -7.2915 C   0  0  0  0  0  0  0  0  0  0  0  0
   -3.3986    2.4639   -6.3422 C   0  0  0  0  0  0  0  0  0  0  0  0
   -4.2011    3.5331   -5.8770 C   0  0  0  0  0  0  0  0  0  0  0  0
   -4.6443    3.5648   -4.5454 C   0  0  0  0  0  0  0  0  0  0  0  0
   -5.4897    4.6571   -4.0506 C   0  0  0  0  0  0  0  0  0  0  0  0
   -5.1509    5.3784   -2.9080 C   0  0  0  0  0  0  0  0  0  0  0  0
   -5.9720    6.3842   -2.4458 C   0  0  0  0  0  0  0  0  0  0  0  0
   -7.1571    6.7128   -3.1009 C   0  0  0  0  0  0  0  0  0  0  0  0
   -8.1135    8.0459   -2.4388 S   0  0  0  0  0  0  0  0  0  0  0  0
   -9.8410    7.4537   -2.5778 C   0  0  0  0  0  0  0  0  0  0  0  0
  -10.0511    6.1443   -1.8445 C   0  0  0  0  0  0  0  0  0  0  0  0
   -7.4677    6.0032   -4.2569 C   0  0  0  0  0  0  0  0  0  0  0  0
   -6.6614    4.9857   -4.7248 C   0  0  0  0  0  0  0  0  0  0  0  0
   -8.5797    6.2906   -4.9701 F   0  0  0  0  0  0  0  0  0  0  0  0
   -4.2095    2.5357   -3.7253 C   0  0  0  0  0  0  0  0  0  0  0  0
   -4.4863    2.4191   -2.0062 S   0  0  0  0  0  0  0  0  0  0  0  0
   -4.3295    4.5619   -6.8505 C   0  0  0  0  0  0  0  0  0  0  0  0
   -3.6382    4.3134   -7.9896 C   0  0  0  0  0  0  0  0  0  0  0  0
   -2.8394    2.7602   -7.9674 S   0  0  0  0  0  0  0  0  0  0  0  0
   -3.4098    5.2481   -9.0971 C   0  0  0  0  0  0  0  0  0  0  0  0
   -3.8690    4.6993  -10.8395 S   0  0  0  0  0  0  0  0  0  0  0  0
   -2.1582    5.0099  -10.8681 C   0  0  0  0  0  0  0  0  0  0  0  0
   -1.9835    5.3635   -9.5787 C   0  0  0  0  0  0  0  0  0  0  0  0
   -0.8022    5.6337   -8.7775 C   0  0  0  0  0  0  0  0  0  0  0  0
    0.3251    5.7356   -9.1968 O   0  0  0  0  0  0  0  0  0  0  0  0
   -1.1393    5.7227   -7.4722 O   0  0  0  0  0  0  0  0  0  0  0  0
   -0.0976    5.7801   -6.5106 C   0  0  0  0  0  0  0  0  0  0  0  0
   -0.3969    4.7689   -5.4249 C   0  0  0  0  0  0  0  0  0  0  0  0
   -1.8281    5.2144   -4.3232 S   0  0  0  0  0  0  0  0  0  0  0  0
   -0.4460    5.0705   -3.2759 C   0  0  0  0  0  0  0  0  0  0  0  0
    0.4857    4.7707   -4.2040 C   0  0  0  0  0  0  0  0  0  0  0  0
    1.9054    4.4675   -4.1330 C   0  0  0  0  0  0  0  0  0  0  0  0
    2.6155    4.3109   -5.0997 O   0  0  0  0  0  0  0  0  0  0  0  0
    2.3220    4.3696   -2.8567 O   0  0  0  0  0  0  0  0  0  0  0  0
    3.6636    3.9102   -2.6465 C   0  0  0  0  0  0  0  0  0  0  0  0
    3.7115    2.4221   -2.7644 C   0  0  0  0  0  0  0  0  0  0  0  0
    3.5986    1.7191   -3.9135 C   0  0  0  0  0  0  0  0  0  0  0  0
    3.5383    0.3106   -3.7174 C   0  0  0  0  0  0  0  0  0  0  0  0
    3.3613   -0.6790   -4.6971 C   0  0  0  0  0  0  0  0  0  0  0  0
    2.8848   -0.3167   -6.0347 C   0  0  0  0  0  0  0  0  0  0  0  0
    3.2972   -0.9516   -7.2042 C   0  0  0  0  0  0  0  0  0  0  0  0
    2.7143   -0.6384   -8.4143 C   0  0  0  0  0  0  0  0  0  0  0  0
    1.6881    0.3001   -8.5133 C   0  0  0  0  0  0  0  0  0  0  0  0
    0.9206    0.5259  -10.0901 S   0  0  0  0  0  0  0  0  0  0  0  0
    0.6525    2.3324  -10.1924 C   0  0  0  0  0  0  0  0  0  0  0  0
    1.9373    3.1100  -10.0029 C   0  0  0  0  0  0  0  0  0  0  0  0
    1.2935    0.9342   -7.3410 C   0  0  0  0  0  0  0  0  0  0  0  0
    0.2820    1.8350   -7.3314 F   0  0  0  0  0  0  0  0  0  0  0  0
    1.8818    0.6475   -6.1304 C   0  0  0  0  0  0  0  0  0  0  0  0
    3.4971   -1.9949   -4.2694 C   0  0  0  0  0  0  0  0  0  0  0  0
    3.6715   -2.3459   -2.9065 C   0  0  0  0  0  0  0  0  0  0  0  0
    3.7079   -1.3532   -1.9148 C   0  0  0  0  0  0  0  0  0  0  0  0
    3.7411   -1.6954   -0.4875 C   0  0  0  0  0  0  0  0  0  0  0  0
    4.6691   -2.5984    0.0235 C   0  0  0  0  0  0  0  0  0  0  0  0
    4.6596   -2.9545    1.3574 C   0  0  0  0  0  0  0  0  0  0  0  0
    3.7174   -2.4241    2.2317 C   0  0  0  0  0  0  0  0  0  0  0  0
    3.5959   -2.8378    3.9421 S   0  0  0  0  0  0  0  0  0  0  0  0
    4.3792   -4.4845    4.0379 C   0  0  0  0  0  0  0  0  0  0  0  0
    3.6356   -5.5351    3.2366 C   0  0  0  0  0  0  0  0  0  0  0  0
    2.8285   -1.4803    1.7187 C   0  0  0  0  0  0  0  0  0  0  0  0
    2.8252   -1.1195    0.3905 C   0  0  0  0  0  0  0  0  0  0  0  0
    1.9316   -0.8988    2.5427 F   0  0  0  0  0  0  0  0  0  0  0  0
    3.6674   -0.0356   -2.3540 C   0  0  0  0  0  0  0  0  0  0  0  0
    3.7728    1.3941   -1.3524 S   0  0  0  0  0  0  0  0  0  0  0  0
    3.6866   -3.7632   -2.7316 C   0  0  0  0  0  0  0  0  0  0  0  0
    3.5590   -4.4391   -3.8900 C   0  0  0  0  0  0  0  0  0  0  0  0
    3.3863   -3.4156   -5.2727 S   0  0  0  0  0  0  0  0  0  0  0  0
    4.8208   -5.4239   12.4176 H   0  0  0  0  0  0  0  0  0  0  0  0
    3.4691   -3.2147   12.1527 H   0  0  0  0  0  0  0  0  0  0  0  0
    4.0446   -1.2574   10.8052 H   0  0  0  0  0  0  0  0  0  0  0  0
    3.6590    0.8567   12.0023 H   0  0  0  0  0  0  0  0  0  0  0  0
   -0.6602    2.9312   11.4098 H   0  0  0  0  0  0  0  0  0  0  0  0
    0.2483    4.3429   11.9822 H   0  0  0  0  0  0  0  0  0  0  0  0
    1.0044    2.6041    9.5691 H   0  0  0  0  0  0  0  0  0  0  0  0
    0.3531    4.2442    9.4960 H   0  0  0  0  0  0  0  0  0  0  0  0
    1.9566    3.9611   10.1803 H   0  0  0  0  0  0  0  0  0  0  0  0
   -0.1613   -1.5483   10.0451 H   0  0  0  0  0  0  0  0  0  0  0  0
    1.1273   -6.8097    6.7206 H   0  0  0  0  0  0  0  0  0  0  0  0
    1.6864   -8.6902    5.2870 H   0  0  0  0  0  0  0  0  0  0  0  0
    2.0726  -10.2261    3.8582 H   0  0  0  0  0  0  0  0  0  0  0  0
    3.1836  -11.5530    3.4951 H   0  0  0  0  0  0  0  0  0  0  0  0
    2.2218  -10.8491    6.3212 H   0  0  0  0  0  0  0  0  0  0  0  0
    3.3006  -12.1763    5.8909 H   0  0  0  0  0  0  0  0  0  0  0  0
    1.6182  -12.1971    5.3494 H   0  0  0  0  0  0  0  0  0  0  0  0
    5.2909   -6.0942    7.4266 H   0  0  0  0  0  0  0  0  0  0  0  0
    1.5078   -4.7601    5.4450 H   0  0  0  0  0  0  0  0  0  0  0  0
   -0.9887   -0.6764    5.5627 H   0  0  0  0  0  0  0  0  0  0  0  0
   -3.4370   -0.5810    5.3318 H   0  0  0  0  0  0  0  0  0  0  0  0
   -4.2088    1.0338    6.9738 H   0  0  0  0  0  0  0  0  0  0  0  0
   -4.8749    2.3331    8.5162 H   0  0  0  0  0  0  0  0  0  0  0  0
   -4.5421    3.8955    9.2735 H   0  0  0  0  0  0  0  0  0  0  0  0
   -2.3596    1.9462    8.3536 H   0  0  0  0  0  0  0  0  0  0  0  0
   -2.1062    3.4923    9.1630 H   0  0  0  0  0  0  0  0  0  0  0  0
   -2.8815    2.1568   10.0262 H   0  0  0  0  0  0  0  0  0  0  0  0
   -2.0845    2.6091    2.8135 H   0  0  0  0  0  0  0  0  0  0  0  0
   -1.0722   -4.8498    1.3507 H   0  0  0  0  0  0  0  0  0  0  0  0
   -0.2871   -6.3919   -0.3935 H   0  0  0  0  0  0  0  0  0  0  0  0
    0.3883   -6.1736   -5.2842 H   0  0  0  0  0  0  0  0  0  0  0  0
    0.7545   -4.5067   -4.8220 H   0  0  0  0  0  0  0  0  0  0  0  0
   -1.9114   -5.9450   -4.3346 H   0  0  0  0  0  0  0  0  0  0  0  0
   -1.6083   -4.7179   -5.5760 H   0  0  0  0  0  0  0  0  0  0  0  0
   -1.5610   -4.2763   -3.8696 H   0  0  0  0  0  0  0  0  0  0  0  0
    0.0118   -1.5507   -1.1546 H   0  0  0  0  0  0  0  0  0  0  0  0
   -2.2767   -1.4865   -1.3895 H   0  0  0  0  0  0  0  0  0  0  0  0
   -2.6390   -0.4058   -3.3281 H   0  0  0  0  0  0  0  0  0  0  0  0
   -0.8525    0.2234   -4.3961 H   0  0  0  0  0  0  0  0  0  0  0  0
    0.4165   -1.6936   -5.2333 H   0  0  0  0  0  0  0  0  0  0  0  0
    0.2045   -2.2012   -9.6674 H   0  0  0  0  0  0  0  0  0  0  0  0
    1.4872   -3.4171   -9.5392 H   0  0  0  0  0  0  0  0  0  0  0  0
   -0.2048   -5.2449   -9.6341 H   0  0  0  0  0  0  0  0  0  0  0  0
   -0.2946   -4.2235  -11.0759 H   0  0  0  0  0  0  0  0  0  0  0  0
   -1.4982   -4.0513   -9.7982 H   0  0  0  0  0  0  0  0  0  0  0  0
   -3.3297    0.0510   -7.8888 H   0  0  0  0  0  0  0  0  0  0  0  0
   -4.2309    5.1580   -2.3904 H   0  0  0  0  0  0  0  0  0  0  0  0
   -5.7090    6.9392   -1.5591 H   0  0  0  0  0  0  0  0  0  0  0  0
  -10.1085    7.3808   -3.6295 H   0  0  0  0  0  0  0  0  0  0  0  0
  -10.4170    8.2579   -2.1200 H   0  0  0  0  0  0  0  0  0  0  0  0
   -9.7475    6.2363   -0.8038 H   0  0  0  0  0  0  0  0  0  0  0  0
   -9.4719    5.3447   -2.3031 H   0  0  0  0  0  0  0  0  0  0  0  0
  -11.1035    5.8699   -1.8796 H   0  0  0  0  0  0  0  0  0  0  0  0
   -6.9614    4.4500   -5.6126 H   0  0  0  0  0  0  0  0  0  0  0  0
   -4.8632    5.4774   -6.6712 H   0  0  0  0  0  0  0  0  0  0  0  0
   -3.8923    6.2065   -8.9036 H   0  0  0  0  0  0  0  0  0  0  0  0
   -1.4984    4.9166  -11.7081 H   0  0  0  0  0  0  0  0  0  0  0  0
    0.8622    5.5410   -6.9858 H   0  0  0  0  0  0  0  0  0  0  0  0
   -0.0543    6.7933   -6.0967 H   0  0  0  0  0  0  0  0  0  0  0  0
   -0.5638    3.7811   -5.8570 H   0  0  0  0  0  0  0  0  0  0  0  0
   -0.4213    5.1962   -2.2113 H   0  0  0  0  0  0  0  0  0  0  0  0
    4.3187    4.3696   -3.3958 H   0  0  0  0  0  0  0  0  0  0  0  0
    3.9327    4.2447   -1.6441 H   0  0  0  0  0  0  0  0  0  0  0  0
    3.5860    2.1865   -4.8814 H   0  0  0  0  0  0  0  0  0  0  0  0
    4.0899   -1.6821   -7.1709 H   0  0  0  0  0  0  0  0  0  0  0  0
    3.0397   -1.1306   -9.3175 H   0  0  0  0  0  0  0  0  0  0  0  0
    0.2506    2.4682  -11.1965 H   0  0  0  0  0  0  0  0  0  0  0  0
   -0.1097    2.6143   -9.4687 H   0  0  0  0  0  0  0  0  0  0  0  0
    2.3690    2.9153   -9.0224 H   0  0  0  0  0  0  0  0  0  0  0  0
    2.6669    2.8397  -10.7635 H   0  0  0  0  0  0  0  0  0  0  0  0
    1.7236    4.1741  -10.0720 H   0  0  0  0  0  0  0  0  0  0  0  0
    1.5052    1.1470   -5.2523 H   0  0  0  0  0  0  0  0  0  0  0  0
    5.4261   -3.0099   -0.6268 H   0  0  0  0  0  0  0  0  0  0  0  0
    5.4035   -3.6465    1.7181 H   0  0  0  0  0  0  0  0  0  0  0  0
    5.4213   -4.3969    3.7335 H   0  0  0  0  0  0  0  0  0  0  0  0
    4.3487   -4.7155    5.1027 H   0  0  0  0  0  0  0  0  0  0  0  0
    4.1212   -6.5007    3.3613 H   0  0  0  0  0  0  0  0  0  0  0  0
    3.6225   -5.2852    2.1779 H   0  0  0  0  0  0  0  0  0  0  0  0
    2.6057   -5.6166    3.5763 H   0  0  0  0  0  0  0  0  0  0  0  0
    2.0974   -0.4011    0.0486 H   0  0  0  0  0  0  0  0  0  0  0  0
    3.7654   -4.2429   -1.7732 H   0  0  0  0  0  0  0  0  0  0  0  0
    3.5433   -5.5020   -4.0320 H   0  0  0  0  0  0  0  0  0  0  0  0
  1  2  2  0  0  0  0
  2  3  1  0  0  0  0
  3  4  2  0  0  0  0
  4  5  1  0  0  0  0
  5  6  2  0  0  0  0
  6  7  1  0  0  0  0
  7  8  2  0  0  0  0
  8  9  1  0  0  0  0
  9 10  1  0  0  0  0
 10 11  1  0  0  0  0
  8 12  1  0  0  0  0
 12 13  1  0  0  0  0
 12 14  2  0  0  0  0
  4 15  1  0  0  0  0
 15 16  2  0  0  0  0
 16 17  1  0  0  0  0
 17 18  1  0  0  0  0
 18 19  2  0  0  0  0
 19 20  1  0  0  0  0
 20 21  2  0  0  0  0
 21 22  1  0  0  0  0
 22 23  1  0  0  0  0
 23 24  1  0  0  0  0
 21 25  1  0  0  0  0
 25 26  2  0  0  0  0
 25 27  1  0  0  0  0
 17 28  2  0  0  0  0
 28 29  1  0  0  0  0
 16 30  1  0  0  0  0
 30 31  2  0  0  0  0
 31 32  1  0  0  0  0
 31 33  1  0  0  0  0
 33 34  2  0  0  0  0
 34 35  1  0  0  0  0
 35 36  2  0  0  0  0
 36 37  1  0  0  0  0
 37 38  2  0  0  0  0
 38 39  1  0  0  0  0
 39 40  2  0  0  0  0
 40 41  1  0  0  0  0
 41 42  1  0  0  0  0
 42 43  1  0  0  0  0
 40 44  1  0  0  0  0
 44 45  1  0  0  0  0
 44 46  2  0  0  0  0
 36 47  1  0  0  0  0
 47 48  2  0  0  0  0
 48 49  1  0  0  0  0
 49 50  1  0  0  0  0
 50 51  2  0  0  0  0
 51 52  1  0  0  0  0
 52 53  2  0  0  0  0
 53 54  1  0  0  0  0
 54 55  1  0  0  0  0
 55 56  1  0  0  0  0
 53 57  1  0  0  0  0
 57 58  2  0  0  0  0
 57 59  1  0  0  0  0
 49 60  2  0  0  0  0
 60 61  1  0  0  0  0
 48 62  1  0  0  0  0
 62 63  2  0  0  0  0
 63 64  1  0  0  0  0
 63 65  1  0  0  0  0
 65 66  2  0  0  0  0
 66 67  1  0  0  0  0
 67 68  2  0  0  0  0
 68 69  1  0  0  0  0
 69 70  2  0  0  0  0
 70 71  1  0  0  0  0
 71 72  2  0  0  0  0
 72 73  1  0  0  0  0
 73 74  1  0  0  0  0
 74 75  1  0  0  0  0
 72 76  1  0  0  0  0
 76 77  1  0  0  0  0
 76 78  2  0  0  0  0
 68 79  1  0  0  0  0
 79 80  2  0  0  0  0
 80 81  1  0  0  0  0
 81 82  1  0  0  0  0
 82 83  2  0  0  0  0
 83 84  1  0  0  0  0
 84 85  2  0  0  0  0
 85 86  1  0  0  0  0
 86 87  1  0  0  0  0
 87 88  1  0  0  0  0
 85 89  1  0  0  0  0
 89 90  2  0  0  0  0
 89 91  1  0  0  0  0
 81 92  2  0  0  0  0
 92 93  1  0  0  0  0
 80 94  1  0  0  0  0
 94 95  2  0  0  0  0
 95 96  1  0  0  0  0
 95 97  1  0  0  0  0
 97 98  1  0  0  0  0
 98 99  1  0  0  0  0
 99100  2  0  0  0  0
100101  1  0  0  0  0
101102  2  0  0  0  0
101103  1  0  0  0  0
103104  1  0  0  0  0
104105  1  0  0  0  0
105106  1  0  0  0  0
106107  1  0  0  0  0
107108  2  0  0  0  0
108109  1  0  0  0  0
109110  2  0  0  0  0
109111  1  0  0  0  0
111112  1  0  0  0  0
112113  1  0  0  0  0
113114  2  0  0  0  0
114115  1  0  0  0  0
115116  2  0  0  0  0
116117  1  0  0  0  0
117118  2  0  0  0  0
118119  1  0  0  0  0
119120  2  0  0  0  0
120121  1  0  0  0  0
121122  1  0  0  0  0
122123  1  0  0  0  0
120124  1  0  0  0  0
124125  1  0  0  0  0
124126  2  0  0  0  0
116127  1  0  0  0  0
127128  2  0  0  0  0
128129  1  0  0  0  0
129130  1  0  0  0  0
130131  2  0  0  0  0
131132  1  0  0  0  0
132133  2  0  0  0  0
133134  1  0  0  0  0
134135  1  0  0  0  0
135136  1  0  0  0  0
133137  1  0  0  0  0
137138  2  0  0  0  0
137139  1  0  0  0  0
129140  2  0  0  0  0
140141  1  0  0  0  0
128142  1  0  0  0  0
142143  2  0  0  0  0
143144  1  0  0  0  0
 29  1  1  0  0  0  0
 61 33  1  0  0  0  0
 93 65  1  0  0  0  0
100 97  1  0  0  0  0
108105  1  0  0  0  0
141113  1  0  0  0  0
 28  3  1  0  0  0  0
 60 35  1  0  0  0  0
 92 67  1  0  0  0  0
140115  1  0  0  0  0
 14  5  1  0  0  0  0
 32 15  1  0  0  0  0
 46 37  1  0  0  0  0
 64 47  1  0  0  0  0
 78 69  1  0  0  0  0
 96 79  1  0  0  0  0
126117  1  0  0  0  0
144127  1  0  0  0  0
 26 18  1  0  0  0  0
 58 50  1  0  0  0  0
 90 82  1  0  0  0  0
138130  1  0  0  0  0
  1145  1  0  0  0  0
  2146  1  0  0  0  0
  6147  1  0  0  0  0
  7148  1  0  0  0  0
 10149  1  0  0  0  0
 10150  1  0  0  0  0
 11151  1  0  0  0  0
 11152  1  0  0  0  0
 11153  1  0  0  0  0
 14154  1  0  0  0  0
 19155  1  0  0  0  0
 20156  1  0  0  0  0
 23157  1  0  0  0  0
 23158  1  0  0  0  0
 24159  1  0  0  0  0
 24160  1  0  0  0  0
 24161  1  0  0  0  0
 26162  1  0  0  0  0
 30163  1  0  0  0  0
 34164  1  0  0  0  0
 38165  1  0  0  0  0
 39166  1  0  0  0  0
 42167  1  0  0  0  0
 42168  1  0  0  0  0
 43169  1  0  0  0  0
 43170  1  0  0  0  0
 43171  1  0  0  0  0
 46172  1  0  0  0  0
 51173  1  0  0  0  0
 52174  1  0  0  0  0
 55175  1  0  0  0  0
 55176  1  0  0  0  0
 56177  1  0  0  0  0
 56178  1  0  0  0  0
 56179  1  0  0  0  0
 58180  1  0  0  0  0
 62181  1  0  0  0  0
 66182  1  0  0  0  0
 70183  1  0  0  0  0
 71184  1  0  0  0  0
 74185  1  0  0  0  0
 74186  1  0  0  0  0
 75187  1  0  0  0  0
 75188  1  0  0  0  0
 75189  1  0  0  0  0
 78190  1  0  0  0  0
 83191  1  0  0  0  0
 84192  1  0  0  0  0
 87193  1  0  0  0  0
 87194  1  0  0  0  0
 88195  1  0  0  0  0
 88196  1  0  0  0  0
 88197  1  0  0  0  0
 90198  1  0  0  0  0
 94199  1  0  0  0  0
 97200  1  0  0  0  0
 99201  1  0  0  0  0
104202  1  0  0  0  0
104203  1  0  0  0  0
105204  1  0  0  0  0
107205  1  0  0  0  0
112206  1  0  0  0  0
112207  1  0  0  0  0
114208  1  0  0  0  0
118209  1  0  0  0  0
119210  1  0  0  0  0
122211  1  0  0  0  0
122212  1  0  0  0  0
123213  1  0  0  0  0
123214  1  0  0  0  0
123215  1  0  0  0  0
126216  1  0  0  0  0
131217  1  0  0  0  0
132218  1  0  0  0  0
135219  1  0  0  0  0
135220  1  0  0  0  0
136221  1  0  0  0  0
136222  1  0  0  0  0
136223  1  0  0  0  0
138224  1  0  0  0  0
142225  1  0  0  0  0
143226  1  0  0  0  0
M  END
