
  xtb     03022221513D
 energy: -463.641292187475 gnorm: 0.000650458388 xtb: 6.4.1 (unknown)
228253  0     0  0            999 V2000
    3.6854   -9.2956   10.3324 C   0  0  0  0  0  0  0  0  0  0  0  0
    3.9034   -8.0933    9.7617 C   0  0  0  0  0  0  0  0  0  0  0  0
    2.9424   -7.7771    8.7585 C   0  0  0  0  0  0  0  0  0  0  0  0
    2.8305   -6.6025    8.0006 C   0  0  0  0  0  0  0  0  0  0  0  0
    3.8185   -5.5373    8.0625 C   0  0  0  0  0  0  0  0  0  0  0  0
    3.3505   -3.8865    8.3428 S   0  0  0  0  0  0  0  0  0  0  0  0
    4.9772   -3.3147    8.1762 C   0  0  0  0  0  0  0  0  0  0  0  0
    5.2955   -1.8662    8.3096 C   0  0  0  0  0  0  0  0  0  0  0  0
    4.4406   -1.0107    7.3762 C   0  0  0  0  0  0  0  0  0  0  0  0
    5.8194   -4.3551    7.9200 C   0  0  0  0  0  0  0  0  0  0  0  0
    7.5107   -4.1888    7.6787 Cl  0  0  0  0  0  0  0  0  0  0  0  0
    5.1672   -5.6173    7.8581 C   0  0  0  0  0  0  0  0  0  0  0  0
    5.9969   -7.0711    7.4801 Cl  0  0  0  0  0  0  0  0  0  0  0  0
    1.7319   -6.5015    7.1582 C   0  0  0  0  0  0  0  0  0  0  0  0
    0.7727   -7.5300    7.0018 C   0  0  0  0  0  0  0  0  0  0  0  0
    0.9054   -8.7224    7.7331 C   0  0  0  0  0  0  0  0  0  0  0  0
   -0.0552   -9.8030    7.5873 C   0  0  0  0  0  0  0  0  0  0  0  0
   -1.7613   -9.5190    7.7749 S   0  0  0  0  0  0  0  0  0  0  0  0
   -2.1526  -11.1779    7.4747 C   0  0  0  0  0  0  0  0  0  0  0  0
   -3.5685  -11.6355    7.4340 C   0  0  0  0  0  0  0  0  0  0  0  0
   -4.2452  -11.2062    6.1301 C   0  0  0  0  0  0  0  0  0  0  0  0
   -1.0181  -11.8947    7.2381 C   0  0  0  0  0  0  0  0  0  0  0  0
    0.1729  -11.1217    7.3075 C   0  0  0  0  0  0  0  0  0  0  0  0
    1.7169  -11.7858    6.9751 Cl  0  0  0  0  0  0  0  0  0  0  0  0
   -1.0000  -13.5747    6.8887 Cl  0  0  0  0  0  0  0  0  0  0  0  0
    1.9849   -8.8099    8.6061 C   0  0  0  0  0  0  0  0  0  0  0  0
    2.3107  -10.1274    9.6954 S   0  0  0  0  0  0  0  0  0  0  0  0
   -0.2074   -7.1930    6.0324 C   0  0  0  0  0  0  0  0  0  0  0  0
   -0.0198   -5.9634    5.4786 C   0  0  0  0  0  0  0  0  0  0  0  0
    1.3881   -5.1466    6.1257 S   0  0  0  0  0  0  0  0  0  0  0  0
   -0.7812   -5.3050    4.4702 C   0  0  0  0  0  0  0  0  0  0  0  0
   -0.5275   -4.0713    3.9500 C   0  0  0  0  0  0  0  0  0  0  0  0
   -1.4304   -3.6920    2.9310 C   0  0  0  0  0  0  0  0  0  0  0  0
   -1.3893   -2.5382    2.1362 C   0  0  0  0  0  0  0  0  0  0  0  0
   -0.4271   -1.4685    2.3486 C   0  0  0  0  0  0  0  0  0  0  0  0
   -0.2874   -0.7214    3.9160 S   0  0  0  0  0  0  0  0  0  0  0  0
    0.7781    0.5101    3.3279 C   0  0  0  0  0  0  0  0  0  0  0  0
    1.2621    1.6080    4.2100 C   0  0  0  0  0  0  0  0  0  0  0  0
    1.5299    1.1351    5.6341 C   0  0  0  0  0  0  0  0  0  0  0  0
    1.0223    0.3215    2.0008 C   0  0  0  0  0  0  0  0  0  0  0  0
    2.0117    1.3559    1.0593 Cl  0  0  0  0  0  0  0  0  0  0  0  0
    0.3488   -0.7988    1.4427 C   0  0  0  0  0  0  0  0  0  0  0  0
    0.5855   -1.2753   -0.1880 Cl  0  0  0  0  0  0  0  0  0  0  0  0
   -2.3780   -2.4199    1.1669 C   0  0  0  0  0  0  0  0  0  0  0  0
   -3.4100   -3.3697    0.9754 C   0  0  0  0  0  0  0  0  0  0  0  0
   -3.4315   -4.5366    1.7583 C   0  0  0  0  0  0  0  0  0  0  0  0
   -4.4418   -5.5650    1.5715 C   0  0  0  0  0  0  0  0  0  0  0  0
   -4.7233   -6.2683    0.0052 S   0  0  0  0  0  0  0  0  0  0  0  0
   -5.9150   -7.3612    0.6212 C   0  0  0  0  0  0  0  0  0  0  0  0
   -6.5673   -8.3692   -0.2588 C   0  0  0  0  0  0  0  0  0  0  0  0
   -5.7022   -9.6261   -0.3807 C   0  0  0  0  0  0  0  0  0  0  0  0
   -6.0728   -7.1806    1.9628 C   0  0  0  0  0  0  0  0  0  0  0  0
   -5.2442   -6.1612    2.5046 C   0  0  0  0  0  0  0  0  0  0  0  0
   -5.3326   -5.6900    4.1500 Cl  0  0  0  0  0  0  0  0  0  0  0  0
   -7.1673   -8.0831    2.9278 Cl  0  0  0  0  0  0  0  0  0  0  0  0
   -2.4252   -4.6767    2.7085 C   0  0  0  0  0  0  0  0  0  0  0  0
   -2.1802   -6.0591    3.7400 S   0  0  0  0  0  0  0  0  0  0  0  0
   -4.3492   -2.9415   -0.0093 C   0  0  0  0  0  0  0  0  0  0  0  0
   -4.0361   -1.7430   -0.5547 C   0  0  0  0  0  0  0  0  0  0  0  0
   -2.5603   -1.0631    0.1104 S   0  0  0  0  0  0  0  0  0  0  0  0
   -4.6378   -0.8784   -1.5458 C   0  0  0  0  0  0  0  0  0  0  0  0
   -5.7330   -0.0816   -1.4446 C   0  0  0  0  0  0  0  0  0  0  0  0
   -5.7242    1.0029   -2.3692 C   0  0  0  0  0  0  0  0  0  0  0  0
   -6.5233    2.1633   -2.3290 C   0  0  0  0  0  0  0  0  0  0  0  0
   -7.7446    2.1745   -1.5411 C   0  0  0  0  0  0  0  0  0  0  0  0
   -8.9103    0.9051   -1.8050 S   0  0  0  0  0  0  0  0  0  0  0  0
  -10.0187    1.5692   -0.6556 C   0  0  0  0  0  0  0  0  0  0  0  0
  -11.3063    0.8922   -0.3403 C   0  0  0  0  0  0  0  0  0  0  0  0
  -11.1049   -0.2012    0.7118 C   0  0  0  0  0  0  0  0  0  0  0  0
   -9.4959    2.6960   -0.0955 C   0  0  0  0  0  0  0  0  0  0  0  0
  -10.2972    3.6294    1.1018 Cl  0  0  0  0  0  0  0  0  0  0  0  0
   -8.2118    3.0458   -0.5964 C   0  0  0  0  0  0  0  0  0  0  0  0
   -7.3464    4.3845    0.0298 Cl  0  0  0  0  0  0  0  0  0  0  0  0
   -6.0668    3.2586   -3.0572 C   0  0  0  0  0  0  0  0  0  0  0  0
   -4.9430    3.1810   -3.9187 C   0  0  0  0  0  0  0  0  0  0  0  0
   -4.2182    1.9884   -4.0533 C   0  0  0  0  0  0  0  0  0  0  0  0
   -3.0718    1.8732   -4.9365 C   0  0  0  0  0  0  0  0  0  0  0  0
   -1.7715    3.0286   -4.9293 S   0  0  0  0  0  0  0  0  0  0  0  0
   -0.9363    2.2164   -6.2078 C   0  0  0  0  0  0  0  0  0  0  0  0
    0.3051    2.8029   -6.7773 C   0  0  0  0  0  0  0  0  0  0  0  0
    0.0285    4.1896   -7.3599 C   0  0  0  0  0  0  0  0  0  0  0  0
   -1.6207    1.1018   -6.5892 C   0  0  0  0  0  0  0  0  0  0  0  0
   -2.8255    0.8974   -5.8628 C   0  0  0  0  0  0  0  0  0  0  0  0
   -3.8960   -0.3963   -6.2004 Cl  0  0  0  0  0  0  0  0  0  0  0  0
   -1.1094    0.0372   -7.8337 Cl  0  0  0  0  0  0  0  0  0  0  0  0
   -4.5955    0.9469   -3.2194 C   0  0  0  0  0  0  0  0  0  0  0  0
   -3.6101   -0.4426   -2.8967 S   0  0  0  0  0  0  0  0  0  0  0  0
   -4.6126    4.4328   -4.4772 C   0  0  0  0  0  0  0  0  0  0  0  0
   -5.3877    5.4579   -4.0240 C   0  0  0  0  0  0  0  0  0  0  0  0
   -6.6829    4.8926   -2.9916 S   0  0  0  0  0  0  0  0  0  0  0  0
   -5.0316    6.8324   -4.1641 C   0  0  0  0  0  0  0  0  0  0  0  0
   -3.4756    7.1723   -4.8882 S   0  0  0  0  0  0  0  0  0  0  0  0
   -3.5473    8.8282   -4.4229 C   0  0  0  0  0  0  0  0  0  0  0  0
   -4.7762    9.1163   -3.8092 C   0  0  0  0  0  0  0  0  0  0  0  0
   -5.5946    7.9649   -3.6544 C   0  0  0  0  0  0  0  0  0  0  0  0
   -5.1172   10.4460   -3.3684 C   0  0  0  0  0  0  0  0  0  0  0  0
   -4.4084   11.4269   -3.3884 O   0  0  0  0  0  0  0  0  0  0  0  0
   -6.5718   10.6051   -2.8332 C   0  0  0  0  0  0  0  0  0  0  0  0
   -6.7798    9.8876   -1.7148 F   0  0  0  0  0  0  0  0  0  0  0  0
   -7.4903   10.1995   -3.7278 F   0  0  0  0  0  0  0  0  0  0  0  0
   -6.8457   11.8734   -2.5405 F   0  0  0  0  0  0  0  0  0  0  0  0
   -2.4985    9.7452   -4.7381 C   0  0  0  0  0  0  0  0  0  0  0  0
   -1.1879    9.4745   -4.9199 C   0  0  0  0  0  0  0  0  0  0  0  0
   -0.4720    8.2523   -4.6714 C   0  0  0  0  0  0  0  0  0  0  0  0
   -0.6549    7.2929   -3.7187 C   0  0  0  0  0  0  0  0  0  0  0  0
    0.3018    6.2495   -3.7615 C   0  0  0  0  0  0  0  0  0  0  0  0
    0.3757    5.1078   -2.9452 C   0  0  0  0  0  0  0  0  0  0  0  0
   -0.5415    4.8457   -1.8482 C   0  0  0  0  0  0  0  0  0  0  0  0
   -2.2648    4.7550   -2.0644 S   0  0  0  0  0  0  0  0  0  0  0  0
   -2.5251    4.2805   -0.4212 C   0  0  0  0  0  0  0  0  0  0  0  0
   -3.8852    3.9436    0.0784 C   0  0  0  0  0  0  0  0  0  0  0  0
   -4.0232    2.4367    0.3009 C   0  0  0  0  0  0  0  0  0  0  0  0
   -1.3395    4.2172    0.2477 C   0  0  0  0  0  0  0  0  0  0  0  0
   -1.1928    3.7758    1.8961 Cl  0  0  0  0  0  0  0  0  0  0  0  0
   -0.2146    4.5450   -0.5531 C   0  0  0  0  0  0  0  0  0  0  0  0
    1.3686    4.6360    0.0933 Cl  0  0  0  0  0  0  0  0  0  0  0  0
    1.3940    4.2052   -3.2203 C   0  0  0  0  0  0  0  0  0  0  0  0
    2.3844    4.4248   -4.2121 C   0  0  0  0  0  0  0  0  0  0  0  0
    2.3359    5.5860   -5.0056 C   0  0  0  0  0  0  0  0  0  0  0  0
    3.3697    5.8927   -5.9818 C   0  0  0  0  0  0  0  0  0  0  0  0
    4.1031    7.4746   -5.9661 S   0  0  0  0  0  0  0  0  0  0  0  0
    5.1789    7.0860   -7.2607 C   0  0  0  0  0  0  0  0  0  0  0  0
    6.1915    8.0625   -7.7468 C   0  0  0  0  0  0  0  0  0  0  0  0
    7.4740    7.9818   -6.9153 C   0  0  0  0  0  0  0  0  0  0  0  0
    4.9771    5.8019   -7.6690 C   0  0  0  0  0  0  0  0  0  0  0  0
    3.9543    5.1232   -6.9522 C   0  0  0  0  0  0  0  0  0  0  0  0
    3.5021    3.5219   -7.3810 Cl  0  0  0  0  0  0  0  0  0  0  0  0
    5.8611    5.0504   -8.9344 Cl  0  0  0  0  0  0  0  0  0  0  0  0
    1.2795    6.4610   -4.7661 C   0  0  0  0  0  0  0  0  0  0  0  0
    0.9588    7.9301   -5.6404 S   0  0  0  0  0  0  0  0  0  0  0  0
    3.3334    3.3736   -4.2356 C   0  0  0  0  0  0  0  0  0  0  0  0
    3.0558    2.3680   -3.3571 C   0  0  0  0  0  0  0  0  0  0  0  0
    1.6182    2.6786   -2.4162 S   0  0  0  0  0  0  0  0  0  0  0  0
    3.7963    1.1619   -3.1697 C   0  0  0  0  0  0  0  0  0  0  0  0
    3.7877    0.3204   -2.0996 C   0  0  0  0  0  0  0  0  0  0  0  0
    4.6666   -0.7830   -2.2464 C   0  0  0  0  0  0  0  0  0  0  0  0
    4.9267   -1.8165   -1.3319 C   0  0  0  0  0  0  0  0  0  0  0  0
    4.4372   -1.7651    0.0359 C   0  0  0  0  0  0  0  0  0  0  0  0
    3.6490   -3.1103    0.8013 S   0  0  0  0  0  0  0  0  0  0  0  0
    3.5926   -2.3069    2.3310 C   0  0  0  0  0  0  0  0  0  0  0  0
    3.0975   -2.9967    3.5533 C   0  0  0  0  0  0  0  0  0  0  0  0
    4.2505   -3.6974    4.2776 C   0  0  0  0  0  0  0  0  0  0  0  0
    4.1510   -1.0673    2.2355 C   0  0  0  0  0  0  0  0  0  0  0  0
    4.3134    0.0039    3.5605 Cl  0  0  0  0  0  0  0  0  0  0  0  0
    4.6217   -0.7498    0.9356 C   0  0  0  0  0  0  0  0  0  0  0  0
    5.4289    0.7218    0.5789 Cl  0  0  0  0  0  0  0  0  0  0  0  0
    5.7665   -2.8387   -1.7605 C   0  0  0  0  0  0  0  0  0  0  0  0
    6.3869   -2.8483   -3.0326 C   0  0  0  0  0  0  0  0  0  0  0  0
    6.1547   -1.7970   -3.9326 C   0  0  0  0  0  0  0  0  0  0  0  0
    6.7482   -1.7685   -5.2593 C   0  0  0  0  0  0  0  0  0  0  0  0
    7.6048   -0.3690   -5.8332 S   0  0  0  0  0  0  0  0  0  0  0  0
    7.8890   -1.0814   -7.3845 C   0  0  0  0  0  0  0  0  0  0  0  0
    8.5766   -0.3162   -8.4604 C   0  0  0  0  0  0  0  0  0  0  0  0
    7.6350    0.7240   -9.0721 C   0  0  0  0  0  0  0  0  0  0  0  0
    7.3426   -2.3285   -7.4399 C   0  0  0  0  0  0  0  0  0  0  0  0
    6.6988   -2.7238   -6.2359 C   0  0  0  0  0  0  0  0  0  0  0  0
    5.8711   -4.2199   -6.0808 Cl  0  0  0  0  0  0  0  0  0  0  0  0
    7.4098   -3.3462   -8.8206 Cl  0  0  0  0  0  0  0  0  0  0  0  0
    5.3104   -0.7798   -3.5073 C   0  0  0  0  0  0  0  0  0  0  0  0
    4.8727    0.6195   -4.4423 S   0  0  0  0  0  0  0  0  0  0  0  0
    7.2614   -3.9642   -3.1822 C   0  0  0  0  0  0  0  0  0  0  0  0
    7.2864   -4.7583   -2.0930 C   0  0  0  0  0  0  0  0  0  0  0  0
    6.2658   -4.2094   -0.8091 S   0  0  0  0  0  0  0  0  0  0  0  0
    4.2541   -9.7686   11.1089 H   0  0  0  0  0  0  0  0  0  0  0  0
    4.7042   -7.4342   10.0418 H   0  0  0  0  0  0  0  0  0  0  0  0
    6.3544   -1.7250    8.0871 H   0  0  0  0  0  0  0  0  0  0  0  0
    5.1204   -1.5523    9.3426 H   0  0  0  0  0  0  0  0  0  0  0  0
    4.6182   -1.2847    6.3398 H   0  0  0  0  0  0  0  0  0  0  0  0
    4.6862    0.0401    7.5034 H   0  0  0  0  0  0  0  0  0  0  0  0
    3.3853   -1.1527    7.5981 H   0  0  0  0  0  0  0  0  0  0  0  0
   -4.1130  -11.2109    8.2798 H   0  0  0  0  0  0  0  0  0  0  0  0
   -3.5852  -12.7233    7.5181 H   0  0  0  0  0  0  0  0  0  0  0  0
   -4.2397  -10.1224    6.0404 H   0  0  0  0  0  0  0  0  0  0  0  0
   -3.7215  -11.6286    5.2760 H   0  0  0  0  0  0  0  0  0  0  0  0
   -5.2750  -11.5524    6.1129 H   0  0  0  0  0  0  0  0  0  0  0  0
   -1.0184   -7.8378    5.7467 H   0  0  0  0  0  0  0  0  0  0  0  0
    0.2825   -3.4526    4.2889 H   0  0  0  0  0  0  0  0  0  0  0  0
    2.1707    2.0269    3.7729 H   0  0  0  0  0  0  0  0  0  0  0  0
    0.5083    2.4024    4.2269 H   0  0  0  0  0  0  0  0  0  0  0  0
    2.2991    0.3673    5.6394 H   0  0  0  0  0  0  0  0  0  0  0  0
    0.6239    0.7239    6.0740 H   0  0  0  0  0  0  0  0  0  0  0  0
    1.8674    1.9670    6.2461 H   0  0  0  0  0  0  0  0  0  0  0  0
   -7.5367   -8.6324    0.1683 H   0  0  0  0  0  0  0  0  0  0  0  0
   -6.7248   -7.9394   -1.2494 H   0  0  0  0  0  0  0  0  0  0  0  0
   -4.7349   -9.3780   -0.8110 H   0  0  0  0  0  0  0  0  0  0  0  0
   -5.5436  -10.0705    0.5986 H   0  0  0  0  0  0  0  0  0  0  0  0
   -6.1921  -10.3556   -1.0196 H   0  0  0  0  0  0  0  0  0  0  0  0
   -5.2130   -3.5126   -0.2963 H   0  0  0  0  0  0  0  0  0  0  0  0
   -6.4641   -0.1909   -0.6645 H   0  0  0  0  0  0  0  0  0  0  0  0
  -11.7168    0.4502   -1.2496 H   0  0  0  0  0  0  0  0  0  0  0  0
  -12.0097    1.6368    0.0363 H   0  0  0  0  0  0  0  0  0  0  0  0
  -10.7095    0.2270    1.6294 H   0  0  0  0  0  0  0  0  0  0  0  0
  -10.4066   -0.9513    0.3478 H   0  0  0  0  0  0  0  0  0  0  0  0
  -12.0524   -0.6846    0.9331 H   0  0  0  0  0  0  0  0  0  0  0  0
    1.0639    2.8856   -5.9960 H   0  0  0  0  0  0  0  0  0  0  0  0
    0.6825    2.1367   -7.5543 H   0  0  0  0  0  0  0  0  0  0  0  0
   -0.3426    4.8558   -6.5838 H   0  0  0  0  0  0  0  0  0  0  0  0
    0.9387    4.6125   -7.7746 H   0  0  0  0  0  0  0  0  0  0  0  0
   -0.7164    4.1258   -8.1493 H   0  0  0  0  0  0  0  0  0  0  0  0
   -3.7817    4.5878   -5.1391 H   0  0  0  0  0  0  0  0  0  0  0  0
   -6.5465    7.9521   -3.1563 H   0  0  0  0  0  0  0  0  0  0  0  0
   -2.8192   10.7741   -4.8399 H   0  0  0  0  0  0  0  0  0  0  0  0
   -0.5652   10.2823   -5.2835 H   0  0  0  0  0  0  0  0  0  0  0  0
   -1.4344    7.3341   -2.9802 H   0  0  0  0  0  0  0  0  0  0  0  0
   -4.0684    4.4661    1.0204 H   0  0  0  0  0  0  0  0  0  0  0  0
   -4.6227    4.2775   -0.6517 H   0  0  0  0  0  0  0  0  0  0  0  0
   -3.3552    2.1033    1.0900 H   0  0  0  0  0  0  0  0  0  0  0  0
   -3.7724    1.8993   -0.6097 H   0  0  0  0  0  0  0  0  0  0  0  0
   -5.0446    2.1948    0.5810 H   0  0  0  0  0  0  0  0  0  0  0  0
    6.4189    7.8411   -8.7912 H   0  0  0  0  0  0  0  0  0  0  0  0
    5.7803    9.0710   -7.6821 H   0  0  0  0  0  0  0  0  0  0  0  0
    7.9020    6.9846   -6.9776 H   0  0  0  0  0  0  0  0  0  0  0  0
    8.2030    8.6978   -7.2845 H   0  0  0  0  0  0  0  0  0  0  0  0
    7.2616    8.2050   -5.8726 H   0  0  0  0  0  0  0  0  0  0  0  0
    4.2068    3.3599   -4.8598 H   0  0  0  0  0  0  0  0  0  0  0  0
    3.1698    0.4809   -1.2352 H   0  0  0  0  0  0  0  0  0  0  0  0
    2.3480   -3.7369    3.2717 H   0  0  0  0  0  0  0  0  0  0  0  0
    2.6408   -2.2622    4.2209 H   0  0  0  0  0  0  0  0  0  0  0  0
    4.6944   -4.4531    3.6346 H   0  0  0  0  0  0  0  0  0  0  0  0
    5.0213   -2.9809    4.5496 H   0  0  0  0  0  0  0  0  0  0  0  0
    3.8843   -4.1772    5.1809 H   0  0  0  0  0  0  0  0  0  0  0  0
    8.9071   -1.0146   -9.2309 H   0  0  0  0  0  0  0  0  0  0  0  0
    9.4519    0.1882   -8.0464 H   0  0  0  0  0  0  0  0  0  0  0  0
    8.1477    1.2797   -9.8526 H   0  0  0  0  0  0  0  0  0  0  0  0
    6.7649    0.2371   -9.5053 H   0  0  0  0  0  0  0  0  0  0  0  0
    7.2976    1.4218   -8.3093 H   0  0  0  0  0  0  0  0  0  0  0  0
    7.8482   -4.1425   -4.0638 H   0  0  0  0  0  0  0  0  0  0  0  0
    7.8546   -5.6559   -1.9459 H   0  0  0  0  0  0  0  0  0  0  0  0
  1  2  2  0  0  0  0
  2  3  1  0  0  0  0
  3  4  2  0  0  0  0
  4  5  1  0  0  0  0
  5  6  1  0  0  0  0
  6  7  1  0  0  0  0
  7  8  1  0  0  0  0
  8  9  1  0  0  0  0
  7 10  2  0  0  0  0
 10 11  1  0  0  0  0
 10 12  1  0  0  0  0
 12 13  1  0  0  0  0
  4 14  1  0  0  0  0
 14 15  2  0  0  0  0
 15 16  1  0  0  0  0
 16 17  1  0  0  0  0
 17 18  1  0  0  0  0
 18 19  1  0  0  0  0
 19 20  1  0  0  0  0
 20 21  1  0  0  0  0
 19 22  2  0  0  0  0
 22 23  1  0  0  0  0
 23 24  1  0  0  0  0
 22 25  1  0  0  0  0
 16 26  2  0  0  0  0
 26 27  1  0  0  0  0
 15 28  1  0  0  0  0
 28 29  2  0  0  0  0
 29 30  1  0  0  0  0
 29 31  1  0  0  0  0
 31 32  2  0  0  0  0
 32 33  1  0  0  0  0
 33 34  2  0  0  0  0
 34 35  1  0  0  0  0
 35 36  1  0  0  0  0
 36 37  1  0  0  0  0
 37 38  1  0  0  0  0
 38 39  1  0  0  0  0
 37 40  2  0  0  0  0
 40 41  1  0  0  0  0
 40 42  1  0  0  0  0
 42 43  1  0  0  0  0
 34 44  1  0  0  0  0
 44 45  2  0  0  0  0
 45 46  1  0  0  0  0
 46 47  1  0  0  0  0
 47 48  1  0  0  0  0
 48 49  1  0  0  0  0
 49 50  1  0  0  0  0
 50 51  1  0  0  0  0
 49 52  2  0  0  0  0
 52 53  1  0  0  0  0
 53 54  1  0  0  0  0
 52 55  1  0  0  0  0
 46 56  2  0  0  0  0
 56 57  1  0  0  0  0
 45 58  1  0  0  0  0
 58 59  2  0  0  0  0
 59 60  1  0  0  0  0
 59 61  1  0  0  0  0
 61 62  2  0  0  0  0
 62 63  1  0  0  0  0
 63 64  2  0  0  0  0
 64 65  1  0  0  0  0
 65 66  1  0  0  0  0
 66 67  1  0  0  0  0
 67 68  1  0  0  0  0
 68 69  1  0  0  0  0
 67 70  2  0  0  0  0
 70 71  1  0  0  0  0
 70 72  1  0  0  0  0
 72 73  1  0  0  0  0
 64 74  1  0  0  0  0
 74 75  2  0  0  0  0
 75 76  1  0  0  0  0
 76 77  1  0  0  0  0
 77 78  1  0  0  0  0
 78 79  1  0  0  0  0
 79 80  1  0  0  0  0
 80 81  1  0  0  0  0
 79 82  2  0  0  0  0
 82 83  1  0  0  0  0
 83 84  1  0  0  0  0
 82 85  1  0  0  0  0
 76 86  2  0  0  0  0
 86 87  1  0  0  0  0
 75 88  1  0  0  0  0
 88 89  2  0  0  0  0
 89 90  1  0  0  0  0
 89 91  1  0  0  0  0
 91 92  1  0  0  0  0
 92 93  1  0  0  0  0
 93 94  2  0  0  0  0
 94 95  1  0  0  0  0
 94 96  1  0  0  0  0
 96 97  2  0  0  0  0
 96 98  1  0  0  0  0
 98 99  1  0  0  0  0
 98100  1  0  0  0  0
 98101  1  0  0  0  0
 93102  1  0  0  0  0
102103  2  0  0  0  0
103104  1  0  0  0  0
104105  2  0  0  0  0
105106  1  0  0  0  0
106107  2  0  0  0  0
107108  1  0  0  0  0
108109  1  0  0  0  0
109110  1  0  0  0  0
110111  1  0  0  0  0
111112  1  0  0  0  0
110113  2  0  0  0  0
113114  1  0  0  0  0
113115  1  0  0  0  0
115116  1  0  0  0  0
107117  1  0  0  0  0
117118  2  0  0  0  0
118119  1  0  0  0  0
119120  1  0  0  0  0
120121  1  0  0  0  0
121122  1  0  0  0  0
122123  1  0  0  0  0
123124  1  0  0  0  0
122125  2  0  0  0  0
125126  1  0  0  0  0
126127  1  0  0  0  0
125128  1  0  0  0  0
119129  2  0  0  0  0
129130  1  0  0  0  0
118131  1  0  0  0  0
131132  2  0  0  0  0
132133  1  0  0  0  0
132134  1  0  0  0  0
134135  2  0  0  0  0
135136  1  0  0  0  0
136137  2  0  0  0  0
137138  1  0  0  0  0
138139  1  0  0  0  0
139140  1  0  0  0  0
140141  1  0  0  0  0
141142  1  0  0  0  0
140143  2  0  0  0  0
143144  1  0  0  0  0
143145  1  0  0  0  0
145146  1  0  0  0  0
137147  1  0  0  0  0
147148  2  0  0  0  0
148149  1  0  0  0  0
149150  1  0  0  0  0
150151  1  0  0  0  0
151152  1  0  0  0  0
152153  1  0  0  0  0
153154  1  0  0  0  0
152155  2  0  0  0  0
155156  1  0  0  0  0
156157  1  0  0  0  0
155158  1  0  0  0  0
149159  2  0  0  0  0
159160  1  0  0  0  0
148161  1  0  0  0  0
161162  2  0  0  0  0
162163  1  0  0  0  0
 27  1  1  0  0  0  0
 57 31  1  0  0  0  0
 87 61  1  0  0  0  0
 95 91  2  0  0  0  0
130104  1  0  0  0  0
160134  1  0  0  0  0
 26  3  1  0  0  0  0
 56 33  1  0  0  0  0
 86 63  1  0  0  0  0
129106  1  0  0  0  0
159136  1  0  0  0  0
 12  5  2  0  0  0  0
 30 14  1  0  0  0  0
 42 35  2  0  0  0  0
 60 44  1  0  0  0  0
 72 65  2  0  0  0  0
 90 74  1  0  0  0  0
115108  2  0  0  0  0
133117  1  0  0  0  0
145138  2  0  0  0  0
163147  1  0  0  0  0
 23 17  2  0  0  0  0
 53 47  2  0  0  0  0
 83 77  2  0  0  0  0
126120  2  0  0  0  0
156150  2  0  0  0  0
  1164  1  0  0  0  0
  2165  1  0  0  0  0
  8166  1  0  0  0  0
  8167  1  0  0  0  0
  9168  1  0  0  0  0
  9169  1  0  0  0  0
  9170  1  0  0  0  0
 20171  1  0  0  0  0
 20172  1  0  0  0  0
 21173  1  0  0  0  0
 21174  1  0  0  0  0
 21175  1  0  0  0  0
 28176  1  0  0  0  0
 32177  1  0  0  0  0
 38178  1  0  0  0  0
 38179  1  0  0  0  0
 39180  1  0  0  0  0
 39181  1  0  0  0  0
 39182  1  0  0  0  0
 50183  1  0  0  0  0
 50184  1  0  0  0  0
 51185  1  0  0  0  0
 51186  1  0  0  0  0
 51187  1  0  0  0  0
 58188  1  0  0  0  0
 62189  1  0  0  0  0
 68190  1  0  0  0  0
 68191  1  0  0  0  0
 69192  1  0  0  0  0
 69193  1  0  0  0  0
 69194  1  0  0  0  0
 80195  1  0  0  0  0
 80196  1  0  0  0  0
 81197  1  0  0  0  0
 81198  1  0  0  0  0
 81199  1  0  0  0  0
 88200  1  0  0  0  0
 95201  1  0  0  0  0
102202  1  0  0  0  0
103203  1  0  0  0  0
105204  1  0  0  0  0
111205  1  0  0  0  0
111206  1  0  0  0  0
112207  1  0  0  0  0
112208  1  0  0  0  0
112209  1  0  0  0  0
123210  1  0  0  0  0
123211  1  0  0  0  0
124212  1  0  0  0  0
124213  1  0  0  0  0
124214  1  0  0  0  0
131215  1  0  0  0  0
135216  1  0  0  0  0
141217  1  0  0  0  0
141218  1  0  0  0  0
142219  1  0  0  0  0
142220  1  0  0  0  0
142221  1  0  0  0  0
153222  1  0  0  0  0
153223  1  0  0  0  0
154224  1  0  0  0  0
154225  1  0  0  0  0
154226  1  0  0  0  0
161227  1  0  0  0  0
162228  1  0  0  0  0
M  END
