235

C          5.77200       -0.16000        9.93670
C          5.48920       -1.47640        9.88860
C          4.24350       -1.75740        9.25120
C          3.67660       -3.01450        8.97590
C          4.28500       -4.23510        9.46740
C          4.79260       -4.47180       10.71380
C          5.29630       -5.77820       10.87120
C          5.17900       -6.54120        9.75050
C          5.63590       -7.94210        9.53060
C          6.90930       -7.98400        8.68300
S          4.43020       -5.65090        8.46600
C          2.50280       -3.01360        8.23040
C          1.84840       -1.82950        7.81240
C          2.41030       -0.56970        8.09450
C          1.81850        0.67440        7.64430
C          1.75300        1.86570        8.31260
C          1.15020        2.89560        7.56500
C          0.76240        2.50710        6.31920
C          0.12450        3.32560        5.24850
C          1.16580        4.12690        4.46410
S          1.13950        0.83930        6.04740
C          3.60470       -0.57660        8.81100
S          4.54810        0.83320        9.22440
C          0.63630       -2.11570        7.13430
C          0.38940       -3.44760        6.99050
S          1.63150       -4.43520        7.72100
C         -0.69750       -4.02150        6.25410
C         -1.92800       -3.47460        6.05220
C         -2.71750       -4.18020        5.10830
C         -3.96810       -3.79740        4.58170
C         -4.72150       -2.72010        5.18710
C         -4.87880       -2.46750        6.52210
C         -5.67010       -1.33300        6.78640
C         -6.11730       -0.71270        5.66030
C         -6.93000        0.53090        5.54590
C         -6.06580        1.71950        5.11860
S         -5.57000       -1.53420        4.23600
C         -4.38500       -4.47310        3.44120
C         -3.66420       -5.55070        2.86720
C         -2.46940       -6.00330        3.46110
C         -1.65760       -7.06510        2.90040
C         -0.94920       -8.02180        3.57030
C         -0.19580       -8.85920        2.72240
C         -0.30220       -8.53700        1.40540
C          0.33670       -9.18510        0.22530
C         -0.70320       -9.74540       -0.74600
S         -1.36410       -7.18510        1.18610
C         -2.02490       -5.28950        4.57000
S         -0.47300       -5.49820        5.33930
C         -4.23710       -5.97140        1.64390
C         -5.30790       -5.22070        1.24970
S         -5.76500       -4.04640        2.46550
C         -5.81070       -5.09980       -0.08200
C         -5.18390       -5.56570       -1.20430
C         -5.57920       -4.90360       -2.38980
C         -4.92720       -4.92640       -3.63830
C         -3.81500       -5.81830       -3.91530
C         -2.71600       -6.09590       -3.15420
C         -1.82520       -6.99740       -3.77250
C         -2.24130       -7.41560       -4.99830
C         -1.55070       -8.32630       -5.95390
C         -0.95420       -7.54260       -7.12520
S         -3.75350       -6.68400       -5.42420
C         -5.31390       -3.95620       -4.55300
C         -6.36410       -3.03640       -4.31550
C         -7.07380       -3.06780       -3.09850
C         -8.11740       -2.10740       -2.78850
C         -8.11850       -0.75210       -2.95210
C         -9.30800       -0.13970       -2.50900
C        -10.21960       -1.01970       -2.01370
C        -11.55800       -0.73880       -1.42260
C        -11.52300       -0.87310        0.10130
S         -9.61200       -2.64150       -2.07210
C         -6.62660       -3.97930       -2.15210
S         -7.08090       -3.95850       -0.46690
C         -6.41460       -2.02860       -5.30650
C         -5.37000       -2.07460       -6.19000
S         -4.42390       -3.54270       -5.99600
C         -4.79770       -0.99550       -6.93950
C         -3.62150       -1.20680       -7.70310
C         -2.67790       -0.14710       -7.97070
N         -1.60080       -0.59410       -8.61140
S         -1.75940       -2.17170       -8.86900
N         -3.18910       -2.37790       -8.16060
C         -2.88590        1.15040       -7.45370
C         -4.18760        1.40910       -6.98800
C         -4.71280        2.67130       -6.60620
C         -5.95390        2.59430       -6.05800
C         -6.76770        3.68560       -5.52610
O         -6.46480        4.85360       -5.56720
O         -7.88500        3.20030       -4.97030
C         -8.81810        4.11910       -4.40670
C        -10.21920        3.75500       -4.86870
S         -6.54960        0.96160       -5.97130
C         -5.10670        0.35160       -6.73040
C         -1.77670        1.99500       -7.12710
C         -1.70730        2.77840       -6.00440
C         -0.40500        3.22350       -5.69830
C         -0.00350        3.91240       -4.53340
C         -0.98680        4.46010       -3.62730
C         -2.16820        5.07390       -3.94640
C         -2.90440        5.48900       -2.82080
C         -2.29920        5.18930       -1.63850
C         -2.77040        5.47040       -0.25300
C         -1.80820        6.39600        0.49230
S         -0.78090        4.39430       -1.89930
C          1.36600        3.97590       -4.31060
C          2.32360        3.52420       -5.25160
C          1.91440        2.97250       -6.48660
C          2.88990        2.63240       -7.49820
C          4.02700        3.32480       -7.81860
C          4.76460        2.73530       -8.86230
C          4.19860        1.59520       -9.34580
C          4.70870        0.68750      -10.41140
C          5.29230       -0.59530       -9.81510
S          2.72390        1.22740       -8.51230
C          0.54710        2.76340       -6.64110
S         -0.22190        1.83800       -7.90850
C          3.64000        3.60440       -4.73590
C          3.70220        4.09640       -3.46380
S          2.12860        4.54940       -2.85360
C          4.85420        4.19240       -2.62570
C          6.15950        4.05260       -2.99190
C          7.06930        4.13770       -1.90840
C          8.46950        3.99230       -1.94050
C          9.20250        3.80210       -3.17560
C         10.27210        2.98270       -3.40470
C         10.75190        3.04300       -4.72820
C         10.06950        3.91880       -5.51460
C         10.25470        4.21640       -6.96270
C          9.08320        3.68590       -7.79230
S          8.80090        4.69000       -4.62120
C          9.12000        4.03530       -0.70990
C          8.44910        4.20120        0.52400
C          7.04960        4.33750        0.55720
C          6.29520        4.44660        1.79070
C          5.19400        5.21570        2.04020
C          4.65160        5.01720        3.32540
C          5.31940        4.08890        4.06270
C          5.02590        3.60930        5.44300
C          4.65690        2.12610        5.46850
S          6.66070        3.44570        3.17150
C          6.40030        4.32390       -0.67430
S          4.67700        4.44520       -0.90370
C          9.36630        4.25850        1.61510
C         10.65220        4.13880        1.23050
S         10.84620        3.94050       -0.47640
H          6.63850        0.31530       10.35320
H          6.14570       -2.23990       10.26300
H          4.76750       -3.74470       11.50620
H          5.72470       -6.14080       11.78910
H          5.82450       -8.40680       10.50080
H          4.85080       -8.50900        9.02470
H          7.23210       -9.01180        8.53720
H          6.72730       -7.53380        7.70990
H          7.70900       -7.43400        9.17420
H          2.09160        1.99250        9.32500
H          1.00120        3.89120        7.94480
H         -0.41850        2.67140        4.56380
H         -0.59060        4.01490        5.70510
H          1.88100        3.46080        3.98760
H          0.68140        4.72110        3.69310
H          1.70530        4.79380        5.13270
H         -0.02100       -1.36390        6.73950
H         -2.24700       -2.56490        6.52650
H         -4.47010       -3.09960        7.29050
H         -5.90410       -0.99310        7.78000
H         -7.39140        0.74070        6.51330
H         -7.72440        0.38380        4.81040
H         -5.27310        1.89080        5.84350
H         -5.61180        1.52360        4.14990
H         -6.67120        2.61950        5.04480
H         -0.99090       -8.14430        4.63780
H          0.40960       -9.67200        3.08300
H          0.98680       -9.98820        0.57860
H          0.95760       -8.45330       -0.30020
H         -1.34230       -8.94740       -1.11810
H         -0.21320      -10.22100       -1.59210
H         -1.32830      -10.48300       -0.24760
H         -3.84180       -6.76920        1.04520
H         -4.39850       -6.29620       -1.17370
H         -2.52140       -5.63460       -2.20220
H         -0.90430       -7.32100       -3.31970
H         -2.26000       -9.06220       -6.34010
H         -0.75800       -8.85900       -5.42390
H         -1.73880       -7.01090       -7.65860
H         -0.45580       -8.21730       -7.81690
H         -0.23040       -6.81580       -6.76340
H         -7.27990       -0.20030       -3.33640
H         -9.47680        0.92170       -2.55970
H        -12.29430       -1.43770       -1.82670
H        -11.86010        0.27440       -1.69700
H        -10.80500       -0.17480        0.52540
H        -11.22820       -1.88160        0.38190
H        -12.50350       -0.66530        0.52240
H         -7.17820       -1.27630       -5.32280
H         -4.20870        3.60610       -6.77010
H         -8.73630        4.04380       -3.31650
H         -8.54350        5.13340       -4.71530
H        -10.44250        2.72450       -4.60360
H        -10.94270        4.41160       -4.39390
H        -10.30020        3.85940       -5.94760
H         -2.53840        2.92250       -5.33920
H         -2.48040        5.26400       -4.95750
H         -3.85360        5.98990       -2.89240
H         -2.86040        4.53080        0.29980
H         -3.76030        5.92840       -0.30760
H         -0.82320        5.93910        0.55760
H         -1.71390        7.34450       -0.03140
H         -2.17240        6.58840        1.49860
H          4.30050        4.25340       -7.35000
H          5.68120        3.14810       -9.24630
H          5.47880        1.21160      -10.98160
H          3.89450        0.42680      -11.09160
H          5.66390       -1.24390      -10.60440
H          4.52840       -1.12930       -9.25490
H          6.11340       -0.35970       -9.14180
H          4.50160        3.23800       -5.26200
H          6.45800        3.88120       -4.00840
H         10.68060        2.32540       -2.65870
H         11.57850        2.45340       -5.08350
H         10.33600        5.29650       -7.11060
H         11.18520        3.75440       -7.29920
H          9.23930        3.90100       -8.84660
H          8.15490        4.15530       -7.47400
H          8.98670        2.60950       -7.66640
H          4.80040        5.92870        1.33850
H          3.79050        5.54970        3.68790
H          5.90040        3.76650        6.08060
H          4.20130        4.19920        5.84860
H          3.78830        1.93740        4.84180
H          5.48410        1.52330        5.10030
H          4.42500        1.81720        6.48490
H          9.06670        4.39880        2.63700
H         11.52950        4.15200        1.84710
