
  xtb     02282218173D
 energy: -113.672932886136 gnorm: 0.000500109896 xtb: 6.4.1 (unknown)
 55 62  0     0  0            999 V2000
   -2.7504    3.3049   10.1546 C   0  0  0  0  0  0  0  0  0  0  0  0
   -2.1938    4.5452   10.0662 C   0  0  0  0  0  0  0  0  0  0  0  0
   -1.5421    4.8076    8.9203 N   0  0  0  0  0  0  0  0  0  0  0  0
   -1.5710    3.8042    8.1025 C   0  0  0  0  0  0  0  0  0  0  0  0
   -2.4471    2.4064    8.7252 S   0  0  0  0  0  0  0  0  0  0  0  0
   -0.9678    3.8078    6.8141 C   0  0  0  0  0  0  0  0  0  0  0  0
   -0.2676    4.8461    6.2303 C   0  0  0  0  0  0  0  0  0  0  0  0
    0.1948    4.6169    5.0019 N   0  0  0  0  0  0  0  0  0  0  0  0
   -0.1057    3.4268    4.5716 C   0  0  0  0  0  0  0  0  0  0  0  0
   -1.0275    2.4639    5.7225 S   0  0  0  0  0  0  0  0  0  0  0  0
    0.2491    2.9318    3.2908 C   0  0  0  0  0  0  0  0  0  0  0  0
    0.9130    3.6181    2.2865 C   0  0  0  0  0  0  0  0  0  0  0  0
    1.1087    2.9424    1.1624 N   0  0  0  0  0  0  0  0  0  0  0  0
    0.6386    1.7306    1.2032 C   0  0  0  0  0  0  0  0  0  0  0  0
   -0.1259    1.3313    2.7458 S   0  0  0  0  0  0  0  0  0  0  0  0
    0.7045    0.8157    0.1086 C   0  0  0  0  0  0  0  0  0  0  0  0
    1.2421    1.2496   -1.1314 C   0  0  0  0  0  0  0  0  0  0  0  0
    1.2702    0.3806   -2.2811 C   0  0  0  0  0  0  0  0  0  0  0  0
    1.8015    0.9837   -3.3460 N   0  0  0  0  0  0  0  0  0  0  0  0
    2.2251    2.4778   -2.9371 S   0  0  0  0  0  0  0  0  0  0  0  0
    1.7552    2.4451   -1.4082 N   0  0  0  0  0  0  0  0  0  0  0  0
    0.7579   -0.9349   -2.2452 C   0  0  0  0  0  0  0  0  0  0  0  0
    0.3150   -1.3839   -0.9925 C   0  0  0  0  0  0  0  0  0  0  0  0
   -0.1072   -2.6960   -0.6463 C   0  0  0  0  0  0  0  0  0  0  0  0
   -0.4797   -2.8143    0.6540 C   0  0  0  0  0  0  0  0  0  0  0  0
   -0.9574   -4.0053    1.3660 C   0  0  0  0  0  0  0  0  0  0  0  0
   -1.2435   -4.0241    2.5375 O   0  0  0  0  0  0  0  0  0  0  0  0
   -1.0376   -5.0640    0.5539 O   0  0  0  0  0  0  0  0  0  0  0  0
   -1.4916   -6.2803    1.1539 C   0  0  0  0  0  0  0  0  0  0  0  0
   -1.4061   -7.3836    0.1171 C   0  0  0  0  0  0  0  0  0  0  0  0
   -0.3410   -1.3262    1.5459 S   0  0  0  0  0  0  0  0  0  0  0  0
    0.2778   -0.5115    0.1389 C   0  0  0  0  0  0  0  0  0  0  0  0
    0.6894   -1.7006   -3.4553 C   0  0  0  0  0  0  0  0  0  0  0  0
   -0.1901   -2.7039   -3.8150 C   0  0  0  0  0  0  0  0  0  0  0  0
   -0.0465   -3.1984   -5.0457 N   0  0  0  0  0  0  0  0  0  0  0  0
    0.9225   -2.6273   -5.6970 C   0  0  0  0  0  0  0  0  0  0  0  0
    1.7419   -1.3617   -4.7966 S   0  0  0  0  0  0  0  0  0  0  0  0
    1.2979   -2.9536   -7.0288 C   0  0  0  0  0  0  0  0  0  0  0  0
    2.2861   -2.3924   -7.8062 C   0  0  0  0  0  0  0  0  0  0  0  0
    2.4076   -2.9051   -9.0413 N   0  0  0  0  0  0  0  0  0  0  0  0
    1.5530   -3.8420   -9.2536 C   0  0  0  0  0  0  0  0  0  0  0  0
    0.4900   -4.1973   -7.9307 S   0  0  0  0  0  0  0  0  0  0  0  0
   -3.3108    2.8767   10.9602 H   0  0  0  0  0  0  0  0  0  0  0  0
   -2.2388    5.3053   10.8248 H   0  0  0  0  0  0  0  0  0  0  0  0
   -0.0895    5.7922    6.7062 H   0  0  0  0  0  0  0  0  0  0  0  0
    1.2566    4.6317    2.3769 H   0  0  0  0  0  0  0  0  0  0  0  0
   -0.0935   -3.5325   -1.3185 H   0  0  0  0  0  0  0  0  0  0  0  0
   -0.8656   -6.4977    2.0265 H   0  0  0  0  0  0  0  0  0  0  0  0
   -2.5206   -6.1370    1.5026 H   0  0  0  0  0  0  0  0  0  0  0  0
   -1.7474   -8.3183    0.5518 H   0  0  0  0  0  0  0  0  0  0  0  0
   -0.3800   -7.5021   -0.2205 H   0  0  0  0  0  0  0  0  0  0  0  0
   -2.0282   -7.1417   -0.7402 H   0  0  0  0  0  0  0  0  0  0  0  0
   -0.9995   -3.0687   -3.2102 H   0  0  0  0  0  0  0  0  0  0  0  0
    2.9379   -1.5975   -7.4919 H   0  0  0  0  0  0  0  0  0  0  0  0
    1.4818   -4.3817  -10.1767 H   0  0  0  0  0  0  0  0  0  0  0  0
  1  2  2  0  0  0  0
  2  3  1  0  0  0  0
  3  4  2  0  0  0  0
  4  5  1  0  0  0  0
  4  6  1  0  0  0  0
  6  7  2  0  0  0  0
  7  8  1  0  0  0  0
  8  9  2  0  0  0  0
  9 10  1  0  0  0  0
  9 11  1  0  0  0  0
 11 12  2  0  0  0  0
 12 13  1  0  0  0  0
 13 14  2  0  0  0  0
 14 15  1  0  0  0  0
 14 16  1  0  0  0  0
 16 17  1  0  0  0  0
 17 18  1  0  0  0  0
 18 19  2  0  0  0  0
 19 20  1  0  0  0  0
 20 21  1  0  0  0  0
 18 22  1  0  0  0  0
 22 23  2  0  0  0  0
 23 24  1  0  0  0  0
 24 25  2  0  0  0  0
 25 26  1  0  0  0  0
 26 27  2  0  0  0  0
 26 28  1  0  0  0  0
 28 29  1  0  0  0  0
 29 30  1  0  0  0  0
 25 31  1  0  0  0  0
 31 32  1  0  0  0  0
 22 33  1  0  0  0  0
 33 34  2  0  0  0  0
 34 35  1  0  0  0  0
 35 36  2  0  0  0  0
 36 37  1  0  0  0  0
 36 38  1  0  0  0  0
 38 39  2  0  0  0  0
 39 40  1  0  0  0  0
 40 41  2  0  0  0  0
 41 42  1  0  0  0  0
  5  1  1  0  0  0  0
 10  6  1  0  0  0  0
 15 11  1  0  0  0  0
 32 16  2  0  0  0  0
 37 33  1  0  0  0  0
 42 38  1  0  0  0  0
 21 17  2  0  0  0  0
 32 23  1  0  0  0  0
  1 43  1  0  0  0  0
  2 44  1  0  0  0  0
  7 45  1  0  0  0  0
 12 46  1  0  0  0  0
 24 47  1  0  0  0  0
 29 48  1  0  0  0  0
 29 49  1  0  0  0  0
 30 50  1  0  0  0  0
 30 51  1  0  0  0  0
 30 52  1  0  0  0  0
 34 53  1  0  0  0  0
 39 54  1  0  0  0  0
 41 55  1  0  0  0  0
M  END
