132

C          0.03360        2.28390       11.28700
S         -0.78850        1.40070       10.08100
C          0.03350        2.22090        8.76930
C          0.89980        3.15950        9.30170
S          2.04130        4.29060        8.64560
C          2.56000        4.74900       10.26080
C          3.62260        5.74770       10.40930
O          4.06690        6.14500       11.45550
O          4.02910        6.16290        9.20010
C          5.08820        7.11750        9.17010
C          6.44660        6.44430        9.30670
C          1.86690        4.10390       11.23920
C          0.91170        3.17830       10.73160
F          2.04240        4.28450       12.54700
C         -0.22140        1.86560        7.40210
C          0.18560        2.71620        6.34240
C         -0.02050        2.37160        4.95540
N          0.45990        3.30820        4.13210
S          1.07040        4.50290        4.99920
N          0.78300        3.90020        6.46070
C         -0.62710        1.16300        4.58280
C         -1.05750        0.34190        5.62210
C         -1.75420       -0.89080        5.48600
C         -2.04150       -1.47350        6.67620
C         -2.73100       -2.74360        6.92920
O         -2.95290       -3.19090        8.02720
O         -3.07920       -3.34680        5.78760
C         -3.75230       -4.60040        5.92230
C         -4.08420       -5.11330        4.53410
S         -1.49920       -0.54200        8.04350
C         -0.85800        0.69250        6.99210
C         -0.76300        0.82110        3.17120
C         -1.38620        1.70900        2.27270
C         -1.47100        1.41660        0.86100
N         -2.15150        2.36260        0.20450
S         -2.60500        3.49250        1.24400
N         -2.00220        2.85200        2.58250
C         -0.92220        0.24080        0.31730
C         -0.30720       -0.63100        1.21700
C          0.37960       -1.84040        0.92120
C          0.91440       -2.43720        2.01690
C          1.65820       -3.70000        2.04170
O          1.84550       -4.39440        1.07250
O          2.09920       -3.97010        3.27450
C          2.81680       -5.18980        3.45790
C          1.86830       -6.35650        3.69310
S          0.63500       -1.55640        3.49340
C         -0.24640       -0.33350        2.61270
C         -1.01160       -0.05060       -1.10800
C         -1.50410       -1.29240       -1.56390
C         -1.55850       -1.61070       -2.96900
N         -2.06840       -2.82300       -3.18560
S         -2.45890       -3.48430       -1.77620
N         -1.99850       -2.28410       -0.81660
C         -1.08870       -0.71390       -3.95480
C         -0.71720        0.55900       -3.49640
C         -0.38530        1.69530       -4.27610
C         -0.01880        2.76870       -3.52640
C          0.40700        4.09310       -3.98890
O          0.71640        4.99870       -3.25390
O          0.42220        4.16030       -5.32610
C          0.83200        5.40250       -5.89900
C         -0.31350        6.40380       -5.94180
S         -0.08560        2.47060       -1.81500
C         -0.66730        0.85650       -2.09930
C         -1.03010       -1.13430       -5.31900
S         -2.19200       -2.27450       -5.90760
C         -1.56470       -2.24710       -7.53650
C         -0.47290       -1.39320       -7.58980
S          0.65970       -0.96560       -8.83290
C          1.64240       -0.10850       -7.66540
C          2.88050        0.50810       -8.15050
O          3.24910        0.43220       -9.29800
O          3.52260        1.17060       -7.18510
C          4.74970        1.80330       -7.54510
C          5.90740        0.81550       -7.54750
C          1.10020       -0.11040       -6.41260
C         -0.14000       -0.79870       -6.33670
F          1.70710        0.41570       -5.34490
C         -2.13870       -3.07850       -8.55250
C         -1.83410       -2.88080       -9.92400
C         -2.37800       -3.73000      -10.96090
N         -1.96760       -3.35130      -12.17740
S         -1.01260       -2.07680      -12.03540
N         -1.06330       -1.92460      -10.43590
C         -3.22410       -4.79310      -10.65440
C         -3.53060       -4.99100       -9.32000
C         -4.35830       -6.02020       -8.78580
C         -4.46360       -5.96640       -7.43560
C         -5.21960       -6.86700       -6.55840
O         -5.87660       -7.80550       -6.93510
O         -5.07400       -6.50530       -5.28090
C         -5.74480       -7.29700       -4.30160
C         -5.29180       -6.83250       -2.93020
S         -3.57030       -4.64640       -6.72640
C         -3.00770       -4.14150       -8.29550
H         -0.15940        2.10100       12.32470
H          4.98950        7.61790        8.20470
H          4.94010        7.83670        9.98260
H          7.23230        7.18960        9.22400
H          6.52320        5.95860       10.27640
H          6.57750        5.69920        8.52560
H         -2.04090       -1.31450        4.54180
H         -3.09820       -5.29530        6.46120
H         -4.65680       -4.45310        6.52320
H         -4.59130       -6.07050        4.61140
H         -3.17430       -5.23720        3.95310
H         -4.73090       -4.40800        4.01910
H          0.48840       -2.25240       -0.06410
H          3.43330       -5.37370        2.57180
H          3.45310       -5.01650        4.32800
H          1.22390       -6.15000        4.54430
H          2.44170       -7.25740        3.89080
H          1.25210       -6.51740        2.81170
H         -0.44250        1.73230       -5.34780
H          1.17310        5.14820       -6.90460
H          1.66370        5.80560       -5.31190
H          0.01480        7.31020       -6.44210
H         -0.62590        6.65280       -4.93070
H         -1.15980        5.98540       -6.48160
H          4.63730        2.25660       -8.53590
H          4.89420        2.57950       -6.79100
H          5.98160        0.32360       -6.58070
H          5.75270        0.06370       -8.31760
H          6.83490        1.34280       -7.75140
H         -3.61830       -5.42850      -11.42880
H         -4.84610       -6.76600       -9.38680
H         -6.82630       -7.17310       -4.42910
H         -5.50150       -8.35180       -4.47210
H         -5.53110       -5.78110       -2.79600
H         -4.21720       -6.95800       -2.82960
H         -5.79330       -7.41490       -2.16310
