
  xtb     02282217353D
 energy: -389.586257523215 gnorm: 0.000717400291 xtb: 6.4.1 (unknown)
235262  0     0  0            999 V2000
    5.7720   -0.1600    9.9367 C   0  0  0  0  0  0  0  0  0  0  0  0
    5.4892   -1.4764    9.8886 C   0  0  0  0  0  0  0  0  0  0  0  0
    4.2435   -1.7574    9.2512 C   0  0  0  0  0  0  0  0  0  0  0  0
    3.6766   -3.0145    8.9759 C   0  0  0  0  0  0  0  0  0  0  0  0
    4.2850   -4.2351    9.4674 C   0  0  0  0  0  0  0  0  0  0  0  0
    4.7926   -4.4718   10.7138 C   0  0  0  0  0  0  0  0  0  0  0  0
    5.2963   -5.7782   10.8712 C   0  0  0  0  0  0  0  0  0  0  0  0
    5.1790   -6.5412    9.7505 C   0  0  0  0  0  0  0  0  0  0  0  0
    5.6359   -7.9421    9.5306 C   0  0  0  0  0  0  0  0  0  0  0  0
    6.9093   -7.9840    8.6830 C   0  0  0  0  0  0  0  0  0  0  0  0
    4.4302   -5.6509    8.4660 S   0  0  0  0  0  0  0  0  0  0  0  0
    2.5028   -3.0136    8.2304 C   0  0  0  0  0  0  0  0  0  0  0  0
    1.8484   -1.8295    7.8124 C   0  0  0  0  0  0  0  0  0  0  0  0
    2.4103   -0.5697    8.0945 C   0  0  0  0  0  0  0  0  0  0  0  0
    1.8185    0.6744    7.6443 C   0  0  0  0  0  0  0  0  0  0  0  0
    1.7530    1.8657    8.3126 C   0  0  0  0  0  0  0  0  0  0  0  0
    1.1502    2.8956    7.5650 C   0  0  0  0  0  0  0  0  0  0  0  0
    0.7624    2.5071    6.3192 C   0  0  0  0  0  0  0  0  0  0  0  0
    0.1245    3.3256    5.2485 C   0  0  0  0  0  0  0  0  0  0  0  0
    1.1658    4.1269    4.4641 C   0  0  0  0  0  0  0  0  0  0  0  0
    1.1395    0.8393    6.0474 S   0  0  0  0  0  0  0  0  0  0  0  0
    3.6047   -0.5766    8.8110 C   0  0  0  0  0  0  0  0  0  0  0  0
    4.5481    0.8332    9.2244 S   0  0  0  0  0  0  0  0  0  0  0  0
    0.6363   -2.1157    7.1343 C   0  0  0  0  0  0  0  0  0  0  0  0
    0.3894   -3.4476    6.9905 C   0  0  0  0  0  0  0  0  0  0  0  0
    1.6315   -4.4352    7.7210 S   0  0  0  0  0  0  0  0  0  0  0  0
   -0.6975   -4.0215    6.2541 C   0  0  0  0  0  0  0  0  0  0  0  0
   -1.9280   -3.4746    6.0522 C   0  0  0  0  0  0  0  0  0  0  0  0
   -2.7175   -4.1802    5.1083 C   0  0  0  0  0  0  0  0  0  0  0  0
   -3.9681   -3.7974    4.5817 C   0  0  0  0  0  0  0  0  0  0  0  0
   -4.7215   -2.7201    5.1871 C   0  0  0  0  0  0  0  0  0  0  0  0
   -4.8788   -2.4675    6.5221 C   0  0  0  0  0  0  0  0  0  0  0  0
   -5.6701   -1.3330    6.7864 C   0  0  0  0  0  0  0  0  0  0  0  0
   -6.1173   -0.7127    5.6603 C   0  0  0  0  0  0  0  0  0  0  0  0
   -6.9300    0.5309    5.5459 C   0  0  0  0  0  0  0  0  0  0  0  0
   -6.0658    1.7195    5.1186 C   0  0  0  0  0  0  0  0  0  0  0  0
   -5.5700   -1.5342    4.2360 S   0  0  0  0  0  0  0  0  0  0  0  0
   -4.3850   -4.4731    3.4412 C   0  0  0  0  0  0  0  0  0  0  0  0
   -3.6642   -5.5507    2.8672 C   0  0  0  0  0  0  0  0  0  0  0  0
   -2.4694   -6.0033    3.4611 C   0  0  0  0  0  0  0  0  0  0  0  0
   -1.6576   -7.0651    2.9004 C   0  0  0  0  0  0  0  0  0  0  0  0
   -0.9492   -8.0218    3.5703 C   0  0  0  0  0  0  0  0  0  0  0  0
   -0.1958   -8.8592    2.7224 C   0  0  0  0  0  0  0  0  0  0  0  0
   -0.3022   -8.5370    1.4054 C   0  0  0  0  0  0  0  0  0  0  0  0
    0.3367   -9.1851    0.2253 C   0  0  0  0  0  0  0  0  0  0  0  0
   -0.7032   -9.7454   -0.7460 C   0  0  0  0  0  0  0  0  0  0  0  0
   -1.3641   -7.1851    1.1861 S   0  0  0  0  0  0  0  0  0  0  0  0
   -2.0249   -5.2895    4.5700 C   0  0  0  0  0  0  0  0  0  0  0  0
   -0.4730   -5.4982    5.3393 S   0  0  0  0  0  0  0  0  0  0  0  0
   -4.2371   -5.9714    1.6439 C   0  0  0  0  0  0  0  0  0  0  0  0
   -5.3079   -5.2207    1.2497 C   0  0  0  0  0  0  0  0  0  0  0  0
   -5.7650   -4.0464    2.4655 S   0  0  0  0  0  0  0  0  0  0  0  0
   -5.8107   -5.0998   -0.0820 C   0  0  0  0  0  0  0  0  0  0  0  0
   -5.1839   -5.5657   -1.2043 C   0  0  0  0  0  0  0  0  0  0  0  0
   -5.5792   -4.9036   -2.3898 C   0  0  0  0  0  0  0  0  0  0  0  0
   -4.9272   -4.9264   -3.6383 C   0  0  0  0  0  0  0  0  0  0  0  0
   -3.8150   -5.8183   -3.9153 C   0  0  0  0  0  0  0  0  0  0  0  0
   -2.7160   -6.0959   -3.1542 C   0  0  0  0  0  0  0  0  0  0  0  0
   -1.8252   -6.9974   -3.7725 C   0  0  0  0  0  0  0  0  0  0  0  0
   -2.2413   -7.4156   -4.9983 C   0  0  0  0  0  0  0  0  0  0  0  0
   -1.5507   -8.3263   -5.9539 C   0  0  0  0  0  0  0  0  0  0  0  0
   -0.9542   -7.5426   -7.1252 C   0  0  0  0  0  0  0  0  0  0  0  0
   -3.7535   -6.6840   -5.4242 S   0  0  0  0  0  0  0  0  0  0  0  0
   -5.3139   -3.9562   -4.5530 C   0  0  0  0  0  0  0  0  0  0  0  0
   -6.3641   -3.0364   -4.3155 C   0  0  0  0  0  0  0  0  0  0  0  0
   -7.0738   -3.0678   -3.0985 C   0  0  0  0  0  0  0  0  0  0  0  0
   -8.1174   -2.1074   -2.7885 C   0  0  0  0  0  0  0  0  0  0  0  0
   -8.1185   -0.7521   -2.9521 C   0  0  0  0  0  0  0  0  0  0  0  0
   -9.3080   -0.1397   -2.5090 C   0  0  0  0  0  0  0  0  0  0  0  0
  -10.2196   -1.0197   -2.0137 C   0  0  0  0  0  0  0  0  0  0  0  0
  -11.5580   -0.7388   -1.4226 C   0  0  0  0  0  0  0  0  0  0  0  0
  -11.5230   -0.8731    0.1013 C   0  0  0  0  0  0  0  0  0  0  0  0
   -9.6120   -2.6415   -2.0721 S   0  0  0  0  0  0  0  0  0  0  0  0
   -6.6266   -3.9793   -2.1521 C   0  0  0  0  0  0  0  0  0  0  0  0
   -7.0809   -3.9585   -0.4669 S   0  0  0  0  0  0  0  0  0  0  0  0
   -6.4146   -2.0286   -5.3065 C   0  0  0  0  0  0  0  0  0  0  0  0
   -5.3700   -2.0746   -6.1900 C   0  0  0  0  0  0  0  0  0  0  0  0
   -4.4239   -3.5427   -5.9960 S   0  0  0  0  0  0  0  0  0  0  0  0
   -4.7977   -0.9955   -6.9395 C   0  0  0  0  0  0  0  0  0  0  0  0
   -3.6215   -1.2068   -7.7031 C   0  0  0  0  0  0  0  0  0  0  0  0
   -2.6779   -0.1471   -7.9707 C   0  0  0  0  0  0  0  0  0  0  0  0
   -1.6008   -0.5941   -8.6114 N   0  0  0  0  0  0  0  0  0  0  0  0
   -1.7594   -2.1717   -8.8690 S   0  0  0  0  0  0  0  0  0  0  0  0
   -3.1891   -2.3779   -8.1606 N   0  0  0  0  0  0  0  0  0  0  0  0
   -2.8859    1.1504   -7.4537 C   0  0  0  0  0  0  0  0  0  0  0  0
   -4.1876    1.4091   -6.9880 C   0  0  0  0  0  0  0  0  0  0  0  0
   -4.7128    2.6713   -6.6062 C   0  0  0  0  0  0  0  0  0  0  0  0
   -5.9539    2.5943   -6.0580 C   0  0  0  0  0  0  0  0  0  0  0  0
   -6.7677    3.6856   -5.5261 C   0  0  0  0  0  0  0  0  0  0  0  0
   -6.4648    4.8536   -5.5672 O   0  0  0  0  0  0  0  0  0  0  0  0
   -7.8850    3.2003   -4.9703 O   0  0  0  0  0  0  0  0  0  0  0  0
   -8.8181    4.1191   -4.4067 C   0  0  0  0  0  0  0  0  0  0  0  0
  -10.2192    3.7550   -4.8687 C   0  0  0  0  0  0  0  0  0  0  0  0
   -6.5496    0.9616   -5.9713 S   0  0  0  0  0  0  0  0  0  0  0  0
   -5.1067    0.3516   -6.7304 C   0  0  0  0  0  0  0  0  0  0  0  0
   -1.7767    1.9950   -7.1271 C   0  0  0  0  0  0  0  0  0  0  0  0
   -1.7073    2.7784   -6.0044 C   0  0  0  0  0  0  0  0  0  0  0  0
   -0.4050    3.2235   -5.6983 C   0  0  0  0  0  0  0  0  0  0  0  0
   -0.0035    3.9124   -4.5334 C   0  0  0  0  0  0  0  0  0  0  0  0
   -0.9868    4.4601   -3.6273 C   0  0  0  0  0  0  0  0  0  0  0  0
   -2.1682    5.0739   -3.9464 C   0  0  0  0  0  0  0  0  0  0  0  0
   -2.9044    5.4890   -2.8208 C   0  0  0  0  0  0  0  0  0  0  0  0
   -2.2992    5.1893   -1.6385 C   0  0  0  0  0  0  0  0  0  0  0  0
   -2.7704    5.4704   -0.2530 C   0  0  0  0  0  0  0  0  0  0  0  0
   -1.8082    6.3960    0.4923 C   0  0  0  0  0  0  0  0  0  0  0  0
   -0.7809    4.3943   -1.8993 S   0  0  0  0  0  0  0  0  0  0  0  0
    1.3660    3.9759   -4.3106 C   0  0  0  0  0  0  0  0  0  0  0  0
    2.3236    3.5242   -5.2516 C   0  0  0  0  0  0  0  0  0  0  0  0
    1.9144    2.9725   -6.4866 C   0  0  0  0  0  0  0  0  0  0  0  0
    2.8899    2.6324   -7.4982 C   0  0  0  0  0  0  0  0  0  0  0  0
    4.0270    3.3248   -7.8186 C   0  0  0  0  0  0  0  0  0  0  0  0
    4.7646    2.7353   -8.8623 C   0  0  0  0  0  0  0  0  0  0  0  0
    4.1986    1.5952   -9.3458 C   0  0  0  0  0  0  0  0  0  0  0  0
    4.7087    0.6875  -10.4114 C   0  0  0  0  0  0  0  0  0  0  0  0
    5.2923   -0.5953   -9.8151 C   0  0  0  0  0  0  0  0  0  0  0  0
    2.7239    1.2274   -8.5123 S   0  0  0  0  0  0  0  0  0  0  0  0
    0.5471    2.7634   -6.6411 C   0  0  0  0  0  0  0  0  0  0  0  0
   -0.2219    1.8380   -7.9085 S   0  0  0  0  0  0  0  0  0  0  0  0
    3.6400    3.6044   -4.7359 C   0  0  0  0  0  0  0  0  0  0  0  0
    3.7022    4.0964   -3.4638 C   0  0  0  0  0  0  0  0  0  0  0  0
    2.1286    4.5494   -2.8536 S   0  0  0  0  0  0  0  0  0  0  0  0
    4.8542    4.1924   -2.6257 C   0  0  0  0  0  0  0  0  0  0  0  0
    6.1595    4.0526   -2.9919 C   0  0  0  0  0  0  0  0  0  0  0  0
    7.0693    4.1377   -1.9084 C   0  0  0  0  0  0  0  0  0  0  0  0
    8.4695    3.9923   -1.9405 C   0  0  0  0  0  0  0  0  0  0  0  0
    9.2025    3.8021   -3.1756 C   0  0  0  0  0  0  0  0  0  0  0  0
   10.2721    2.9827   -3.4047 C   0  0  0  0  0  0  0  0  0  0  0  0
   10.7519    3.0430   -4.7282 C   0  0  0  0  0  0  0  0  0  0  0  0
   10.0695    3.9188   -5.5146 C   0  0  0  0  0  0  0  0  0  0  0  0
   10.2547    4.2164   -6.9627 C   0  0  0  0  0  0  0  0  0  0  0  0
    9.0832    3.6859   -7.7923 C   0  0  0  0  0  0  0  0  0  0  0  0
    8.8009    4.6900   -4.6212 S   0  0  0  0  0  0  0  0  0  0  0  0
    9.1200    4.0353   -0.7099 C   0  0  0  0  0  0  0  0  0  0  0  0
    8.4491    4.2012    0.5240 C   0  0  0  0  0  0  0  0  0  0  0  0
    7.0496    4.3375    0.5572 C   0  0  0  0  0  0  0  0  0  0  0  0
    6.2952    4.4466    1.7907 C   0  0  0  0  0  0  0  0  0  0  0  0
    5.1940    5.2157    2.0402 C   0  0  0  0  0  0  0  0  0  0  0  0
    4.6516    5.0172    3.3254 C   0  0  0  0  0  0  0  0  0  0  0  0
    5.3194    4.0889    4.0627 C   0  0  0  0  0  0  0  0  0  0  0  0
    5.0259    3.6093    5.4430 C   0  0  0  0  0  0  0  0  0  0  0  0
    4.6569    2.1261    5.4685 C   0  0  0  0  0  0  0  0  0  0  0  0
    6.6607    3.4457    3.1715 S   0  0  0  0  0  0  0  0  0  0  0  0
    6.4003    4.3239   -0.6743 C   0  0  0  0  0  0  0  0  0  0  0  0
    4.6770    4.4452   -0.9037 S   0  0  0  0  0  0  0  0  0  0  0  0
    9.3663    4.2585    1.6151 C   0  0  0  0  0  0  0  0  0  0  0  0
   10.6522    4.1388    1.2305 C   0  0  0  0  0  0  0  0  0  0  0  0
   10.8462    3.9405   -0.4764 S   0  0  0  0  0  0  0  0  0  0  0  0
    6.6385    0.3153   10.3532 H   0  0  0  0  0  0  0  0  0  0  0  0
    6.1457   -2.2399   10.2630 H   0  0  0  0  0  0  0  0  0  0  0  0
    4.7675   -3.7447   11.5062 H   0  0  0  0  0  0  0  0  0  0  0  0
    5.7247   -6.1408   11.7891 H   0  0  0  0  0  0  0  0  0  0  0  0
    5.8245   -8.4068   10.5008 H   0  0  0  0  0  0  0  0  0  0  0  0
    4.8508   -8.5090    9.0247 H   0  0  0  0  0  0  0  0  0  0  0  0
    7.2321   -9.0118    8.5372 H   0  0  0  0  0  0  0  0  0  0  0  0
    6.7273   -7.5338    7.7099 H   0  0  0  0  0  0  0  0  0  0  0  0
    7.7090   -7.4340    9.1742 H   0  0  0  0  0  0  0  0  0  0  0  0
    2.0916    1.9925    9.3250 H   0  0  0  0  0  0  0  0  0  0  0  0
    1.0012    3.8912    7.9448 H   0  0  0  0  0  0  0  0  0  0  0  0
   -0.4185    2.6714    4.5638 H   0  0  0  0  0  0  0  0  0  0  0  0
   -0.5906    4.0149    5.7051 H   0  0  0  0  0  0  0  0  0  0  0  0
    1.8810    3.4608    3.9876 H   0  0  0  0  0  0  0  0  0  0  0  0
    0.6814    4.7211    3.6931 H   0  0  0  0  0  0  0  0  0  0  0  0
    1.7053    4.7938    5.1327 H   0  0  0  0  0  0  0  0  0  0  0  0
   -0.0210   -1.3639    6.7395 H   0  0  0  0  0  0  0  0  0  0  0  0
   -2.2470   -2.5649    6.5265 H   0  0  0  0  0  0  0  0  0  0  0  0
   -4.4701   -3.0996    7.2905 H   0  0  0  0  0  0  0  0  0  0  0  0
   -5.9041   -0.9931    7.7800 H   0  0  0  0  0  0  0  0  0  0  0  0
   -7.3914    0.7407    6.5133 H   0  0  0  0  0  0  0  0  0  0  0  0
   -7.7244    0.3838    4.8104 H   0  0  0  0  0  0  0  0  0  0  0  0
   -5.2731    1.8908    5.8435 H   0  0  0  0  0  0  0  0  0  0  0  0
   -5.6118    1.5236    4.1499 H   0  0  0  0  0  0  0  0  0  0  0  0
   -6.6712    2.6195    5.0448 H   0  0  0  0  0  0  0  0  0  0  0  0
   -0.9909   -8.1443    4.6378 H   0  0  0  0  0  0  0  0  0  0  0  0
    0.4096   -9.6720    3.0830 H   0  0  0  0  0  0  0  0  0  0  0  0
    0.9868   -9.9882    0.5786 H   0  0  0  0  0  0  0  0  0  0  0  0
    0.9576   -8.4533   -0.3002 H   0  0  0  0  0  0  0  0  0  0  0  0
   -1.3423   -8.9474   -1.1181 H   0  0  0  0  0  0  0  0  0  0  0  0
   -0.2132  -10.2210   -1.5921 H   0  0  0  0  0  0  0  0  0  0  0  0
   -1.3283  -10.4830   -0.2476 H   0  0  0  0  0  0  0  0  0  0  0  0
   -3.8418   -6.7692    1.0452 H   0  0  0  0  0  0  0  0  0  0  0  0
   -4.3985   -6.2962   -1.1737 H   0  0  0  0  0  0  0  0  0  0  0  0
   -2.5214   -5.6346   -2.2022 H   0  0  0  0  0  0  0  0  0  0  0  0
   -0.9043   -7.3210   -3.3197 H   0  0  0  0  0  0  0  0  0  0  0  0
   -2.2600   -9.0622   -6.3401 H   0  0  0  0  0  0  0  0  0  0  0  0
   -0.7580   -8.8590   -5.4239 H   0  0  0  0  0  0  0  0  0  0  0  0
   -1.7388   -7.0109   -7.6586 H   0  0  0  0  0  0  0  0  0  0  0  0
   -0.4558   -8.2173   -7.8169 H   0  0  0  0  0  0  0  0  0  0  0  0
   -0.2304   -6.8158   -6.7634 H   0  0  0  0  0  0  0  0  0  0  0  0
   -7.2799   -0.2003   -3.3364 H   0  0  0  0  0  0  0  0  0  0  0  0
   -9.4768    0.9217   -2.5597 H   0  0  0  0  0  0  0  0  0  0  0  0
  -12.2943   -1.4377   -1.8267 H   0  0  0  0  0  0  0  0  0  0  0  0
  -11.8601    0.2744   -1.6970 H   0  0  0  0  0  0  0  0  0  0  0  0
  -10.8050   -0.1748    0.5254 H   0  0  0  0  0  0  0  0  0  0  0  0
  -11.2282   -1.8816    0.3819 H   0  0  0  0  0  0  0  0  0  0  0  0
  -12.5035   -0.6653    0.5224 H   0  0  0  0  0  0  0  0  0  0  0  0
   -7.1782   -1.2763   -5.3228 H   0  0  0  0  0  0  0  0  0  0  0  0
   -4.2087    3.6061   -6.7701 H   0  0  0  0  0  0  0  0  0  0  0  0
   -8.7363    4.0438   -3.3165 H   0  0  0  0  0  0  0  0  0  0  0  0
   -8.5435    5.1334   -4.7153 H   0  0  0  0  0  0  0  0  0  0  0  0
  -10.4425    2.7245   -4.6036 H   0  0  0  0  0  0  0  0  0  0  0  0
  -10.9427    4.4116   -4.3939 H   0  0  0  0  0  0  0  0  0  0  0  0
  -10.3002    3.8594   -5.9476 H   0  0  0  0  0  0  0  0  0  0  0  0
   -2.5384    2.9225   -5.3392 H   0  0  0  0  0  0  0  0  0  0  0  0
   -2.4804    5.2640   -4.9575 H   0  0  0  0  0  0  0  0  0  0  0  0
   -3.8536    5.9899   -2.8924 H   0  0  0  0  0  0  0  0  0  0  0  0
   -2.8604    4.5308    0.2998 H   0  0  0  0  0  0  0  0  0  0  0  0
   -3.7603    5.9284   -0.3076 H   0  0  0  0  0  0  0  0  0  0  0  0
   -0.8232    5.9391    0.5576 H   0  0  0  0  0  0  0  0  0  0  0  0
   -1.7139    7.3445   -0.0314 H   0  0  0  0  0  0  0  0  0  0  0  0
   -2.1724    6.5884    1.4986 H   0  0  0  0  0  0  0  0  0  0  0  0
    4.3005    4.2534   -7.3500 H   0  0  0  0  0  0  0  0  0  0  0  0
    5.6812    3.1481   -9.2463 H   0  0  0  0  0  0  0  0  0  0  0  0
    5.4788    1.2116  -10.9816 H   0  0  0  0  0  0  0  0  0  0  0  0
    3.8945    0.4268  -11.0916 H   0  0  0  0  0  0  0  0  0  0  0  0
    5.6639   -1.2439  -10.6044 H   0  0  0  0  0  0  0  0  0  0  0  0
    4.5284   -1.1293   -9.2549 H   0  0  0  0  0  0  0  0  0  0  0  0
    6.1134   -0.3597   -9.1418 H   0  0  0  0  0  0  0  0  0  0  0  0
    4.5016    3.2380   -5.2620 H   0  0  0  0  0  0  0  0  0  0  0  0
    6.4580    3.8812   -4.0084 H   0  0  0  0  0  0  0  0  0  0  0  0
   10.6806    2.3254   -2.6587 H   0  0  0  0  0  0  0  0  0  0  0  0
   11.5785    2.4534   -5.0835 H   0  0  0  0  0  0  0  0  0  0  0  0
   10.3360    5.2965   -7.1106 H   0  0  0  0  0  0  0  0  0  0  0  0
   11.1852    3.7544   -7.2992 H   0  0  0  0  0  0  0  0  0  0  0  0
    9.2393    3.9010   -8.8466 H   0  0  0  0  0  0  0  0  0  0  0  0
    8.1549    4.1553   -7.4740 H   0  0  0  0  0  0  0  0  0  0  0  0
    8.9867    2.6095   -7.6664 H   0  0  0  0  0  0  0  0  0  0  0  0
    4.8004    5.9287    1.3385 H   0  0  0  0  0  0  0  0  0  0  0  0
    3.7905    5.5497    3.6879 H   0  0  0  0  0  0  0  0  0  0  0  0
    5.9004    3.7665    6.0806 H   0  0  0  0  0  0  0  0  0  0  0  0
    4.2013    4.1992    5.8486 H   0  0  0  0  0  0  0  0  0  0  0  0
    3.7883    1.9374    4.8418 H   0  0  0  0  0  0  0  0  0  0  0  0
    5.4841    1.5233    5.1003 H   0  0  0  0  0  0  0  0  0  0  0  0
    4.4250    1.8172    6.4849 H   0  0  0  0  0  0  0  0  0  0  0  0
    9.0667    4.3988    2.6370 H   0  0  0  0  0  0  0  0  0  0  0  0
   11.5295    4.1520    1.8471 H   0  0  0  0  0  0  0  0  0  0  0  0
  1  2  2  0  0  0  0
  2  3  1  0  0  0  0
  3  4  2  0  0  0  0
  4  5  1  0  0  0  0
  5  6  2  0  0  0  0
  6  7  1  0  0  0  0
  7  8  2  0  0  0  0
  8  9  1  0  0  0  0
  9 10  1  0  0  0  0
  8 11  1  0  0  0  0
  4 12  1  0  0  0  0
 12 13  2  0  0  0  0
 13 14  1  0  0  0  0
 14 15  1  0  0  0  0
 15 16  2  0  0  0  0
 16 17  1  0  0  0  0
 17 18  2  0  0  0  0
 18 19  1  0  0  0  0
 19 20  1  0  0  0  0
 18 21  1  0  0  0  0
 14 22  2  0  0  0  0
 22 23  1  0  0  0  0
 13 24  1  0  0  0  0
 24 25  2  0  0  0  0
 25 26  1  0  0  0  0
 25 27  1  0  0  0  0
 27 28  2  0  0  0  0
 28 29  1  0  0  0  0
 29 30  2  0  0  0  0
 30 31  1  0  0  0  0
 31 32  2  0  0  0  0
 32 33  1  0  0  0  0
 33 34  2  0  0  0  0
 34 35  1  0  0  0  0
 35 36  1  0  0  0  0
 34 37  1  0  0  0  0
 30 38  1  0  0  0  0
 38 39  2  0  0  0  0
 39 40  1  0  0  0  0
 40 41  1  0  0  0  0
 41 42  2  0  0  0  0
 42 43  1  0  0  0  0
 43 44  2  0  0  0  0
 44 45  1  0  0  0  0
 45 46  1  0  0  0  0
 44 47  1  0  0  0  0
 40 48  2  0  0  0  0
 48 49  1  0  0  0  0
 39 50  1  0  0  0  0
 50 51  2  0  0  0  0
 51 52  1  0  0  0  0
 51 53  1  0  0  0  0
 53 54  2  0  0  0  0
 54 55  1  0  0  0  0
 55 56  2  0  0  0  0
 56 57  1  0  0  0  0
 57 58  2  0  0  0  0
 58 59  1  0  0  0  0
 59 60  2  0  0  0  0
 60 61  1  0  0  0  0
 61 62  1  0  0  0  0
 60 63  1  0  0  0  0
 56 64  1  0  0  0  0
 64 65  2  0  0  0  0
 65 66  1  0  0  0  0
 66 67  1  0  0  0  0
 67 68  2  0  0  0  0
 68 69  1  0  0  0  0
 69 70  2  0  0  0  0
 70 71  1  0  0  0  0
 71 72  1  0  0  0  0
 70 73  1  0  0  0  0
 66 74  2  0  0  0  0
 74 75  1  0  0  0  0
 65 76  1  0  0  0  0
 76 77  2  0  0  0  0
 77 78  1  0  0  0  0
 77 79  1  0  0  0  0
 79 80  1  0  0  0  0
 80 81  1  0  0  0  0
 81 82  2  0  0  0  0
 82 83  1  0  0  0  0
 83 84  1  0  0  0  0
 81 85  1  0  0  0  0
 85 86  2  0  0  0  0
 86 87  1  0  0  0  0
 87 88  2  0  0  0  0
 88 89  1  0  0  0  0
 89 90  2  0  0  0  0
 89 91  1  0  0  0  0
 91 92  1  0  0  0  0
 92 93  1  0  0  0  0
 88 94  1  0  0  0  0
 94 95  1  0  0  0  0
 85 96  1  0  0  0  0
 96 97  2  0  0  0  0
 97 98  1  0  0  0  0
 98 99  2  0  0  0  0
 99100  1  0  0  0  0
100101  2  0  0  0  0
101102  1  0  0  0  0
102103  2  0  0  0  0
103104  1  0  0  0  0
104105  1  0  0  0  0
103106  1  0  0  0  0
 99107  1  0  0  0  0
107108  2  0  0  0  0
108109  1  0  0  0  0
109110  1  0  0  0  0
110111  2  0  0  0  0
111112  1  0  0  0  0
112113  2  0  0  0  0
113114  1  0  0  0  0
114115  1  0  0  0  0
113116  1  0  0  0  0
109117  2  0  0  0  0
117118  1  0  0  0  0
108119  1  0  0  0  0
119120  2  0  0  0  0
120121  1  0  0  0  0
120122  1  0  0  0  0
122123  2  0  0  0  0
123124  1  0  0  0  0
124125  2  0  0  0  0
125126  1  0  0  0  0
126127  2  0  0  0  0
127128  1  0  0  0  0
128129  2  0  0  0  0
129130  1  0  0  0  0
130131  1  0  0  0  0
129132  1  0  0  0  0
125133  1  0  0  0  0
133134  2  0  0  0  0
134135  1  0  0  0  0
135136  1  0  0  0  0
136137  2  0  0  0  0
137138  1  0  0  0  0
138139  2  0  0  0  0
139140  1  0  0  0  0
140141  1  0  0  0  0
139142  1  0  0  0  0
135143  2  0  0  0  0
143144  1  0  0  0  0
134145  1  0  0  0  0
145146  2  0  0  0  0
146147  1  0  0  0  0
 23  1  1  0  0  0  0
 49 27  1  0  0  0  0
 75 53  1  0  0  0  0
 95 79  2  0  0  0  0
118 96  1  0  0  0  0
144122  1  0  0  0  0
 22  3  1  0  0  0  0
 48 29  1  0  0  0  0
 74 55  1  0  0  0  0
 84 80  2  0  0  0  0
 95 86  1  0  0  0  0
117 98  1  0  0  0  0
143124  1  0  0  0  0
 11  5  1  0  0  0  0
 26 12  1  0  0  0  0
 37 31  1  0  0  0  0
 52 38  1  0  0  0  0
 63 57  1  0  0  0  0
 78 64  1  0  0  0  0
106100  1  0  0  0  0
121107  1  0  0  0  0
132126  1  0  0  0  0
147133  1  0  0  0  0
 21 15  1  0  0  0  0
 47 41  1  0  0  0  0
 73 67  1  0  0  0  0
116110  1  0  0  0  0
142136  1  0  0  0  0
  1148  1  0  0  0  0
  2149  1  0  0  0  0
  6150  1  0  0  0  0
  7151  1  0  0  0  0
  9152  1  0  0  0  0
  9153  1  0  0  0  0
 10154  1  0  0  0  0
 10155  1  0  0  0  0
 10156  1  0  0  0  0
 16157  1  0  0  0  0
 17158  1  0  0  0  0
 19159  1  0  0  0  0
 19160  1  0  0  0  0
 20161  1  0  0  0  0
 20162  1  0  0  0  0
 20163  1  0  0  0  0
 24164  1  0  0  0  0
 28165  1  0  0  0  0
 32166  1  0  0  0  0
 33167  1  0  0  0  0
 35168  1  0  0  0  0
 35169  1  0  0  0  0
 36170  1  0  0  0  0
 36171  1  0  0  0  0
 36172  1  0  0  0  0
 42173  1  0  0  0  0
 43174  1  0  0  0  0
 45175  1  0  0  0  0
 45176  1  0  0  0  0
 46177  1  0  0  0  0
 46178  1  0  0  0  0
 46179  1  0  0  0  0
 50180  1  0  0  0  0
 54181  1  0  0  0  0
 58182  1  0  0  0  0
 59183  1  0  0  0  0
 61184  1  0  0  0  0
 61185  1  0  0  0  0
 62186  1  0  0  0  0
 62187  1  0  0  0  0
 62188  1  0  0  0  0
 68189  1  0  0  0  0
 69190  1  0  0  0  0
 71191  1  0  0  0  0
 71192  1  0  0  0  0
 72193  1  0  0  0  0
 72194  1  0  0  0  0
 72195  1  0  0  0  0
 76196  1  0  0  0  0
 87197  1  0  0  0  0
 92198  1  0  0  0  0
 92199  1  0  0  0  0
 93200  1  0  0  0  0
 93201  1  0  0  0  0
 93202  1  0  0  0  0
 97203  1  0  0  0  0
101204  1  0  0  0  0
102205  1  0  0  0  0
104206  1  0  0  0  0
104207  1  0  0  0  0
105208  1  0  0  0  0
105209  1  0  0  0  0
105210  1  0  0  0  0
111211  1  0  0  0  0
112212  1  0  0  0  0
114213  1  0  0  0  0
114214  1  0  0  0  0
115215  1  0  0  0  0
115216  1  0  0  0  0
115217  1  0  0  0  0
119218  1  0  0  0  0
123219  1  0  0  0  0
127220  1  0  0  0  0
128221  1  0  0  0  0
130222  1  0  0  0  0
130223  1  0  0  0  0
131224  1  0  0  0  0
131225  1  0  0  0  0
131226  1  0  0  0  0
137227  1  0  0  0  0
138228  1  0  0  0  0
140229  1  0  0  0  0
140230  1  0  0  0  0
141231  1  0  0  0  0
141232  1  0  0  0  0
141233  1  0  0  0  0
145234  1  0  0  0  0
146235  1  0  0  0  0
M  END
