
  xtb     02282218143D
 energy: -271.932675001832 gnorm: 0.000501590326 xtb: 6.4.1 (unknown)
132147  0     0  0            999 V2000
    0.0336    2.2839   11.2870 C   0  0  0  0  0  0  0  0  0  0  0  0
   -0.7885    1.4007   10.0810 S   0  0  0  0  0  0  0  0  0  0  0  0
    0.0335    2.2209    8.7693 C   0  0  0  0  0  0  0  0  0  0  0  0
    0.8998    3.1595    9.3017 C   0  0  0  0  0  0  0  0  0  0  0  0
    2.0413    4.2906    8.6456 S   0  0  0  0  0  0  0  0  0  0  0  0
    2.5600    4.7490   10.2608 C   0  0  0  0  0  0  0  0  0  0  0  0
    3.6226    5.7477   10.4093 C   0  0  0  0  0  0  0  0  0  0  0  0
    4.0669    6.1450   11.4555 O   0  0  0  0  0  0  0  0  0  0  0  0
    4.0291    6.1629    9.2001 O   0  0  0  0  0  0  0  0  0  0  0  0
    5.0882    7.1175    9.1701 C   0  0  0  0  0  0  0  0  0  0  0  0
    6.4466    6.4443    9.3067 C   0  0  0  0  0  0  0  0  0  0  0  0
    1.8669    4.1039   11.2392 C   0  0  0  0  0  0  0  0  0  0  0  0
    0.9117    3.1783   10.7316 C   0  0  0  0  0  0  0  0  0  0  0  0
    2.0424    4.2845   12.5470 F   0  0  0  0  0  0  0  0  0  0  0  0
   -0.2214    1.8656    7.4021 C   0  0  0  0  0  0  0  0  0  0  0  0
    0.1856    2.7162    6.3424 C   0  0  0  0  0  0  0  0  0  0  0  0
   -0.0205    2.3716    4.9554 C   0  0  0  0  0  0  0  0  0  0  0  0
    0.4599    3.3082    4.1321 N   0  0  0  0  0  0  0  0  0  0  0  0
    1.0704    4.5029    4.9992 S   0  0  0  0  0  0  0  0  0  0  0  0
    0.7830    3.9002    6.4607 N   0  0  0  0  0  0  0  0  0  0  0  0
   -0.6271    1.1630    4.5828 C   0  0  0  0  0  0  0  0  0  0  0  0
   -1.0575    0.3419    5.6221 C   0  0  0  0  0  0  0  0  0  0  0  0
   -1.7542   -0.8908    5.4860 C   0  0  0  0  0  0  0  0  0  0  0  0
   -2.0415   -1.4735    6.6762 C   0  0  0  0  0  0  0  0  0  0  0  0
   -2.7310   -2.7436    6.9292 C   0  0  0  0  0  0  0  0  0  0  0  0
   -2.9529   -3.1909    8.0272 O   0  0  0  0  0  0  0  0  0  0  0  0
   -3.0792   -3.3468    5.7876 O   0  0  0  0  0  0  0  0  0  0  0  0
   -3.7523   -4.6004    5.9223 C   0  0  0  0  0  0  0  0  0  0  0  0
   -4.0842   -5.1133    4.5341 C   0  0  0  0  0  0  0  0  0  0  0  0
   -1.4992   -0.5420    8.0435 S   0  0  0  0  0  0  0  0  0  0  0  0
   -0.8580    0.6925    6.9921 C   0  0  0  0  0  0  0  0  0  0  0  0
   -0.7630    0.8211    3.1712 C   0  0  0  0  0  0  0  0  0  0  0  0
   -1.3862    1.7090    2.2727 C   0  0  0  0  0  0  0  0  0  0  0  0
   -1.4710    1.4166    0.8610 C   0  0  0  0  0  0  0  0  0  0  0  0
   -2.1515    2.3626    0.2045 N   0  0  0  0  0  0  0  0  0  0  0  0
   -2.6050    3.4925    1.2440 S   0  0  0  0  0  0  0  0  0  0  0  0
   -2.0022    2.8520    2.5825 N   0  0  0  0  0  0  0  0  0  0  0  0
   -0.9222    0.2408    0.3173 C   0  0  0  0  0  0  0  0  0  0  0  0
   -0.3072   -0.6310    1.2170 C   0  0  0  0  0  0  0  0  0  0  0  0
    0.3796   -1.8404    0.9212 C   0  0  0  0  0  0  0  0  0  0  0  0
    0.9144   -2.4372    2.0169 C   0  0  0  0  0  0  0  0  0  0  0  0
    1.6582   -3.7000    2.0417 C   0  0  0  0  0  0  0  0  0  0  0  0
    1.8455   -4.3944    1.0725 O   0  0  0  0  0  0  0  0  0  0  0  0
    2.0992   -3.9701    3.2745 O   0  0  0  0  0  0  0  0  0  0  0  0
    2.8168   -5.1898    3.4579 C   0  0  0  0  0  0  0  0  0  0  0  0
    1.8683   -6.3565    3.6931 C   0  0  0  0  0  0  0  0  0  0  0  0
    0.6350   -1.5564    3.4934 S   0  0  0  0  0  0  0  0  0  0  0  0
   -0.2464   -0.3335    2.6127 C   0  0  0  0  0  0  0  0  0  0  0  0
   -1.0116   -0.0506   -1.1080 C   0  0  0  0  0  0  0  0  0  0  0  0
   -1.5041   -1.2924   -1.5639 C   0  0  0  0  0  0  0  0  0  0  0  0
   -1.5585   -1.6107   -2.9690 C   0  0  0  0  0  0  0  0  0  0  0  0
   -2.0684   -2.8230   -3.1856 N   0  0  0  0  0  0  0  0  0  0  0  0
   -2.4589   -3.4843   -1.7762 S   0  0  0  0  0  0  0  0  0  0  0  0
   -1.9985   -2.2841   -0.8166 N   0  0  0  0  0  0  0  0  0  0  0  0
   -1.0887   -0.7139   -3.9548 C   0  0  0  0  0  0  0  0  0  0  0  0
   -0.7172    0.5590   -3.4964 C   0  0  0  0  0  0  0  0  0  0  0  0
   -0.3853    1.6953   -4.2761 C   0  0  0  0  0  0  0  0  0  0  0  0
   -0.0188    2.7687   -3.5264 C   0  0  0  0  0  0  0  0  0  0  0  0
    0.4070    4.0931   -3.9889 C   0  0  0  0  0  0  0  0  0  0  0  0
    0.7164    4.9987   -3.2539 O   0  0  0  0  0  0  0  0  0  0  0  0
    0.4222    4.1603   -5.3261 O   0  0  0  0  0  0  0  0  0  0  0  0
    0.8320    5.4025   -5.8990 C   0  0  0  0  0  0  0  0  0  0  0  0
   -0.3135    6.4038   -5.9418 C   0  0  0  0  0  0  0  0  0  0  0  0
   -0.0856    2.4706   -1.8150 S   0  0  0  0  0  0  0  0  0  0  0  0
   -0.6673    0.8565   -2.0993 C   0  0  0  0  0  0  0  0  0  0  0  0
   -1.0301   -1.1343   -5.3190 C   0  0  0  0  0  0  0  0  0  0  0  0
   -2.1920   -2.2745   -5.9076 S   0  0  0  0  0  0  0  0  0  0  0  0
   -1.5647   -2.2471   -7.5365 C   0  0  0  0  0  0  0  0  0  0  0  0
   -0.4729   -1.3932   -7.5898 C   0  0  0  0  0  0  0  0  0  0  0  0
    0.6597   -0.9656   -8.8329 S   0  0  0  0  0  0  0  0  0  0  0  0
    1.6424   -0.1085   -7.6654 C   0  0  0  0  0  0  0  0  0  0  0  0
    2.8805    0.5081   -8.1505 C   0  0  0  0  0  0  0  0  0  0  0  0
    3.2491    0.4322   -9.2980 O   0  0  0  0  0  0  0  0  0  0  0  0
    3.5226    1.1706   -7.1851 O   0  0  0  0  0  0  0  0  0  0  0  0
    4.7497    1.8033   -7.5451 C   0  0  0  0  0  0  0  0  0  0  0  0
    5.9074    0.8155   -7.5475 C   0  0  0  0  0  0  0  0  0  0  0  0
    1.1002   -0.1104   -6.4126 C   0  0  0  0  0  0  0  0  0  0  0  0
   -0.1400   -0.7987   -6.3367 C   0  0  0  0  0  0  0  0  0  0  0  0
    1.7071    0.4157   -5.3449 F   0  0  0  0  0  0  0  0  0  0  0  0
   -2.1387   -3.0785   -8.5525 C   0  0  0  0  0  0  0  0  0  0  0  0
   -1.8341   -2.8808   -9.9240 C   0  0  0  0  0  0  0  0  0  0  0  0
   -2.3780   -3.7300  -10.9609 C   0  0  0  0  0  0  0  0  0  0  0  0
   -1.9676   -3.3513  -12.1774 N   0  0  0  0  0  0  0  0  0  0  0  0
   -1.0126   -2.0768  -12.0354 S   0  0  0  0  0  0  0  0  0  0  0  0
   -1.0633   -1.9246  -10.4359 N   0  0  0  0  0  0  0  0  0  0  0  0
   -3.2241   -4.7931  -10.6544 C   0  0  0  0  0  0  0  0  0  0  0  0
   -3.5306   -4.9910   -9.3200 C   0  0  0  0  0  0  0  0  0  0  0  0
   -4.3583   -6.0202   -8.7858 C   0  0  0  0  0  0  0  0  0  0  0  0
   -4.4636   -5.9664   -7.4356 C   0  0  0  0  0  0  0  0  0  0  0  0
   -5.2196   -6.8670   -6.5584 C   0  0  0  0  0  0  0  0  0  0  0  0
   -5.8766   -7.8055   -6.9351 O   0  0  0  0  0  0  0  0  0  0  0  0
   -5.0740   -6.5053   -5.2809 O   0  0  0  0  0  0  0  0  0  0  0  0
   -5.7448   -7.2970   -4.3016 C   0  0  0  0  0  0  0  0  0  0  0  0
   -5.2918   -6.8325   -2.9302 C   0  0  0  0  0  0  0  0  0  0  0  0
   -3.5703   -4.6464   -6.7264 S   0  0  0  0  0  0  0  0  0  0  0  0
   -3.0077   -4.1415   -8.2955 C   0  0  0  0  0  0  0  0  0  0  0  0
   -0.1594    2.1010   12.3247 H   0  0  0  0  0  0  0  0  0  0  0  0
    4.9895    7.6179    8.2047 H   0  0  0  0  0  0  0  0  0  0  0  0
    4.9401    7.8367    9.9826 H   0  0  0  0  0  0  0  0  0  0  0  0
    7.2323    7.1896    9.2240 H   0  0  0  0  0  0  0  0  0  0  0  0
    6.5232    5.9586   10.2764 H   0  0  0  0  0  0  0  0  0  0  0  0
    6.5775    5.6992    8.5256 H   0  0  0  0  0  0  0  0  0  0  0  0
   -2.0409   -1.3145    4.5418 H   0  0  0  0  0  0  0  0  0  0  0  0
   -3.0982   -5.2953    6.4612 H   0  0  0  0  0  0  0  0  0  0  0  0
   -4.6568   -4.4531    6.5232 H   0  0  0  0  0  0  0  0  0  0  0  0
   -4.5913   -6.0705    4.6114 H   0  0  0  0  0  0  0  0  0  0  0  0
   -3.1743   -5.2372    3.9531 H   0  0  0  0  0  0  0  0  0  0  0  0
   -4.7309   -4.4080    4.0191 H   0  0  0  0  0  0  0  0  0  0  0  0
    0.4884   -2.2524   -0.0641 H   0  0  0  0  0  0  0  0  0  0  0  0
    3.4333   -5.3737    2.5718 H   0  0  0  0  0  0  0  0  0  0  0  0
    3.4531   -5.0165    4.3280 H   0  0  0  0  0  0  0  0  0  0  0  0
    1.2239   -6.1500    4.5443 H   0  0  0  0  0  0  0  0  0  0  0  0
    2.4417   -7.2574    3.8908 H   0  0  0  0  0  0  0  0  0  0  0  0
    1.2521   -6.5174    2.8117 H   0  0  0  0  0  0  0  0  0  0  0  0
   -0.4425    1.7323   -5.3478 H   0  0  0  0  0  0  0  0  0  0  0  0
    1.1731    5.1482   -6.9046 H   0  0  0  0  0  0  0  0  0  0  0  0
    1.6637    5.8056   -5.3119 H   0  0  0  0  0  0  0  0  0  0  0  0
    0.0148    7.3102   -6.4421 H   0  0  0  0  0  0  0  0  0  0  0  0
   -0.6259    6.6528   -4.9307 H   0  0  0  0  0  0  0  0  0  0  0  0
   -1.1598    5.9854   -6.4816 H   0  0  0  0  0  0  0  0  0  0  0  0
    4.6373    2.2566   -8.5359 H   0  0  0  0  0  0  0  0  0  0  0  0
    4.8942    2.5795   -6.7910 H   0  0  0  0  0  0  0  0  0  0  0  0
    5.9816    0.3236   -6.5807 H   0  0  0  0  0  0  0  0  0  0  0  0
    5.7527    0.0637   -8.3176 H   0  0  0  0  0  0  0  0  0  0  0  0
    6.8349    1.3428   -7.7514 H   0  0  0  0  0  0  0  0  0  0  0  0
   -3.6183   -5.4285  -11.4288 H   0  0  0  0  0  0  0  0  0  0  0  0
   -4.8461   -6.7660   -9.3868 H   0  0  0  0  0  0  0  0  0  0  0  0
   -6.8263   -7.1731   -4.4291 H   0  0  0  0  0  0  0  0  0  0  0  0
   -5.5015   -8.3518   -4.4721 H   0  0  0  0  0  0  0  0  0  0  0  0
   -5.5311   -5.7811   -2.7960 H   0  0  0  0  0  0  0  0  0  0  0  0
   -4.2172   -6.9580   -2.8296 H   0  0  0  0  0  0  0  0  0  0  0  0
   -5.7933   -7.4149   -2.1631 H   0  0  0  0  0  0  0  0  0  0  0  0
  1  2  1  0  0  0  0
  2  3  1  0  0  0  0
  3  4  2  0  0  0  0
  4  5  1  0  0  0  0
  5  6  1  0  0  0  0
  6  7  1  0  0  0  0
  7  8  2  0  0  0  0
  7  9  1  0  0  0  0
  9 10  1  0  0  0  0
 10 11  1  0  0  0  0
  6 12  2  0  0  0  0
 12 13  1  0  0  0  0
 12 14  1  0  0  0  0
  3 15  1  0  0  0  0
 15 16  1  0  0  0  0
 16 17  1  0  0  0  0
 17 18  2  0  0  0  0
 18 19  1  0  0  0  0
 19 20  1  0  0  0  0
 17 21  1  0  0  0  0
 21 22  2  0  0  0  0
 22 23  1  0  0  0  0
 23 24  2  0  0  0  0
 24 25  1  0  0  0  0
 25 26  2  0  0  0  0
 25 27  1  0  0  0  0
 27 28  1  0  0  0  0
 28 29  1  0  0  0  0
 24 30  1  0  0  0  0
 30 31  1  0  0  0  0
 21 32  1  0  0  0  0
 32 33  1  0  0  0  0
 33 34  1  0  0  0  0
 34 35  2  0  0  0  0
 35 36  1  0  0  0  0
 36 37  1  0  0  0  0
 34 38  1  0  0  0  0
 38 39  2  0  0  0  0
 39 40  1  0  0  0  0
 40 41  2  0  0  0  0
 41 42  1  0  0  0  0
 42 43  2  0  0  0  0
 42 44  1  0  0  0  0
 44 45  1  0  0  0  0
 45 46  1  0  0  0  0
 41 47  1  0  0  0  0
 47 48  1  0  0  0  0
 38 49  1  0  0  0  0
 49 50  1  0  0  0  0
 50 51  1  0  0  0  0
 51 52  2  0  0  0  0
 52 53  1  0  0  0  0
 53 54  1  0  0  0  0
 51 55  1  0  0  0  0
 55 56  2  0  0  0  0
 56 57  1  0  0  0  0
 57 58  2  0  0  0  0
 58 59  1  0  0  0  0
 59 60  2  0  0  0  0
 59 61  1  0  0  0  0
 61 62  1  0  0  0  0
 62 63  1  0  0  0  0
 58 64  1  0  0  0  0
 64 65  1  0  0  0  0
 55 66  1  0  0  0  0
 66 67  1  0  0  0  0
 67 68  1  0  0  0  0
 68 69  2  0  0  0  0
 69 70  1  0  0  0  0
 70 71  1  0  0  0  0
 71 72  1  0  0  0  0
 72 73  2  0  0  0  0
 72 74  1  0  0  0  0
 74 75  1  0  0  0  0
 75 76  1  0  0  0  0
 71 77  2  0  0  0  0
 77 78  1  0  0  0  0
 77 79  1  0  0  0  0
 68 80  1  0  0  0  0
 80 81  1  0  0  0  0
 81 82  1  0  0  0  0
 82 83  2  0  0  0  0
 83 84  1  0  0  0  0
 84 85  1  0  0  0  0
 82 86  1  0  0  0  0
 86 87  2  0  0  0  0
 87 88  1  0  0  0  0
 88 89  2  0  0  0  0
 89 90  1  0  0  0  0
 90 91  2  0  0  0  0
 90 92  1  0  0  0  0
 92 93  1  0  0  0  0
 93 94  1  0  0  0  0
 89 95  1  0  0  0  0
 95 96  1  0  0  0  0
 13  1  2  0  0  0  0
 31 15  2  0  0  0  0
 48 32  2  0  0  0  0
 65 49  2  0  0  0  0
 78 66  2  0  0  0  0
 96 80  2  0  0  0  0
 13  4  1  0  0  0  0
 20 16  2  0  0  0  0
 31 22  1  0  0  0  0
 37 33  2  0  0  0  0
 48 39  1  0  0  0  0
 54 50  2  0  0  0  0
 65 56  1  0  0  0  0
 78 69  1  0  0  0  0
 85 81  2  0  0  0  0
 96 87  1  0  0  0  0
  1 97  1  0  0  0  0
 10 98  1  0  0  0  0
 10 99  1  0  0  0  0
 11100  1  0  0  0  0
 11101  1  0  0  0  0
 11102  1  0  0  0  0
 23103  1  0  0  0  0
 28104  1  0  0  0  0
 28105  1  0  0  0  0
 29106  1  0  0  0  0
 29107  1  0  0  0  0
 29108  1  0  0  0  0
 40109  1  0  0  0  0
 45110  1  0  0  0  0
 45111  1  0  0  0  0
 46112  1  0  0  0  0
 46113  1  0  0  0  0
 46114  1  0  0  0  0
 57115  1  0  0  0  0
 62116  1  0  0  0  0
 62117  1  0  0  0  0
 63118  1  0  0  0  0
 63119  1  0  0  0  0
 63120  1  0  0  0  0
 75121  1  0  0  0  0
 75122  1  0  0  0  0
 76123  1  0  0  0  0
 76124  1  0  0  0  0
 76125  1  0  0  0  0
 86126  1  0  0  0  0
 88127  1  0  0  0  0
 93128  1  0  0  0  0
 93129  1  0  0  0  0
 94130  1  0  0  0  0
 94131  1  0  0  0  0
 94132  1  0  0  0  0
M  END
