126

C          3.54540       -8.98660        8.30850
C          2.47710       -8.30710        8.90370
C          1.84400       -7.18250        8.24850
N          0.82290       -6.70100        8.96430
S          0.69890       -7.54990       10.31670
N          1.90210       -8.58150       10.07880
C          2.28180       -6.73440        6.99150
C          3.35660       -7.41250        6.42120
C          4.01850       -7.12050        5.19810
C          5.03930       -7.97370        4.92310
C          5.91380       -7.97000        3.74550
O          6.83170       -8.73090        3.56930
O          5.55820       -7.00930        2.88040
C          6.33230       -6.92830        1.68170
C          5.67520       -5.91950        0.75860
S          5.27930       -9.18740        6.14940
C          3.96160       -8.52730        7.08390
C          1.63330       -5.60910        6.32670
C          1.47180       -4.37010        6.97520
C          0.90000       -3.22300        6.30220
N          0.84970       -2.16180        7.11580
S          1.47150       -2.56250        8.54900
N          1.84010       -4.08360        8.22440
C          0.52320       -3.27770        4.94240
C          0.54970       -4.56140        4.36700
C          0.00710       -4.95070        3.11280
C          0.18150       -6.27030        2.83240
C         -0.23760       -6.98960        1.62720
O         -0.08780       -8.17270        1.44750
O         -0.79150       -6.15530        0.73570
C         -1.24170       -6.74530       -0.48640
C         -1.64090       -5.63010       -1.43400
S          1.01310       -7.14030        4.09210
C          1.11460       -5.67980        5.04590
C          0.19340       -2.11570        4.14160
C         -0.53770       -0.99920        4.55680
N         -1.06860       -0.71460        5.78400
C         -1.70300        0.47490        5.67000
N         -1.66280        0.95950        4.46770
C         -0.93470        0.07210        3.70850
C         -0.62460        0.12760        2.33300
C          0.21350       -0.93880        1.93870
C          0.60890       -1.98510        2.80920
N          1.49420       -2.74420        2.08450
C          1.58670       -2.17600        0.85580
N          0.84320       -1.12530        0.72770
C         -1.07760        1.15390        1.40940
C         -1.38510        2.47890        1.76990
N         -1.32490        3.11100        2.97870
C         -1.64540        4.41400        2.76040
N         -1.87580        4.69310        1.51730
C         -1.74750        3.50540        0.84690
C         -1.90540        3.26040       -0.51740
C         -1.66670        1.93640       -0.89190
C         -1.24420        0.93710        0.02840
N         -1.16560       -0.20320       -0.72460
C         -1.49380        0.13440       -1.99960
N         -1.81600        1.37980       -2.13680
C         -2.29760        4.28050       -1.47370
C         -3.35760        5.17010       -1.19900
C         -3.76320        6.17750       -2.15480
N         -4.81870        6.87620       -1.72450
S         -5.23520        6.32800       -0.27600
N         -4.13960        5.17170       -0.11920
C         -3.12200        6.30760       -3.39740
C         -2.06030        5.44180       -3.64970
C         -1.20180        5.43850       -4.78280
C         -0.23310        4.48760       -4.71010
C          0.79320        4.22420       -5.72020
O          0.91400        4.83620       -6.75460
O          1.58570        3.21120       -5.35310
C          2.62590        2.85520       -6.26070
C          3.44910        1.74900       -5.62860
S         -0.30700        3.52970       -3.25850
C         -1.67960        4.44200       -2.70230
C         -3.59450        7.29080       -4.36880
C         -3.72330        8.65100       -4.02530
C         -4.24530        9.61760       -4.96820
N         -4.27560       10.84980       -4.44510
S         -3.70310       10.78590       -2.94960
N         -3.37900        9.21940       -2.86840
C         -4.64180        9.23510       -6.24970
C         -4.51600        7.89920       -6.58380
C         -4.87380        7.27030       -7.81040
C         -4.66080        5.92950       -7.80320
C         -4.91640        4.99550       -8.90420
O         -5.36340        5.31450       -9.97880
O         -4.59770        3.74620       -8.54880
C         -4.75270        2.72710       -9.53380
C         -3.52570        2.63780      -10.42990
S         -4.00230        5.33290       -6.30220
C         -3.99660        6.95090       -5.64630
H          4.00700       -9.82630        8.79900
H          3.76020       -6.30220        4.55250
H          7.35350       -6.62650        1.94060
H          6.37770       -7.92170        1.22250
H          5.63620       -4.94390        1.23640
H          6.24750       -5.84090       -0.16090
H          4.66270       -6.23580        0.52080
H         -0.53760       -4.29410        2.45960
H         -0.43390       -7.35830       -0.90140
H         -2.08910       -7.40430       -0.26700
H         -2.00550       -6.05670       -2.36350
H         -0.78700       -4.99220       -1.64720
H         -2.42600       -5.02450       -0.98940
H         -0.81460       -1.21610        6.62460
H         -2.19410        0.95680        6.49300
H          1.98320       -3.55740        2.41730
H          2.21310       -2.56940        0.07910
H         -1.30850        2.59150        3.85420
H         -1.68060        5.13430        3.55510
H         -0.69420       -1.04040       -0.41690
H         -1.50050       -0.58150       -2.79880
H         -1.28140        6.12160       -5.60840
H          3.23600        3.74210       -6.46710
H          2.17520        2.52840       -7.20510
H          4.24650        1.45350       -6.30430
H          3.88140        2.09450       -4.69360
H          2.81800        0.88950       -5.42020
H         -5.03620        9.95830       -6.94400
H         -5.27520        7.79390       -8.65910
H         -5.64490        2.94440      -10.13080
H         -4.89640        1.80470       -8.96730
H         -3.41090        3.55980      -10.99460
H         -3.64020        1.81080      -11.12490
H         -2.63390        2.47950       -9.82830
