62

C          7.39240        1.63800       -6.53420
S          6.17590        2.36700       -5.53070
C          5.66880        0.84130       -4.82720
C          6.43570       -0.16960       -5.37330
C          7.39670        0.29420       -6.32860
N          8.04600       -0.84020       -6.74840
C          7.47230       -1.88140       -6.05930
N          6.52790       -1.53210       -5.24620
C          4.63640        0.76760       -3.87550
S          4.14300       -0.77600       -3.19500
C          2.89260       -0.06540       -2.17870
C          2.88300        1.30940       -2.37740
C          3.85140        1.75630       -3.31640
N          3.69210        3.11450       -3.37640
C          2.67550        3.41130       -2.50440
N          2.17500        2.37990       -1.89970
C          2.09540       -0.86020       -1.34750
S          0.81730       -0.19080       -0.34110
C          0.35800       -1.75120        0.31310
C          1.17990       -2.73780       -0.23800
C          2.13050       -2.23240       -1.15320
N          2.83400       -3.32340       -1.59130
C          2.30050       -4.39970       -0.94780
N          1.32280       -4.10200       -0.13950
C         -0.67340       -1.95400        1.23460
S         -1.72160       -0.70860        1.89970
C         -2.64230       -1.83650        2.87880
C         -2.13670       -3.12450        2.68730
C         -1.05730       -3.17220        1.77890
N         -0.68690       -4.48270        1.69820
C         -1.52500       -5.15500        2.52970
N         -2.39890       -4.39670        3.13780
C         -3.71430       -1.48340        3.70340
S         -4.36250        0.13620        3.91430
C         -5.61850       -0.37630        5.03720
C         -5.51670       -1.74730        5.22930
C         -4.46450       -2.34440        4.48780
N         -4.50460       -3.67310        4.78210
C         -5.54280       -3.82140        5.65750
N         -6.16540       -2.71680        5.94910
C         -6.52940        0.54780        5.57950
S         -7.79350        0.06110        6.69600
C         -8.41920        1.66020        6.85280
C         -7.69970        2.53890        6.08850
C         -6.63480        1.90730        5.37280
N         -6.02800        2.91160        4.66940
C         -6.72120        4.05440        4.97710
N         -7.70430        3.88450        5.80110
H          7.98520        2.25530       -7.17570
H          8.78820       -0.90030       -7.42280
H          7.79580       -2.89500       -6.19860
H          4.21810        3.75540       -3.94540
H          2.33670        4.41690       -2.34860
H          3.58930       -3.31880       -2.25610
H          2.66110       -5.39840       -1.10060
H          0.07380       -4.79780        1.09530
H         -1.46910       -6.21710        2.67180
H         -3.85710       -4.34560        4.37210
H         -5.81340       -4.77560        6.06630
H         -9.26160        1.84500        7.48600
H         -5.23560        2.82200        4.05660
H         -6.45440        5.00550        4.55740
