185

C          4.15380       -7.09900       13.89880
C          5.25740       -7.10210       13.12450
C          4.98080       -6.78350       11.76150
C          5.88480       -6.69080       10.69120
C          7.32960       -6.87360       10.88400
C          8.04920       -7.77690       10.10470
C          9.40780       -7.92840       10.28160
C         10.10260       -7.19190       11.23910
S         11.83470       -7.51390       11.40670
C         12.57320       -5.86150       11.68410
C         12.27120       -4.90780       10.54590
C          9.36730       -6.30810       12.02280
F          9.96270       -5.57910       12.99350
C          8.00890       -6.13620       11.84780
C          5.34750       -6.40330        9.44700
C          3.96740       -6.16740        9.23820
C          3.06540       -6.23700       10.31120
C          1.64000       -5.96500       10.09240
C          1.23990       -4.81690        9.41180
C         -0.08890       -4.58690        9.12080
C         -1.06860       -5.50190        9.49050
S         -2.78250       -5.32670        9.11270
C         -2.76580       -4.33410        7.57760
C         -2.06360       -5.04320        6.43670
C         -0.66090       -6.61790       10.22160
C          0.66220       -6.85750       10.52360
F         -1.58380       -7.51070       10.62780
C          3.59800       -6.56630       11.54940
S          2.70150       -6.71960       13.03770
C          3.67820       -5.88410        7.88060
C          4.77610       -5.86160        7.07500
S          6.25040       -6.22360        7.95810
C          4.78850       -5.54230        5.69170
S          3.31480       -4.93860        4.93040
C          5.78920       -5.56180        4.76030
N          7.10340       -5.96910        4.67770
C          7.57520       -5.57310        3.35690
O          6.45260       -5.11660        2.61720
C          5.40130       -5.09860        3.47860
C          4.10020       -4.70200        3.37230
C          3.38180       -4.11590        2.29460
C          2.09370       -3.66870        2.33090
C          1.67460       -3.05150        1.12820
C          0.42300       -2.48070        0.84110
C         -0.63700       -2.40450        1.85390
C         -0.37920       -1.87690        3.11650
C         -1.37620       -1.77950        4.06720
C         -2.67070       -2.20190        3.78750
S         -4.01750       -2.14990        4.92960
C         -3.55240       -0.80880        6.08010
C         -3.51780        0.54420        5.39700
C         -2.91300       -2.73850        2.52280
F         -4.15150       -3.17570        2.22310
C         -1.92840       -2.83850        1.56470
C          0.25580       -1.95600       -0.42990
C          1.27390       -1.97150       -1.41560
C          2.51890       -2.56030       -1.13390
C          3.57200       -2.63720       -2.15310
C          3.29830       -3.15550       -3.41590
C          4.28340       -3.25430       -4.37930
C          5.58280       -2.83810       -4.11290
S          6.92340       -2.88300       -5.25690
C          6.38400       -4.08010       -6.52700
C          6.31340       -5.49650       -5.98950
C          5.84060       -2.31070       -2.84640
C          4.86870       -2.21050       -1.87670
F          7.08480       -1.88000       -2.55940
C          2.69460       -3.06950        0.14390
S          4.14870       -3.83140        0.74770
C          0.88700       -1.27420       -2.58730
C         -0.37330       -0.74970       -2.52080
S         -1.16300       -1.11340       -1.00000
C         -1.03220        0.04040       -3.49950
S         -2.56990        0.83610       -3.16580
C         -0.63260        0.37600       -4.76730
N          0.45780        0.14460       -5.59140
C          0.14710        0.80190       -6.85910
O         -1.06120        1.52880       -6.69780
C         -1.51190        1.24940       -5.44300
C         -2.62430        1.61890       -4.74110
C         -3.67720        2.49580       -5.10360
S         -3.61290        3.42970       -6.59610
C         -4.82250        2.81130       -4.42340
N         -5.48490        2.40000       -3.28400
C         -6.64140        3.27580       -3.14640
O         -6.72680        4.07110       -4.32100
C         -5.62430        3.78270       -5.06330
C         -5.13660        4.24870       -6.25050
C         -5.66430        5.24390       -7.11780
C         -5.13230        5.69660       -8.28810
C         -5.89840        6.72290       -8.89790
C         -5.62880        7.41460      -10.08950
C         -4.39850        7.17060      -10.85180
C         -3.15290        7.19740      -10.22430
C         -2.00000        6.96950      -10.94200
C         -2.03400        6.71150      -12.31300
S         -0.47840        6.47230      -13.11110
C         -0.85570        5.39200      -14.54890
C          0.42090        4.69970      -14.98430
C         -3.28060        6.71600      -12.93040
F         -3.40100        6.51060      -14.26260
C         -4.44480        6.92950      -12.22000
C         -6.56900        8.35390      -10.49140
C         -7.73000        8.65740       -9.74120
C         -7.98550        7.98460       -8.53770
C         -9.15360        8.30420       -7.70680
C         -9.41640        9.61520       -7.31320
C        -10.48920        9.90040       -6.49580
C        -11.35010        8.89800       -6.05420
S        -12.71440        9.38370       -5.03660
C        -12.80160        8.06600       -3.76800
C        -11.49830        7.92050       -3.00850
C        -11.09630        7.59960       -6.48490
C        -10.00980        7.29550       -7.27940
F        -11.91740        6.58350       -6.13980
C         -7.06950        7.01620       -8.15540
S         -7.16240        6.05020       -6.70170
C         -8.52250        9.65870      -10.37880
C         -7.97790       10.10600      -11.52770
S         -6.47480        9.34510      -11.92530
H          4.08530       -7.30520       14.94910
H          6.24110       -7.33500       13.48960
H          7.53680       -8.37030        9.36350
H          9.96230       -8.62990        9.67800
H         12.23250       -5.47540       12.64210
H         13.64050       -6.07390       11.74670
H         12.78770       -3.96450       10.71160
H         12.60300       -5.32730        9.59840
H         11.20310       -4.70780       10.48040
H          7.49160       -5.41840       12.46590
H          1.97950       -4.08680        9.11930
H         -0.36180       -3.68420        8.59820
H         -2.32610       -3.36130        7.79480
H         -3.82260       -4.19390        7.35220
H         -2.51750       -6.01630        6.26620
H         -2.15480       -4.45590        5.52530
H         -1.00670       -5.18780        6.65280
H          0.92240       -7.75570       11.06080
H          2.68790       -5.71470        7.49870
H          7.72160       -5.85850        5.46500
H          8.01020       -6.43600        2.83250
H          8.32700       -4.76700        3.39990
H          1.46790       -3.78850        3.19700
H          0.61130       -1.51830        3.35160
H         -1.13540       -1.37030        5.03540
H         -4.33400       -0.84430        6.83880
H         -2.60180       -1.05770        6.54980
H         -2.76560        0.56360        4.61070
H         -4.48540        0.76500        4.95260
H         -3.28240        1.31990        6.12320
H         -2.17270       -3.26460        0.60480
H          2.30220       -3.50830       -3.63890
H          4.02930       -3.65960       -5.34570
H          5.43650       -3.74550       -6.94770
H          7.15210       -3.99450       -7.29560
H          5.57770       -5.57630       -5.19180
H          6.03740       -6.18260       -6.78810
H          7.28110       -5.79490       -5.59330
H          5.12540       -1.78820       -0.91850
H          1.54450       -1.11310       -3.42150
H          0.83090       -0.79100       -5.64470
H          0.02530        0.08450       -7.68680
H          0.94710        1.51050       -7.11870
H         -4.96510        2.15530       -2.45650
H         -6.56850        3.94100       -2.26970
H         -7.56180        2.67930       -3.06340
H         -4.22520        5.29390       -8.70130
H         -3.09180        7.41350       -9.16880
H         -1.03890        6.98880      -10.45190
H         -1.25970        6.01080      -15.34850
H         -1.60410        4.67070      -14.22480
H          0.81880        4.08850      -14.17730
H          1.17450        5.43170      -15.26570
H          0.21770        4.06110      -15.84130
H         -5.38350        6.89880      -12.75060
H         -8.75320       10.40820       -7.62370
H        -10.68020       10.91350       -6.17720
H        -13.10210        7.13520       -4.24380
H        -13.60390        8.40490       -3.11240
H        -11.20730        8.87020       -2.56410
H        -11.61760        7.18460       -2.21570
H        -10.69860        7.58760       -3.66780
H         -9.85920        6.27130       -7.58200
H         -9.46160       10.00540       -9.98730
H         -8.36660       10.84830      -12.19720
