
  xtb     03032204053D
 energy: -451.574644608544 gnorm: 0.000169173749 xtb: 6.4.1 (unknown)
232257  0     0  0            999 V2000
    8.8936   -0.5749   -4.6486 C   0  0  0  0  0  0  0  0  0  0  0  0
    9.2219   -0.7115   -3.3478 C   0  0  0  0  0  0  0  0  0  0  0  0
    8.2242   -0.1965   -2.4697 C   0  0  0  0  0  0  0  0  0  0  0  0
    8.2181   -0.1785   -1.0667 C   0  0  0  0  0  0  0  0  0  0  0  0
    9.2540   -0.8455   -0.2954 C   0  0  0  0  0  0  0  0  0  0  0  0
   10.1386   -0.0230    0.9531 S   0  0  0  0  0  0  0  0  0  0  0  0
   11.0632   -1.4355    1.3338 C   0  0  0  0  0  0  0  0  0  0  0  0
   12.0571   -1.4273    2.4420 C   0  0  0  0  0  0  0  0  0  0  0  0
   11.3658   -1.6185    3.7942 C   0  0  0  0  0  0  0  0  0  0  0  0
   10.6868   -2.4782    0.5404 C   0  0  0  0  0  0  0  0  0  0  0  0
   11.3718   -4.0495    0.6323 Cl  0  0  0  0  0  0  0  0  0  0  0  0
    9.6641   -2.1464   -0.3883 C   0  0  0  0  0  0  0  0  0  0  0  0
    8.9681   -3.2979   -1.4555 Cl  0  0  0  0  0  0  0  0  0  0  0  0
    7.1521    0.4603   -0.4479 C   0  0  0  0  0  0  0  0  0  0  0  0
    6.0893    1.0584   -1.1677 C   0  0  0  0  0  0  0  0  0  0  0  0
    6.0530    0.9672   -2.5685 C   0  0  0  0  0  0  0  0  0  0  0  0
    4.9001    1.4084   -3.3440 C   0  0  0  0  0  0  0  0  0  0  0  0
    4.3570    3.0580   -3.3676 S   0  0  0  0  0  0  0  0  0  0  0  0
    3.0334    2.6925   -4.4243 C   0  0  0  0  0  0  0  0  0  0  0  0
    2.0666    3.7375   -4.8614 C   0  0  0  0  0  0  0  0  0  0  0  0
    2.7291    5.0945   -5.0675 C   0  0  0  0  0  0  0  0  0  0  0  0
    3.0246    1.3636   -4.7268 C   0  0  0  0  0  0  0  0  0  0  0  0
    4.0856    0.6363   -4.1238 C   0  0  0  0  0  0  0  0  0  0  0  0
    4.2470   -1.0593   -4.3041 Cl  0  0  0  0  0  0  0  0  0  0  0  0
    1.8278    0.6090   -5.7055 Cl  0  0  0  0  0  0  0  0  0  0  0  0
    7.1343    0.3519   -3.1858 C   0  0  0  0  0  0  0  0  0  0  0  0
    7.3598    0.1831   -4.9028 S   0  0  0  0  0  0  0  0  0  0  0  0
    5.0883    1.5647   -0.2981 C   0  0  0  0  0  0  0  0  0  0  0  0
    5.3274    1.3096    1.0194 C   0  0  0  0  0  0  0  0  0  0  0  0
    6.8696    0.5161    1.2704 S   0  0  0  0  0  0  0  0  0  0  0  0
    4.3959    1.4743    2.0951 C   0  0  0  0  0  0  0  0  0  0  0  0
    3.0388    1.4571    1.9708 C   0  0  0  0  0  0  0  0  0  0  0  0
    2.3550    1.5233    3.2094 C   0  0  0  0  0  0  0  0  0  0  0  0
    0.9679    1.4719    3.4254 C   0  0  0  0  0  0  0  0  0  0  0  0
    0.0488    1.4284    2.2972 C   0  0  0  0  0  0  0  0  0  0  0  0
    0.0770    2.6649    1.0743 S   0  0  0  0  0  0  0  0  0  0  0  0
   -1.2110    1.9284    0.1813 C   0  0  0  0  0  0  0  0  0  0  0  0
   -1.7878    2.5807   -1.0279 C   0  0  0  0  0  0  0  0  0  0  0  0
   -0.7462    3.3360   -1.8451 C   0  0  0  0  0  0  0  0  0  0  0  0
   -1.6108    0.7790    0.7964 C   0  0  0  0  0  0  0  0  0  0  0  0
   -2.8195   -0.2804    0.1825 Cl  0  0  0  0  0  0  0  0  0  0  0  0
   -0.9169    0.5091    2.0071 C   0  0  0  0  0  0  0  0  0  0  0  0
   -1.2587   -0.8487    2.9872 Cl  0  0  0  0  0  0  0  0  0  0  0  0
    0.5348    1.5326    4.7430 C   0  0  0  0  0  0  0  0  0  0  0  0
    1.4224    1.6731    5.8376 C   0  0  0  0  0  0  0  0  0  0  0  0
    2.8121    1.6645    5.6232 C   0  0  0  0  0  0  0  0  0  0  0  0
    3.7441    1.7316    6.7344 C   0  0  0  0  0  0  0  0  0  0  0  0
    5.0780    2.8481    6.7431 S   0  0  0  0  0  0  0  0  0  0  0  0
    5.6413    2.2866    8.2795 C   0  0  0  0  0  0  0  0  0  0  0  0
    6.8188    2.9086    8.9442 C   0  0  0  0  0  0  0  0  0  0  0  0
    6.3980    4.1191    9.7812 C   0  0  0  0  0  0  0  0  0  0  0  0
    4.8306    1.2970    8.7508 C   0  0  0  0  0  0  0  0  0  0  0  0
    3.7574    0.9790    7.8778 C   0  0  0  0  0  0  0  0  0  0  0  0
    2.6667   -0.3018    8.2030 Cl  0  0  0  0  0  0  0  0  0  0  0  0
    5.0746    0.4839   10.2432 Cl  0  0  0  0  0  0  0  0  0  0  0  0
    3.2471    1.5995    4.3042 C   0  0  0  0  0  0  0  0  0  0  0  0
    4.9045    1.5859    3.7655 S   0  0  0  0  0  0  0  0  0  0  0  0
    0.7275    1.9420    7.0487 C   0  0  0  0  0  0  0  0  0  0  0  0
   -0.6247    1.9838    6.9131 C   0  0  0  0  0  0  0  0  0  0  0  0
   -1.1202    1.6243    5.2679 S   0  0  0  0  0  0  0  0  0  0  0  0
   -1.6270    2.4559    7.8624 C   0  0  0  0  0  0  0  0  0  0  0  0
   -2.6195    3.3019    7.3585 C   0  0  0  0  0  0  0  0  0  0  0  0
   -3.5643    3.8974    8.1731 C   0  0  0  0  0  0  0  0  0  0  0  0
   -4.6326    4.7884    7.5982 C   0  0  0  0  0  0  0  0  0  0  0  0
   -4.9558    5.8651    8.5226 N   0  0  0  0  0  0  0  0  0  0  0  0
   -3.5128    3.6578    9.5406 C   0  0  0  0  0  0  0  0  0  0  0  0
   -2.5563    2.8047   10.0500 C   0  0  0  0  0  0  0  0  0  0  0  0
   -1.6116    2.1849    9.2371 C   0  0  0  0  0  0  0  0  0  0  0  0
   -0.7801    1.0972    9.8703 C   0  0  0  0  0  0  0  0  0  0  0  0
   -1.6132   -0.1000    9.9934 N   0  0  0  0  0  0  0  0  0  0  0  0
   -1.8072   -0.8413    8.8588 C   0  0  0  0  0  0  0  0  0  0  0  0
   -0.8514   -1.3300    8.0277 C   0  0  0  0  0  0  0  0  0  0  0  0
   -1.3767   -2.0496    6.9282 C   0  0  0  0  0  0  0  0  0  0  0  0
   -0.6596   -2.6789    5.9028 C   0  0  0  0  0  0  0  0  0  0  0  0
    0.7976   -2.6786    5.8865 C   0  0  0  0  0  0  0  0  0  0  0  0
    1.7106   -1.9275    4.6109 S   0  0  0  0  0  0  0  0  0  0  0  0
    3.2261   -2.4073    5.3029 C   0  0  0  0  0  0  0  0  0  0  0  0
    4.5083   -2.0956    4.6053 C   0  0  0  0  0  0  0  0  0  0  0  0
    5.4990   -1.3259    5.4778 C   0  0  0  0  0  0  0  0  0  0  0  0
    3.0170   -3.0945    6.4612 C   0  0  0  0  0  0  0  0  0  0  0  0
    4.2545   -3.7781    7.4321 Cl  0  0  0  0  0  0  0  0  0  0  0  0
    1.6438   -3.2363    6.7998 C   0  0  0  0  0  0  0  0  0  0  0  0
    1.1086   -4.0800    8.1945 Cl  0  0  0  0  0  0  0  0  0  0  0  0
   -1.3997   -3.2548    4.8828 C   0  0  0  0  0  0  0  0  0  0  0  0
   -2.8134   -3.2171    4.8276 C   0  0  0  0  0  0  0  0  0  0  0  0
   -3.5336   -2.6598    5.9025 C   0  0  0  0  0  0  0  0  0  0  0  0
   -4.9839   -2.6870    5.9154 C   0  0  0  0  0  0  0  0  0  0  0  0
   -5.9264   -1.2714    6.2760 S   0  0  0  0  0  0  0  0  0  0  0  0
   -7.4211   -2.1230    6.0884 C   0  0  0  0  0  0  0  0  0  0  0  0
   -8.7308   -1.4273    6.2208 C   0  0  0  0  0  0  0  0  0  0  0  0
   -9.1696   -0.8275    4.8826 C   0  0  0  0  0  0  0  0  0  0  0  0
   -7.1871   -3.4253    5.7606 C   0  0  0  0  0  0  0  0  0  0  0  0
   -5.8084   -3.7504    5.6642 C   0  0  0  0  0  0  0  0  0  0  0  0
   -5.2593   -5.3458    5.3467 Cl  0  0  0  0  0  0  0  0  0  0  0  0
   -8.4273   -4.5822    5.4989 Cl  0  0  0  0  0  0  0  0  0  0  0  0
   -2.7918   -2.0736    6.9179 C   0  0  0  0  0  0  0  0  0  0  0  0
   -3.4327   -1.2447    8.3133 S   0  0  0  0  0  0  0  0  0  0  0  0
   -3.3024   -3.6431    3.5645 C   0  0  0  0  0  0  0  0  0  0  0  0
   -2.3141   -4.0221    2.7052 C   0  0  0  0  0  0  0  0  0  0  0  0
   -0.7296   -3.9943    3.4634 S   0  0  0  0  0  0  0  0  0  0  0  0
   -2.3418   -4.1379    1.2800 C   0  0  0  0  0  0  0  0  0  0  0  0
   -3.3687   -4.2501    0.3881 C   0  0  0  0  0  0  0  0  0  0  0  0
   -2.9728   -4.0049   -0.9564 C   0  0  0  0  0  0  0  0  0  0  0  0
   -3.7812   -3.8485   -2.1006 C   0  0  0  0  0  0  0  0  0  0  0  0
   -5.2128   -4.0996   -2.0392 C   0  0  0  0  0  0  0  0  0  0  0  0
   -5.8305   -5.6462   -1.5392 S   0  0  0  0  0  0  0  0  0  0  0  0
   -7.4741   -5.1432   -1.7416 C   0  0  0  0  0  0  0  0  0  0  0  0
   -8.6056   -6.0837   -1.5135 C   0  0  0  0  0  0  0  0  0  0  0  0
   -8.9236   -6.8740   -2.7850 C   0  0  0  0  0  0  0  0  0  0  0  0
   -7.5232   -3.8519   -2.1742 C   0  0  0  0  0  0  0  0  0  0  0  0
   -8.9821   -3.0036   -2.4854 Cl  0  0  0  0  0  0  0  0  0  0  0  0
   -6.2444   -3.2545   -2.3380 C   0  0  0  0  0  0  0  0  0  0  0  0
   -6.0451   -1.6102   -2.7776 Cl  0  0  0  0  0  0  0  0  0  0  0  0
   -3.1677   -3.3907   -3.2623 C   0  0  0  0  0  0  0  0  0  0  0  0
   -1.7906   -3.0617   -3.3178 C   0  0  0  0  0  0  0  0  0  0  0  0
   -0.9910   -3.1899   -2.1782 C   0  0  0  0  0  0  0  0  0  0  0  0
    0.3031   -2.5406   -2.0533 C   0  0  0  0  0  0  0  0  0  0  0  0
    1.6861   -3.2835   -1.3140 S   0  0  0  0  0  0  0  0  0  0  0  0
    2.5074   -1.7679   -1.1400 C   0  0  0  0  0  0  0  0  0  0  0  0
    3.8175   -1.6766   -0.4400 C   0  0  0  0  0  0  0  0  0  0  0  0
    4.8708   -2.6192   -1.0167 C   0  0  0  0  0  0  0  0  0  0  0  0
    1.7462   -0.7650   -1.6603 C   0  0  0  0  0  0  0  0  0  0  0  0
    0.5068   -1.1959   -2.1943 C   0  0  0  0  0  0  0  0  0  0  0  0
   -0.6375   -0.1072   -2.8539 Cl  0  0  0  0  0  0  0  0  0  0  0  0
    2.1314    0.8983   -1.6027 Cl  0  0  0  0  0  0  0  0  0  0  0  0
   -1.5933   -3.7010   -1.0397 C   0  0  0  0  0  0  0  0  0  0  0  0
   -0.8132   -3.7959    0.5005 S   0  0  0  0  0  0  0  0  0  0  0  0
   -1.4080   -2.5339   -4.5694 C   0  0  0  0  0  0  0  0  0  0  0  0
   -2.4427   -2.4135   -5.4478 C   0  0  0  0  0  0  0  0  0  0  0  0
   -3.9424   -3.0397   -4.7880 S   0  0  0  0  0  0  0  0  0  0  0  0
   -2.3731   -1.7310   -6.6975 C   0  0  0  0  0  0  0  0  0  0  0  0
   -3.3701   -1.3911   -7.5608 C   0  0  0  0  0  0  0  0  0  0  0  0
   -2.9359   -0.5561   -8.6237 C   0  0  0  0  0  0  0  0  0  0  0  0
   -3.7000    0.0315   -9.6463 C   0  0  0  0  0  0  0  0  0  0  0  0
   -5.1002   -0.3107   -9.8216 C   0  0  0  0  0  0  0  0  0  0  0  0
   -6.3328    0.9075   -9.9569 S   0  0  0  0  0  0  0  0  0  0  0  0
   -7.5879   -0.2707  -10.1295 C   0  0  0  0  0  0  0  0  0  0  0  0
   -9.0158    0.1341  -10.2450 C   0  0  0  0  0  0  0  0  0  0  0  0
   -9.6326    0.3682   -8.8637 C   0  0  0  0  0  0  0  0  0  0  0  0
   -7.0672   -1.5296  -10.0793 C   0  0  0  0  0  0  0  0  0  0  0  0
   -8.0051   -2.9598  -10.2214 Cl  0  0  0  0  0  0  0  0  0  0  0  0
   -5.6578   -1.5573   -9.9079 C   0  0  0  0  0  0  0  0  0  0  0  0
   -4.7581   -3.0192   -9.8992 Cl  0  0  0  0  0  0  0  0  0  0  0  0
   -3.0525    0.9424  -10.4746 C   0  0  0  0  0  0  0  0  0  0  0  0
   -1.6784    1.2569  -10.3528 C   0  0  0  0  0  0  0  0  0  0  0  0
   -0.9059    0.6363   -9.3621 C   0  0  0  0  0  0  0  0  0  0  0  0
    0.5114    0.9367   -9.1918 C   0  0  0  0  0  0  0  0  0  0  0  0
    1.7345   -0.2743   -9.4234 S   0  0  0  0  0  0  0  0  0  0  0  0
    3.0103    0.8355   -9.0579 C   0  0  0  0  0  0  0  0  0  0  0  0
    4.4372    0.4087   -9.0597 C   0  0  0  0  0  0  0  0  0  0  0  0
    4.8965    0.0135   -7.6555 C   0  0  0  0  0  0  0  0  0  0  0  0
    2.4992    2.0610   -8.7510 C   0  0  0  0  0  0  0  0  0  0  0  0
    1.0828    2.1242   -8.8357 C   0  0  0  0  0  0  0  0  0  0  0  0
    0.1827    3.5439   -8.4844 Cl  0  0  0  0  0  0  0  0  0  0  0  0
    3.4646    3.4092   -8.3146 Cl  0  0  0  0  0  0  0  0  0  0  0  0
   -1.5553   -0.2569   -8.5249 C   0  0  0  0  0  0  0  0  0  0  0  0
   -0.8230   -1.0553   -7.1692 S   0  0  0  0  0  0  0  0  0  0  0  0
   -1.2595    2.1974  -11.3383 C   0  0  0  0  0  0  0  0  0  0  0  0
   -2.2614    2.5724  -12.1586 C   0  0  0  0  0  0  0  0  0  0  0  0
   -3.7741    1.8117  -11.8004 S   0  0  0  0  0  0  0  0  0  0  0  0
    9.4641   -0.8751   -5.5057 H   0  0  0  0  0  0  0  0  0  0  0  0
   10.1432   -1.1464   -3.0071 H   0  0  0  0  0  0  0  0  0  0  0  0
   12.7723   -2.2350    2.2773 H   0  0  0  0  0  0  0  0  0  0  0  0
   12.5947   -0.4774    2.4411 H   0  0  0  0  0  0  0  0  0  0  0  0
   12.1017   -1.6117    4.5935 H   0  0  0  0  0  0  0  0  0  0  0  0
   10.6509   -0.8177    3.9685 H   0  0  0  0  0  0  0  0  0  0  0  0
   10.8363   -2.5676    3.8158 H   0  0  0  0  0  0  0  0  0  0  0  0
    1.2785    3.8308   -4.1069 H   0  0  0  0  0  0  0  0  0  0  0  0
    1.5970    3.4023   -5.7886 H   0  0  0  0  0  0  0  0  0  0  0  0
    3.1703    5.4474   -4.1379 H   0  0  0  0  0  0  0  0  0  0  0  0
    1.9935    5.8208   -5.4029 H   0  0  0  0  0  0  0  0  0  0  0  0
    3.5127    5.0243   -5.8176 H   0  0  0  0  0  0  0  0  0  0  0  0
    4.2188    2.0908   -0.6420 H   0  0  0  0  0  0  0  0  0  0  0  0
    2.5404    1.3583    1.0255 H   0  0  0  0  0  0  0  0  0  0  0  0
   -2.5689    3.2786   -0.7067 H   0  0  0  0  0  0  0  0  0  0  0  0
   -2.2677    1.8133   -1.6381 H   0  0  0  0  0  0  0  0  0  0  0  0
   -0.2799    4.1117   -1.2410 H   0  0  0  0  0  0  0  0  0  0  0  0
   -1.2162    3.7991   -2.7092 H   0  0  0  0  0  0  0  0  0  0  0  0
    0.0271    2.6556   -2.1906 H   0  0  0  0  0  0  0  0  0  0  0  0
    7.5377    3.2222    8.1858 H   0  0  0  0  0  0  0  0  0  0  0  0
    7.2906    2.1653    9.5895 H   0  0  0  0  0  0  0  0  0  0  0  0
    5.6925    3.8177   10.5514 H   0  0  0  0  0  0  0  0  0  0  0  0
    7.2670    4.5627   10.2592 H   0  0  0  0  0  0  0  0  0  0  0  0
    5.9255    4.8681    9.1501 H   0  0  0  0  0  0  0  0  0  0  0  0
    1.2363    2.1921    7.9619 H   0  0  0  0  0  0  0  0  0  0  0  0
   -2.6351    3.5010    6.2962 H   0  0  0  0  0  0  0  0  0  0  0  0
   -4.3126    5.1409    6.6028 H   0  0  0  0  0  0  0  0  0  0  0  0
   -5.5437    4.1941    7.4591 H   0  0  0  0  0  0  0  0  0  0  0  0
   -5.7037    6.4384    8.1489 H   0  0  0  0  0  0  0  0  0  0  0  0
   -4.1456    6.4602    8.6623 H   0  0  0  0  0  0  0  0  0  0  0  0
   -4.2319    4.1371   10.1854 H   0  0  0  0  0  0  0  0  0  0  0  0
   -2.5382    2.6018   11.1123 H   0  0  0  0  0  0  0  0  0  0  0  0
   -0.4635    1.3859   10.8753 H   0  0  0  0  0  0  0  0  0  0  0  0
    0.0941    0.8362    9.2810 H   0  0  0  0  0  0  0  0  0  0  0  0
   -2.4719    0.0878   10.4977 H   0  0  0  0  0  0  0  0  0  0  0  0
    0.2003   -1.2029    8.1941 H   0  0  0  0  0  0  0  0  0  0  0  0
    4.9719   -3.0343    4.2870 H   0  0  0  0  0  0  0  0  0  0  0  0
    4.2782   -1.5134    3.7107 H   0  0  0  0  0  0  0  0  0  0  0  0
    6.3762   -1.0645    4.8917 H   0  0  0  0  0  0  0  0  0  0  0  0
    5.8119   -1.9250    6.3270 H   0  0  0  0  0  0  0  0  0  0  0  0
    5.0484   -0.4102    5.8492 H   0  0  0  0  0  0  0  0  0  0  0  0
   -9.4783   -2.1471    6.5598 H   0  0  0  0  0  0  0  0  0  0  0  0
   -8.6440   -0.6340    6.9649 H   0  0  0  0  0  0  0  0  0  0  0  0
  -10.1242   -0.3208    4.9953 H   0  0  0  0  0  0  0  0  0  0  0  0
   -9.2767   -1.6105    4.1362 H   0  0  0  0  0  0  0  0  0  0  0  0
   -8.4314   -0.1106    4.5311 H   0  0  0  0  0  0  0  0  0  0  0  0
   -4.3349   -3.5730    3.2744 H   0  0  0  0  0  0  0  0  0  0  0  0
   -4.3821   -4.4582    0.6794 H   0  0  0  0  0  0  0  0  0  0  0  0
   -8.3457   -6.7752   -0.7104 H   0  0  0  0  0  0  0  0  0  0  0  0
   -9.4837   -5.5092   -1.2119 H   0  0  0  0  0  0  0  0  0  0  0  0
   -8.0584   -7.4555   -3.0945 H   0  0  0  0  0  0  0  0  0  0  0  0
   -9.1939   -6.1970   -3.5914 H   0  0  0  0  0  0  0  0  0  0  0  0
   -9.7539   -7.5515   -2.6052 H   0  0  0  0  0  0  0  0  0  0  0  0
    3.6643   -1.9156    0.6174 H   0  0  0  0  0  0  0  0  0  0  0  0
    4.1651   -0.6454   -0.5065 H   0  0  0  0  0  0  0  0  0  0  0  0
    4.5296   -3.6501   -0.9597 H   0  0  0  0  0  0  0  0  0  0  0  0
    5.0720   -2.3758   -2.0564 H   0  0  0  0  0  0  0  0  0  0  0  0
    5.7978   -2.5254   -0.4567 H   0  0  0  0  0  0  0  0  0  0  0  0
   -0.4030   -2.2294   -4.8020 H   0  0  0  0  0  0  0  0  0  0  0  0
   -4.3913   -1.6921   -7.4115 H   0  0  0  0  0  0  0  0  0  0  0  0
   -9.5630   -0.6573  -10.7605 H   0  0  0  0  0  0  0  0  0  0  0  0
   -9.0856    1.0503  -10.8338 H   0  0  0  0  0  0  0  0  0  0  0  0
   -9.5810   -0.5402   -8.2689 H   0  0  0  0  0  0  0  0  0  0  0  0
  -10.6744    0.6598   -8.9648 H   0  0  0  0  0  0  0  0  0  0  0  0
   -9.0974    1.1571   -8.3407 H   0  0  0  0  0  0  0  0  0  0  0  0
    5.0525    1.2350   -9.4228 H   0  0  0  0  0  0  0  0  0  0  0  0
    4.5559   -0.4394   -9.7358 H   0  0  0  0  0  0  0  0  0  0  0  0
    5.9305   -0.3193   -7.6771 H   0  0  0  0  0  0  0  0  0  0  0  0
    4.8232    0.8623   -6.9803 H   0  0  0  0  0  0  0  0  0  0  0  0
    4.2782   -0.7929   -7.2705 H   0  0  0  0  0  0  0  0  0  0  0  0
   -0.2509    2.5609  -11.4144 H   0  0  0  0  0  0  0  0  0  0  0  0
   -2.2193    3.2639  -12.9773 H   0  0  0  0  0  0  0  0  0  0  0  0
  1  2  2  0  0  0  0
  2  3  1  0  0  0  0
  3  4  2  0  0  0  0
  4  5  1  0  0  0  0
  5  6  1  0  0  0  0
  6  7  1  0  0  0  0
  7  8  1  0  0  0  0
  8  9  1  0  0  0  0
  7 10  2  0  0  0  0
 10 11  1  0  0  0  0
 10 12  1  0  0  0  0
 12 13  1  0  0  0  0
  4 14  1  0  0  0  0
 14 15  2  0  0  0  0
 15 16  1  0  0  0  0
 16 17  1  0  0  0  0
 17 18  1  0  0  0  0
 18 19  1  0  0  0  0
 19 20  1  0  0  0  0
 20 21  1  0  0  0  0
 19 22  2  0  0  0  0
 22 23  1  0  0  0  0
 23 24  1  0  0  0  0
 22 25  1  0  0  0  0
 16 26  2  0  0  0  0
 26 27  1  0  0  0  0
 15 28  1  0  0  0  0
 28 29  2  0  0  0  0
 29 30  1  0  0  0  0
 29 31  1  0  0  0  0
 31 32  2  0  0  0  0
 32 33  1  0  0  0  0
 33 34  2  0  0  0  0
 34 35  1  0  0  0  0
 35 36  1  0  0  0  0
 36 37  1  0  0  0  0
 37 38  1  0  0  0  0
 38 39  1  0  0  0  0
 37 40  2  0  0  0  0
 40 41  1  0  0  0  0
 40 42  1  0  0  0  0
 42 43  1  0  0  0  0
 34 44  1  0  0  0  0
 44 45  2  0  0  0  0
 45 46  1  0  0  0  0
 46 47  1  0  0  0  0
 47 48  1  0  0  0  0
 48 49  1  0  0  0  0
 49 50  1  0  0  0  0
 50 51  1  0  0  0  0
 49 52  2  0  0  0  0
 52 53  1  0  0  0  0
 53 54  1  0  0  0  0
 52 55  1  0  0  0  0
 46 56  2  0  0  0  0
 56 57  1  0  0  0  0
 45 58  1  0  0  0  0
 58 59  2  0  0  0  0
 59 60  1  0  0  0  0
 59 61  1  0  0  0  0
 61 62  2  0  0  0  0
 62 63  1  0  0  0  0
 63 64  1  0  0  0  0
 64 65  1  0  0  0  0
 63 66  2  0  0  0  0
 66 67  1  0  0  0  0
 67 68  2  0  0  0  0
 68 69  1  0  0  0  0
 69 70  1  0  0  0  0
 70 71  1  0  0  0  0
 71 72  2  0  0  0  0
 72 73  1  0  0  0  0
 73 74  2  0  0  0  0
 74 75  1  0  0  0  0
 75 76  1  0  0  0  0
 76 77  1  0  0  0  0
 77 78  1  0  0  0  0
 78 79  1  0  0  0  0
 77 80  2  0  0  0  0
 80 81  1  0  0  0  0
 80 82  1  0  0  0  0
 82 83  1  0  0  0  0
 74 84  1  0  0  0  0
 84 85  2  0  0  0  0
 85 86  1  0  0  0  0
 86 87  1  0  0  0  0
 87 88  1  0  0  0  0
 88 89  1  0  0  0  0
 89 90  1  0  0  0  0
 90 91  1  0  0  0  0
 89 92  2  0  0  0  0
 92 93  1  0  0  0  0
 93 94  1  0  0  0  0
 92 95  1  0  0  0  0
 86 96  2  0  0  0  0
 96 97  1  0  0  0  0
 85 98  1  0  0  0  0
 98 99  2  0  0  0  0
 99100  1  0  0  0  0
 99101  1  0  0  0  0
101102  2  0  0  0  0
102103  1  0  0  0  0
103104  2  0  0  0  0
104105  1  0  0  0  0
105106  1  0  0  0  0
106107  1  0  0  0  0
107108  1  0  0  0  0
108109  1  0  0  0  0
107110  2  0  0  0  0
110111  1  0  0  0  0
110112  1  0  0  0  0
112113  1  0  0  0  0
104114  1  0  0  0  0
114115  2  0  0  0  0
115116  1  0  0  0  0
116117  1  0  0  0  0
117118  1  0  0  0  0
118119  1  0  0  0  0
119120  1  0  0  0  0
120121  1  0  0  0  0
119122  2  0  0  0  0
122123  1  0  0  0  0
123124  1  0  0  0  0
122125  1  0  0  0  0
116126  2  0  0  0  0
126127  1  0  0  0  0
115128  1  0  0  0  0
128129  2  0  0  0  0
129130  1  0  0  0  0
129131  1  0  0  0  0
131132  2  0  0  0  0
132133  1  0  0  0  0
133134  2  0  0  0  0
134135  1  0  0  0  0
135136  1  0  0  0  0
136137  1  0  0  0  0
137138  1  0  0  0  0
138139  1  0  0  0  0
137140  2  0  0  0  0
140141  1  0  0  0  0
140142  1  0  0  0  0
142143  1  0  0  0  0
134144  1  0  0  0  0
144145  2  0  0  0  0
145146  1  0  0  0  0
146147  1  0  0  0  0
147148  1  0  0  0  0
148149  1  0  0  0  0
149150  1  0  0  0  0
150151  1  0  0  0  0
149152  2  0  0  0  0
152153  1  0  0  0  0
153154  1  0  0  0  0
152155  1  0  0  0  0
146156  2  0  0  0  0
156157  1  0  0  0  0
145158  1  0  0  0  0
158159  2  0  0  0  0
159160  1  0  0  0  0
 27  1  1  0  0  0  0
 57 31  1  0  0  0  0
 68 61  1  0  0  0  0
 97 71  1  0  0  0  0
127101  1  0  0  0  0
157131  1  0  0  0  0
 26  3  1  0  0  0  0
 56 33  1  0  0  0  0
 96 73  1  0  0  0  0
126103  1  0  0  0  0
156133  1  0  0  0  0
 12  5  2  0  0  0  0
 30 14  1  0  0  0  0
 42 35  2  0  0  0  0
 60 44  1  0  0  0  0
 82 75  2  0  0  0  0
100 84  1  0  0  0  0
112105  2  0  0  0  0
130114  1  0  0  0  0
142135  2  0  0  0  0
160144  1  0  0  0  0
 23 17  2  0  0  0  0
 53 47  2  0  0  0  0
 93 87  2  0  0  0  0
123117  2  0  0  0  0
153147  2  0  0  0  0
  1161  1  0  0  0  0
  2162  1  0  0  0  0
  8163  1  0  0  0  0
  8164  1  0  0  0  0
  9165  1  0  0  0  0
  9166  1  0  0  0  0
  9167  1  0  0  0  0
 20168  1  0  0  0  0
 20169  1  0  0  0  0
 21170  1  0  0  0  0
 21171  1  0  0  0  0
 21172  1  0  0  0  0
 28173  1  0  0  0  0
 32174  1  0  0  0  0
 38175  1  0  0  0  0
 38176  1  0  0  0  0
 39177  1  0  0  0  0
 39178  1  0  0  0  0
 39179  1  0  0  0  0
 50180  1  0  0  0  0
 50181  1  0  0  0  0
 51182  1  0  0  0  0
 51183  1  0  0  0  0
 51184  1  0  0  0  0
 58185  1  0  0  0  0
 62186  1  0  0  0  0
 64187  1  0  0  0  0
 64188  1  0  0  0  0
 65189  1  0  0  0  0
 65190  1  0  0  0  0
 66191  1  0  0  0  0
 67192  1  0  0  0  0
 69193  1  0  0  0  0
 69194  1  0  0  0  0
 70195  1  0  0  0  0
 72196  1  0  0  0  0
 78197  1  0  0  0  0
 78198  1  0  0  0  0
 79199  1  0  0  0  0
 79200  1  0  0  0  0
 79201  1  0  0  0  0
 90202  1  0  0  0  0
 90203  1  0  0  0  0
 91204  1  0  0  0  0
 91205  1  0  0  0  0
 91206  1  0  0  0  0
 98207  1  0  0  0  0
102208  1  0  0  0  0
108209  1  0  0  0  0
108210  1  0  0  0  0
109211  1  0  0  0  0
109212  1  0  0  0  0
109213  1  0  0  0  0
120214  1  0  0  0  0
120215  1  0  0  0  0
121216  1  0  0  0  0
121217  1  0  0  0  0
121218  1  0  0  0  0
128219  1  0  0  0  0
132220  1  0  0  0  0
138221  1  0  0  0  0
138222  1  0  0  0  0
139223  1  0  0  0  0
139224  1  0  0  0  0
139225  1  0  0  0  0
150226  1  0  0  0  0
150227  1  0  0  0  0
151228  1  0  0  0  0
151229  1  0  0  0  0
151230  1  0  0  0  0
158231  1  0  0  0  0
159232  1  0  0  0  0
M  END
