
  xtb     03072221433D
 energy: -465.807371975734 gnorm: 0.000243249450 xtb: 6.4.1 (unknown)
272297  0     0  0            999 V2000
   -7.4492   -5.4572   10.8059 C   0  0  0  0  0  0  0  0  0  0  0  0
   -6.6506   -4.4203   10.4825 C   0  0  0  0  0  0  0  0  0  0  0  0
   -6.6474   -4.1381    9.0841 C   0  0  0  0  0  0  0  0  0  0  0  0
   -5.9601   -3.1222    8.4053 C   0  0  0  0  0  0  0  0  0  0  0  0
   -5.0229   -2.2080    9.0699 C   0  0  0  0  0  0  0  0  0  0  0  0
   -3.9844   -2.6818    9.8703 C   0  0  0  0  0  0  0  0  0  0  0  0
   -3.0598   -1.8118   10.4068 C   0  0  0  0  0  0  0  0  0  0  0  0
   -3.1340   -0.4365   10.1816 C   0  0  0  0  0  0  0  0  0  0  0  0
   -1.8910    0.5731   10.9240 S   0  0  0  0  0  0  0  0  0  0  0  0
   -1.6970    1.9761    9.7507 C   0  0  0  0  0  0  0  0  0  0  0  0
   -0.3779    2.6693   10.0234 C   0  0  0  0  0  0  0  0  0  0  0  0
   -4.2040    0.0249    9.4203 C   0  0  0  0  0  0  0  0  0  0  0  0
   -4.3860    1.3466    9.2014 F   0  0  0  0  0  0  0  0  0  0  0  0
   -5.1245   -0.8367    8.8606 C   0  0  0  0  0  0  0  0  0  0  0  0
   -6.1844   -3.0279    7.0395 C   0  0  0  0  0  0  0  0  0  0  0  0
   -7.0457   -3.8967    6.3273 C   0  0  0  0  0  0  0  0  0  0  0  0
   -7.7257   -4.9202    7.0063 C   0  0  0  0  0  0  0  0  0  0  0  0
   -8.6054   -5.8410    6.2769 C   0  0  0  0  0  0  0  0  0  0  0  0
   -8.4568   -7.2218    6.3899 C   0  0  0  0  0  0  0  0  0  0  0  0
   -9.2263   -8.0742    5.6269 C   0  0  0  0  0  0  0  0  0  0  0  0
  -10.1839   -7.5882    4.7393 C   0  0  0  0  0  0  0  0  0  0  0  0
  -11.1002   -8.7633    3.7864 S   0  0  0  0  0  0  0  0  0  0  0  0
  -11.1639   -8.0004    2.1208 C   0  0  0  0  0  0  0  0  0  0  0  0
   -9.7823   -7.6947    1.5787 C   0  0  0  0  0  0  0  0  0  0  0  0
  -10.3702   -6.2097    4.6902 C   0  0  0  0  0  0  0  0  0  0  0  0
   -9.5881   -5.3437    5.4259 C   0  0  0  0  0  0  0  0  0  0  0  0
  -11.3287   -5.6683    3.9073 F   0  0  0  0  0  0  0  0  0  0  0  0
   -7.5008   -5.0168    8.3725 C   0  0  0  0  0  0  0  0  0  0  0  0
   -8.2539   -6.1663    9.4477 S   0  0  0  0  0  0  0  0  0  0  0  0
   -7.0452   -3.6162    4.9349 C   0  0  0  0  0  0  0  0  0  0  0  0
   -6.2262   -2.5866    4.5875 C   0  0  0  0  0  0  0  0  0  0  0  0
   -5.4025   -1.8927    5.9715 S   0  0  0  0  0  0  0  0  0  0  0  0
   -5.9763   -2.0418    3.2939 C   0  0  0  0  0  0  0  0  0  0  0  0
   -5.0149   -1.1327    2.9731 C   0  0  0  0  0  0  0  0  0  0  0  0
   -5.0026   -0.7703    1.6040 C   0  0  0  0  0  0  0  0  0  0  0  0
   -4.1140    0.1021    0.9511 C   0  0  0  0  0  0  0  0  0  0  0  0
   -2.9523    0.6408    1.6727 C   0  0  0  0  0  0  0  0  0  0  0  0
   -3.0606    1.2539    2.9183 C   0  0  0  0  0  0  0  0  0  0  0  0
   -1.9390    1.5361    3.6753 C   0  0  0  0  0  0  0  0  0  0  0  0
   -0.6671    1.2178    3.2100 C   0  0  0  0  0  0  0  0  0  0  0  0
    0.8115    1.3716    4.1524 S   0  0  0  0  0  0  0  0  0  0  0  0
    0.1823    1.2868    5.8736 C   0  0  0  0  0  0  0  0  0  0  0  0
    1.3400    0.9620    6.7975 C   0  0  0  0  0  0  0  0  0  0  0  0
   -0.5666    0.7105    1.9146 C   0  0  0  0  0  0  0  0  0  0  0  0
    0.6545    0.4475    1.4044 F   0  0  0  0  0  0  0  0  0  0  0  0
   -1.6757    0.4117    1.1576 C   0  0  0  0  0  0  0  0  0  0  0  0
   -4.2934    0.2515   -0.4153 C   0  0  0  0  0  0  0  0  0  0  0  0
   -5.2545   -0.4773   -1.1599 C   0  0  0  0  0  0  0  0  0  0  0  0
   -6.1251   -1.3669   -0.5084 C   0  0  0  0  0  0  0  0  0  0  0  0
   -7.0584   -2.1943   -1.2834 C   0  0  0  0  0  0  0  0  0  0  0  0
   -7.9059   -1.6296   -2.2354 C   0  0  0  0  0  0  0  0  0  0  0  0
   -8.6967   -2.4290   -3.0341 C   0  0  0  0  0  0  0  0  0  0  0  0
   -8.6786   -3.8152   -2.9082 C   0  0  0  0  0  0  0  0  0  0  0  0
   -9.6783   -4.7785   -4.0102 S   0  0  0  0  0  0  0  0  0  0  0  0
   -8.4849   -6.0390   -4.6006 C   0  0  0  0  0  0  0  0  0  0  0  0
   -7.2906   -5.4106   -5.2913 C   0  0  0  0  0  0  0  0  0  0  0  0
   -7.8842   -4.3604   -1.9050 C   0  0  0  0  0  0  0  0  0  0  0  0
   -7.0720   -3.5752   -1.1131 C   0  0  0  0  0  0  0  0  0  0  0  0
   -7.8723   -5.6932   -1.6869 F   0  0  0  0  0  0  0  0  0  0  0  0
   -5.9866   -1.4761    0.8670 C   0  0  0  0  0  0  0  0  0  0  0  0
   -6.9284   -2.5200    1.9036 S   0  0  0  0  0  0  0  0  0  0  0  0
   -5.0832   -0.2975   -2.5595 C   0  0  0  0  0  0  0  0  0  0  0  0
   -4.0801    0.5641   -2.8769 C   0  0  0  0  0  0  0  0  0  0  0  0
   -3.3200    1.2564   -1.4535 S   0  0  0  0  0  0  0  0  0  0  0  0
   -3.3843    0.7177   -4.1218 C   0  0  0  0  0  0  0  0  0  0  0  0
   -3.0900   -0.3035   -4.9752 C   0  0  0  0  0  0  0  0  0  0  0  0
   -1.9710   -0.0365   -5.8060 C   0  0  0  0  0  0  0  0  0  0  0  0
   -1.2373   -0.9941   -6.5315 C   0  0  0  0  0  0  0  0  0  0  0  0
   -1.8197   -2.3237   -6.7513 C   0  0  0  0  0  0  0  0  0  0  0  0
   -3.0961   -2.4260   -7.3015 C   0  0  0  0  0  0  0  0  0  0  0  0
   -3.7063   -3.6518   -7.4759 C   0  0  0  0  0  0  0  0  0  0  0  0
   -3.0623   -4.8250   -7.0993 C   0  0  0  0  0  0  0  0  0  0  0  0
   -3.7651   -6.4388   -7.2151 S   0  0  0  0  0  0  0  0  0  0  0  0
   -5.0180   -6.2716   -8.5352 C   0  0  0  0  0  0  0  0  0  0  0  0
   -4.3923   -5.9799   -9.8850 C   0  0  0  0  0  0  0  0  0  0  0  0
   -1.7870   -4.7084   -6.5453 C   0  0  0  0  0  0  0  0  0  0  0  0
   -1.1435   -5.8230   -6.1437 F   0  0  0  0  0  0  0  0  0  0  0  0
   -1.1625   -3.4922   -6.3749 C   0  0  0  0  0  0  0  0  0  0  0  0
    0.0569   -0.6336   -6.8704 C   0  0  0  0  0  0  0  0  0  0  0  0
    0.5535    0.6840   -6.6970 C   0  0  0  0  0  0  0  0  0  0  0  0
   -0.2472    1.6878   -6.1255 C   0  0  0  0  0  0  0  0  0  0  0  0
    0.2388    3.0673   -6.0135 C   0  0  0  0  0  0  0  0  0  0  0  0
    0.6831    3.7366   -7.1545 C   0  0  0  0  0  0  0  0  0  0  0  0
    1.0748    5.0532   -7.0865 C   0  0  0  0  0  0  0  0  0  0  0  0
    1.0730    5.7578   -5.8794 C   0  0  0  0  0  0  0  0  0  0  0  0
    1.6463    7.4252   -5.9785 S   0  0  0  0  0  0  0  0  0  0  0  0
    1.0218    8.2989   -4.5027 C   0  0  0  0  0  0  0  0  0  0  0  0
   -0.4907    8.3904   -4.4849 C   0  0  0  0  0  0  0  0  0  0  0  0
    0.6787    5.0578   -4.7448 C   0  0  0  0  0  0  0  0  0  0  0  0
    0.2512    3.7463   -4.8024 C   0  0  0  0  0  0  0  0  0  0  0  0
    0.6981    5.6346   -3.5196 F   0  0  0  0  0  0  0  0  0  0  0  0
   -1.4572    1.2662   -5.5975 C   0  0  0  0  0  0  0  0  0  0  0  0
   -2.4258    2.1471   -4.4414 S   0  0  0  0  0  0  0  0  0  0  0  0
    1.9612    0.7496   -6.8383 C   0  0  0  0  0  0  0  0  0  0  0  0
    2.5433   -0.4729   -7.0235 C   0  0  0  0  0  0  0  0  0  0  0  0
    1.3453   -1.7248   -7.3203 S   0  0  0  0  0  0  0  0  0  0  0  0
    3.8517   -0.8335   -6.5694 C   0  0  0  0  0  0  0  0  0  0  0  0
    4.7618    0.0101   -5.9970 C   0  0  0  0  0  0  0  0  0  0  0  0
    5.6348   -0.6384   -5.0869 C   0  0  0  0  0  0  0  0  0  0  0  0
    6.4549   -0.0284   -4.1243 C   0  0  0  0  0  0  0  0  0  0  0  0
    6.7263    1.4134   -4.1534 C   0  0  0  0  0  0  0  0  0  0  0  0
    7.2272    2.0216   -5.3029 C   0  0  0  0  0  0  0  0  0  0  0  0
    7.5316    3.3654   -5.3074 C   0  0  0  0  0  0  0  0  0  0  0  0
    7.3269    4.1589   -4.1797 C   0  0  0  0  0  0  0  0  0  0  0  0
    7.7181    5.8808   -4.3161 S   0  0  0  0  0  0  0  0  0  0  0  0
    8.4591    6.3016   -2.6995 C   0  0  0  0  0  0  0  0  0  0  0  0
    9.6621    5.4359   -2.3845 C   0  0  0  0  0  0  0  0  0  0  0  0
    6.7768    3.5481   -3.0579 C   0  0  0  0  0  0  0  0  0  0  0  0
    6.4965    4.2646   -1.9468 F   0  0  0  0  0  0  0  0  0  0  0  0
    6.4942    2.1986   -3.0295 C   0  0  0  0  0  0  0  0  0  0  0  0
    6.9091   -0.8415   -3.0968 C   0  0  0  0  0  0  0  0  0  0  0  0
    6.6289   -2.2269   -3.0070 C   0  0  0  0  0  0  0  0  0  0  0  0
    5.8938   -2.8511   -4.0232 C   0  0  0  0  0  0  0  0  0  0  0  0
    5.5199   -4.2734   -4.0038 C   0  0  0  0  0  0  0  0  0  0  0  0
    4.7655   -4.8070   -2.9633 C   0  0  0  0  0  0  0  0  0  0  0  0
    4.3213   -6.1133   -3.0137 C   0  0  0  0  0  0  0  0  0  0  0  0
    4.6189   -6.9271   -4.1006 C   0  0  0  0  0  0  0  0  0  0  0  0
    4.0477   -8.5957   -4.2391 S   0  0  0  0  0  0  0  0  0  0  0  0
    2.3095   -8.4346   -3.6863 C   0  0  0  0  0  0  0  0  0  0  0  0
    1.5296   -7.4609   -4.5463 C   0  0  0  0  0  0  0  0  0  0  0  0
    5.4110   -6.3933   -5.1145 C   0  0  0  0  0  0  0  0  0  0  0  0
    5.8479   -5.0856   -5.0846 C   0  0  0  0  0  0  0  0  0  0  0  0
    5.7469   -7.1579   -6.1689 F   0  0  0  0  0  0  0  0  0  0  0  0
    5.3983   -2.0329   -5.0265 C   0  0  0  0  0  0  0  0  0  0  0  0
    4.1775   -2.5171   -6.1759 S   0  0  0  0  0  0  0  0  0  0  0  0
    7.0821   -2.7787   -1.7732 C   0  0  0  0  0  0  0  0  0  0  0  0
    7.6462   -1.8675   -0.9433 C   0  0  0  0  0  0  0  0  0  0  0  0
    7.7905   -0.2916   -1.6985 S   0  0  0  0  0  0  0  0  0  0  0  0
    8.0660   -2.0599    0.4459 C   0  0  0  0  0  0  0  0  0  0  0  0
    9.0003   -3.0409    0.7483 C   0  0  0  0  0  0  0  0  0  0  0  0
    9.4186   -3.2541    2.0539 C   0  0  0  0  0  0  0  0  0  0  0  0
   10.4384   -4.3210    2.3524 C   0  0  0  0  0  0  0  0  0  0  0  0
   10.2804   -5.4513    1.4499 N   0  0  0  0  0  0  0  0  0  0  0  0
    8.8957   -2.4570    3.0608 C   0  0  0  0  0  0  0  0  0  0  0  0
    7.9559   -1.4818    2.7716 C   0  0  0  0  0  0  0  0  0  0  0  0
    7.5148   -1.2783    1.4748 C   0  0  0  0  0  0  0  0  0  0  0  0
    6.4579   -0.2637    1.1309 C   0  0  0  0  0  0  0  0  0  0  0  0
    5.7893    0.3443    2.2568 N   0  0  0  0  0  0  0  0  0  0  0  0
    4.8991    1.3499    1.9868 C   0  0  0  0  0  0  0  0  0  0  0  0
    4.1647    2.0846    2.8655 C   0  0  0  0  0  0  0  0  0  0  0  0
    3.3937    3.1071    2.2455 C   0  0  0  0  0  0  0  0  0  0  0  0
    2.5820    4.0836    2.8472 C   0  0  0  0  0  0  0  0  0  0  0  0
    2.5255    4.2456    4.3030 C   0  0  0  0  0  0  0  0  0  0  0  0
    3.6960    4.2435    5.0619 C   0  0  0  0  0  0  0  0  0  0  0  0
    3.6538    4.4137    6.4298 C   0  0  0  0  0  0  0  0  0  0  0  0
    2.4447    4.5862    7.0950 C   0  0  0  0  0  0  0  0  0  0  0  0
    2.4533    4.7369    8.8650 S   0  0  0  0  0  0  0  0  0  0  0  0
    1.5137    6.2901    9.1060 C   0  0  0  0  0  0  0  0  0  0  0  0
    2.2028    7.4690    8.4488 C   0  0  0  0  0  0  0  0  0  0  0  0
    1.2845    4.5802    6.3302 C   0  0  0  0  0  0  0  0  0  0  0  0
    0.0737    4.7001    6.9295 F   0  0  0  0  0  0  0  0  0  0  0  0
    1.3118    4.4303    4.9601 C   0  0  0  0  0  0  0  0  0  0  0  0
    1.8814    4.9292    1.9924 C   0  0  0  0  0  0  0  0  0  0  0  0
    2.0084    4.8922    0.5856 C   0  0  0  0  0  0  0  0  0  0  0  0
    2.8726    3.9649   -0.0138 C   0  0  0  0  0  0  0  0  0  0  0  0
    3.1162    3.9468   -1.4624 C   0  0  0  0  0  0  0  0  0  0  0  0
    3.0043    2.7706   -2.2020 C   0  0  0  0  0  0  0  0  0  0  0  0
    3.2918    2.7585   -3.5485 C   0  0  0  0  0  0  0  0  0  0  0  0
    3.7065    3.9114   -4.2184 C   0  0  0  0  0  0  0  0  0  0  0  0
    4.0587    3.7026   -5.9350 S   0  0  0  0  0  0  0  0  0  0  0  0
    4.7258    5.2849   -6.5689 C   0  0  0  0  0  0  0  0  0  0  0  0
    5.1361    5.0733   -8.0122 C   0  0  0  0  0  0  0  0  0  0  0  0
    3.7943    5.0816   -3.4730 C   0  0  0  0  0  0  0  0  0  0  0  0
    3.5063    5.1048   -2.1223 C   0  0  0  0  0  0  0  0  0  0  0  0
    4.1655    6.2540   -4.0344 F   0  0  0  0  0  0  0  0  0  0  0  0
    3.5203    3.0852    0.8359 C   0  0  0  0  0  0  0  0  0  0  0  0
    4.6543    1.8633    0.3266 S   0  0  0  0  0  0  0  0  0  0  0  0
    1.1885    5.8714   -0.0525 C   0  0  0  0  0  0  0  0  0  0  0  0
    0.5041    6.6325    0.8218 C   0  0  0  0  0  0  0  0  0  0  0  0
    0.7967    6.2104    2.4774 S   0  0  0  0  0  0  0  0  0  0  0  0
   -7.6307   -5.8705   11.7789 H   0  0  0  0  0  0  0  0  0  0  0  0
   -6.0886   -3.8504   11.1999 H   0  0  0  0  0  0  0  0  0  0  0  0
   -3.8814   -3.7430   10.0384 H   0  0  0  0  0  0  0  0  0  0  0  0
   -2.2452   -2.1846   11.0084 H   0  0  0  0  0  0  0  0  0  0  0  0
   -1.7250    1.5554    8.7459 H   0  0  0  0  0  0  0  0  0  0  0  0
   -2.5306    2.6621    9.8879 H   0  0  0  0  0  0  0  0  0  0  0  0
    0.4539    1.9721    9.9536 H   0  0  0  0  0  0  0  0  0  0  0  0
   -0.3729    3.1058   11.0191 H   0  0  0  0  0  0  0  0  0  0  0  0
   -0.2288    3.4617    9.2951 H   0  0  0  0  0  0  0  0  0  0  0  0
   -5.9342   -0.4188    8.2832 H   0  0  0  0  0  0  0  0  0  0  0  0
   -7.7059   -7.6268    7.0504 H   0  0  0  0  0  0  0  0  0  0  0  0
   -9.0888   -9.1420    5.6946 H   0  0  0  0  0  0  0  0  0  0  0  0
  -11.7919   -7.1132    2.1617 H   0  0  0  0  0  0  0  0  0  0  0  0
  -11.6625   -8.7608    1.5198 H   0  0  0  0  0  0  0  0  0  0  0  0
   -9.2875   -6.9331    2.1789 H   0  0  0  0  0  0  0  0  0  0  0  0
   -9.8615   -7.3256    0.5582 H   0  0  0  0  0  0  0  0  0  0  0  0
   -9.1638   -8.5898    1.5791 H   0  0  0  0  0  0  0  0  0  0  0  0
   -9.7735   -4.2832    5.3493 H   0  0  0  0  0  0  0  0  0  0  0  0
   -7.6108   -4.1730    4.2097 H   0  0  0  0  0  0  0  0  0  0  0  0
   -4.3222   -0.7513    3.7009 H   0  0  0  0  0  0  0  0  0  0  0  0
   -4.0349    1.5141    3.3033 H   0  0  0  0  0  0  0  0  0  0  0  0
   -2.0600    1.9931    4.6444 H   0  0  0  0  0  0  0  0  0  0  0  0
   -0.2634    2.2461    6.1325 H   0  0  0  0  0  0  0  0  0  0  0  0
   -0.5759    0.5038    5.9015 H   0  0  0  0  0  0  0  0  0  0  0  0
    0.9832    0.8776    7.8210 H   0  0  0  0  0  0  0  0  0  0  0  0
    2.0935    1.7456    6.7572 H   0  0  0  0  0  0  0  0  0  0  0  0
    1.8026    0.0205    6.5099 H   0  0  0  0  0  0  0  0  0  0  0  0
   -1.5366   -0.0466    0.1915 H   0  0  0  0  0  0  0  0  0  0  0  0
   -7.9396   -0.5566   -2.3487 H   0  0  0  0  0  0  0  0  0  0  0  0
   -9.3373   -1.9914   -3.7841 H   0  0  0  0  0  0  0  0  0  0  0  0
   -9.0716   -6.6386   -5.2960 H   0  0  0  0  0  0  0  0  0  0  0  0
   -8.1859   -6.6622   -3.7609 H   0  0  0  0  0  0  0  0  0  0  0  0
   -6.6326   -6.1912   -5.6686 H   0  0  0  0  0  0  0  0  0  0  0  0
   -7.6174   -4.7882   -6.1223 H   0  0  0  0  0  0  0  0  0  0  0  0
   -6.7225   -4.7911   -4.5988 H   0  0  0  0  0  0  0  0  0  0  0  0
   -6.4428   -4.0547   -0.3798 H   0  0  0  0  0  0  0  0  0  0  0  0
   -5.6589   -0.8232   -3.2992 H   0  0  0  0  0  0  0  0  0  0  0  0
   -3.5590   -1.2691   -4.9131 H   0  0  0  0  0  0  0  0  0  0  0  0
   -3.6161   -1.5283   -7.6014 H   0  0  0  0  0  0  0  0  0  0  0  0
   -4.6988   -3.6868   -7.8957 H   0  0  0  0  0  0  0  0  0  0  0  0
   -5.5131   -7.2428   -8.5372 H   0  0  0  0  0  0  0  0  0  0  0  0
   -5.7431   -5.5139   -8.2408 H   0  0  0  0  0  0  0  0  0  0  0  0
   -5.1662   -5.9320  -10.6487 H   0  0  0  0  0  0  0  0  0  0  0  0
   -3.8588   -5.0315   -9.8705 H   0  0  0  0  0  0  0  0  0  0  0  0
   -3.6889   -6.7654  -10.1506 H   0  0  0  0  0  0  0  0  0  0  0  0
   -0.1821   -3.4668   -5.9275 H   0  0  0  0  0  0  0  0  0  0  0  0
    0.6945    3.2205   -8.1023 H   0  0  0  0  0  0  0  0  0  0  0  0
    1.3963    5.5744   -7.9752 H   0  0  0  0  0  0  0  0  0  0  0  0
    1.4200    7.8185   -3.6124 H   0  0  0  0  0  0  0  0  0  0  0  0
    1.4730    9.2872   -4.5995 H   0  0  0  0  0  0  0  0  0  0  0  0
   -0.8096    8.9926   -3.6365 H   0  0  0  0  0  0  0  0  0  0  0  0
   -0.9422    7.4051   -4.3929 H   0  0  0  0  0  0  0  0  0  0  0  0
   -0.8547    8.8541   -5.3996 H   0  0  0  0  0  0  0  0  0  0  0  0
   -0.0314    3.2627   -3.8809 H   0  0  0  0  0  0  0  0  0  0  0  0
    2.5184    1.6491   -6.6513 H   0  0  0  0  0  0  0  0  0  0  0  0
    4.7394    1.0774   -6.1211 H   0  0  0  0  0  0  0  0  0  0  0  0
    7.4037    1.4270   -6.1863 H   0  0  0  0  0  0  0  0  0  0  0  0
    7.9414    3.8315   -6.1903 H   0  0  0  0  0  0  0  0  0  0  0  0
    8.7456    7.3463   -2.8229 H   0  0  0  0  0  0  0  0  0  0  0  0
    7.6927    6.2322   -1.9307 H   0  0  0  0  0  0  0  0  0  0  0  0
   10.1228    5.7736   -1.4583 H   0  0  0  0  0  0  0  0  0  0  0  0
   10.3978    5.4978   -3.1841 H   0  0  0  0  0  0  0  0  0  0  0  0
    9.3704    4.3942   -2.2623 H   0  0  0  0  0  0  0  0  0  0  0  0
    6.0535    1.7873   -2.1355 H   0  0  0  0  0  0  0  0  0  0  0  0
    4.4993   -4.1833   -2.1231 H   0  0  0  0  0  0  0  0  0  0  0  0
    3.7283   -6.5042   -2.2015 H   0  0  0  0  0  0  0  0  0  0  0  0
    2.2972   -8.1545   -2.6335 H   0  0  0  0  0  0  0  0  0  0  0  0
    1.9184   -9.4469   -3.7838 H   0  0  0  0  0  0  0  0  0  0  0  0
    0.4836   -7.4516   -4.2483 H   0  0  0  0  0  0  0  0  0  0  0  0
    1.5842   -7.7502   -5.5927 H   0  0  0  0  0  0  0  0  0  0  0  0
    1.9258   -6.4519   -4.4476 H   0  0  0  0  0  0  0  0  0  0  0  0
    6.4370   -4.7070   -5.9054 H   0  0  0  0  0  0  0  0  0  0  0  0
    6.9346   -3.8084   -1.5004 H   0  0  0  0  0  0  0  0  0  0  0  0
    9.4171   -3.6488   -0.0394 H   0  0  0  0  0  0  0  0  0  0  0  0
   10.3712   -4.5950    3.4197 H   0  0  0  0  0  0  0  0  0  0  0  0
   11.4398   -3.9073    2.1825 H   0  0  0  0  0  0  0  0  0  0  0  0
   10.9944   -6.1485    1.6275 H   0  0  0  0  0  0  0  0  0  0  0  0
    9.3748   -5.8872    1.5898 H   0  0  0  0  0  0  0  0  0  0  0  0
    9.2213   -2.5968    4.0817 H   0  0  0  0  0  0  0  0  0  0  0  0
    7.5685   -0.8681    3.5706 H   0  0  0  0  0  0  0  0  0  0  0  0
    6.9311    0.5586    0.5802 H   0  0  0  0  0  0  0  0  0  0  0  0
    5.7310   -0.7340    0.4453 H   0  0  0  0  0  0  0  0  0  0  0  0
    5.5177   -0.2810    3.0028 H   0  0  0  0  0  0  0  0  0  0  0  0
    4.1556    1.8940    3.9226 H   0  0  0  0  0  0  0  0  0  0  0  0
    4.6488    4.1364    4.5672 H   0  0  0  0  0  0  0  0  0  0  0  0
    4.5633    4.4170    7.0105 H   0  0  0  0  0  0  0  0  0  0  0  0
    1.4763    6.4049   10.1890 H   0  0  0  0  0  0  0  0  0  0  0  0
    0.5027    6.1507    8.7284 H   0  0  0  0  0  0  0  0  0  0  0  0
    3.2178    7.5758    8.8256 H   0  0  0  0  0  0  0  0  0  0  0  0
    2.2469    7.3371    7.3687 H   0  0  0  0  0  0  0  0  0  0  0  0
    1.6523    8.3831    8.6628 H   0  0  0  0  0  0  0  0  0  0  0  0
    0.3792    4.4225    4.4185 H   0  0  0  0  0  0  0  0  0  0  0  0
    2.6783    1.8628   -1.7181 H   0  0  0  0  0  0  0  0  0  0  0  0
    3.2050    1.8426   -4.1138 H   0  0  0  0  0  0  0  0  0  0  0  0
    5.5803    5.5612   -5.9543 H   0  0  0  0  0  0  0  0  0  0  0  0
    3.9457    6.0397   -6.4893 H   0  0  0  0  0  0  0  0  0  0  0  0
    4.2791    4.7796   -8.6148 H   0  0  0  0  0  0  0  0  0  0  0  0
    5.8918    4.2941   -8.0849 H   0  0  0  0  0  0  0  0  0  0  0  0
    5.5455    5.9982   -8.4107 H   0  0  0  0  0  0  0  0  0  0  0  0
    3.6186    6.0363   -1.5893 H   0  0  0  0  0  0  0  0  0  0  0  0
    1.1137    5.9717   -1.1190 H   0  0  0  0  0  0  0  0  0  0  0  0
   -0.1807    7.4313    0.6144 H   0  0  0  0  0  0  0  0  0  0  0  0
  1  2  2  0  0  0  0
  2  3  1  0  0  0  0
  3  4  2  0  0  0  0
  4  5  1  0  0  0  0
  5  6  2  0  0  0  0
  6  7  1  0  0  0  0
  7  8  2  0  0  0  0
  8  9  1  0  0  0  0
  9 10  1  0  0  0  0
 10 11  1  0  0  0  0
  8 12  1  0  0  0  0
 12 13  1  0  0  0  0
 12 14  2  0  0  0  0
  4 15  1  0  0  0  0
 15 16  2  0  0  0  0
 16 17  1  0  0  0  0
 17 18  1  0  0  0  0
 18 19  2  0  0  0  0
 19 20  1  0  0  0  0
 20 21  2  0  0  0  0
 21 22  1  0  0  0  0
 22 23  1  0  0  0  0
 23 24  1  0  0  0  0
 21 25  1  0  0  0  0
 25 26  2  0  0  0  0
 25 27  1  0  0  0  0
 17 28  2  0  0  0  0
 28 29  1  0  0  0  0
 16 30  1  0  0  0  0
 30 31  2  0  0  0  0
 31 32  1  0  0  0  0
 31 33  1  0  0  0  0
 33 34  2  0  0  0  0
 34 35  1  0  0  0  0
 35 36  2  0  0  0  0
 36 37  1  0  0  0  0
 37 38  2  0  0  0  0
 38 39  1  0  0  0  0
 39 40  2  0  0  0  0
 40 41  1  0  0  0  0
 41 42  1  0  0  0  0
 42 43  1  0  0  0  0
 40 44  1  0  0  0  0
 44 45  1  0  0  0  0
 44 46  2  0  0  0  0
 36 47  1  0  0  0  0
 47 48  2  0  0  0  0
 48 49  1  0  0  0  0
 49 50  1  0  0  0  0
 50 51  2  0  0  0  0
 51 52  1  0  0  0  0
 52 53  2  0  0  0  0
 53 54  1  0  0  0  0
 54 55  1  0  0  0  0
 55 56  1  0  0  0  0
 53 57  1  0  0  0  0
 57 58  2  0  0  0  0
 57 59  1  0  0  0  0
 49 60  2  0  0  0  0
 60 61  1  0  0  0  0
 48 62  1  0  0  0  0
 62 63  2  0  0  0  0
 63 64  1  0  0  0  0
 63 65  1  0  0  0  0
 65 66  2  0  0  0  0
 66 67  1  0  0  0  0
 67 68  2  0  0  0  0
 68 69  1  0  0  0  0
 69 70  2  0  0  0  0
 70 71  1  0  0  0  0
 71 72  2  0  0  0  0
 72 73  1  0  0  0  0
 73 74  1  0  0  0  0
 74 75  1  0  0  0  0
 72 76  1  0  0  0  0
 76 77  1  0  0  0  0
 76 78  2  0  0  0  0
 68 79  1  0  0  0  0
 79 80  2  0  0  0  0
 80 81  1  0  0  0  0
 81 82  1  0  0  0  0
 82 83  2  0  0  0  0
 83 84  1  0  0  0  0
 84 85  2  0  0  0  0
 85 86  1  0  0  0  0
 86 87  1  0  0  0  0
 87 88  1  0  0  0  0
 85 89  1  0  0  0  0
 89 90  2  0  0  0  0
 89 91  1  0  0  0  0
 81 92  2  0  0  0  0
 92 93  1  0  0  0  0
 80 94  1  0  0  0  0
 94 95  2  0  0  0  0
 95 96  1  0  0  0  0
 95 97  1  0  0  0  0
 97 98  2  0  0  0  0
 98 99  1  0  0  0  0
 99100  2  0  0  0  0
100101  1  0  0  0  0
101102  2  0  0  0  0
102103  1  0  0  0  0
103104  2  0  0  0  0
104105  1  0  0  0  0
105106  1  0  0  0  0
106107  1  0  0  0  0
104108  1  0  0  0  0
108109  1  0  0  0  0
108110  2  0  0  0  0
100111  1  0  0  0  0
111112  2  0  0  0  0
112113  1  0  0  0  0
113114  1  0  0  0  0
114115  2  0  0  0  0
115116  1  0  0  0  0
116117  2  0  0  0  0
117118  1  0  0  0  0
118119  1  0  0  0  0
119120  1  0  0  0  0
117121  1  0  0  0  0
121122  2  0  0  0  0
121123  1  0  0  0  0
113124  2  0  0  0  0
124125  1  0  0  0  0
112126  1  0  0  0  0
126127  2  0  0  0  0
127128  1  0  0  0  0
127129  1  0  0  0  0
129130  2  0  0  0  0
130131  1  0  0  0  0
131132  1  0  0  0  0
132133  1  0  0  0  0
131134  2  0  0  0  0
134135  1  0  0  0  0
135136  2  0  0  0  0
136137  1  0  0  0  0
137138  1  0  0  0  0
138139  1  0  0  0  0
139140  2  0  0  0  0
140141  1  0  0  0  0
141142  2  0  0  0  0
142143  1  0  0  0  0
143144  2  0  0  0  0
144145  1  0  0  0  0
145146  2  0  0  0  0
146147  1  0  0  0  0
147148  1  0  0  0  0
148149  1  0  0  0  0
146150  1  0  0  0  0
150151  1  0  0  0  0
150152  2  0  0  0  0
142153  1  0  0  0  0
153154  2  0  0  0  0
154155  1  0  0  0  0
155156  1  0  0  0  0
156157  2  0  0  0  0
157158  1  0  0  0  0
158159  2  0  0  0  0
159160  1  0  0  0  0
160161  1  0  0  0  0
161162  1  0  0  0  0
159163  1  0  0  0  0
163164  2  0  0  0  0
163165  1  0  0  0  0
155166  2  0  0  0  0
166167  1  0  0  0  0
154168  1  0  0  0  0
168169  2  0  0  0  0
169170  1  0  0  0  0
 29  1  1  0  0  0  0
 61 33  1  0  0  0  0
 93 65  1  0  0  0  0
125 97  1  0  0  0  0
136129  1  0  0  0  0
167139  1  0  0  0  0
 28  3  1  0  0  0  0
 60 35  1  0  0  0  0
 92 67  1  0  0  0  0
124 99  1  0  0  0  0
166141  1  0  0  0  0
 14  5  1  0  0  0  0
 32 15  1  0  0  0  0
 46 37  1  0  0  0  0
 64 47  1  0  0  0  0
 78 69  1  0  0  0  0
 96 79  1  0  0  0  0
110101  1  0  0  0  0
128111  1  0  0  0  0
152143  1  0  0  0  0
170153  1  0  0  0  0
 26 18  1  0  0  0  0
 58 50  1  0  0  0  0
 90 82  1  0  0  0  0
122114  1  0  0  0  0
164156  1  0  0  0  0
  1171  1  0  0  0  0
  2172  1  0  0  0  0
  6173  1  0  0  0  0
  7174  1  0  0  0  0
 10175  1  0  0  0  0
 10176  1  0  0  0  0
 11177  1  0  0  0  0
 11178  1  0  0  0  0
 11179  1  0  0  0  0
 14180  1  0  0  0  0
 19181  1  0  0  0  0
 20182  1  0  0  0  0
 23183  1  0  0  0  0
 23184  1  0  0  0  0
 24185  1  0  0  0  0
 24186  1  0  0  0  0
 24187  1  0  0  0  0
 26188  1  0  0  0  0
 30189  1  0  0  0  0
 34190  1  0  0  0  0
 38191  1  0  0  0  0
 39192  1  0  0  0  0
 42193  1  0  0  0  0
 42194  1  0  0  0  0
 43195  1  0  0  0  0
 43196  1  0  0  0  0
 43197  1  0  0  0  0
 46198  1  0  0  0  0
 51199  1  0  0  0  0
 52200  1  0  0  0  0
 55201  1  0  0  0  0
 55202  1  0  0  0  0
 56203  1  0  0  0  0
 56204  1  0  0  0  0
 56205  1  0  0  0  0
 58206  1  0  0  0  0
 62207  1  0  0  0  0
 66208  1  0  0  0  0
 70209  1  0  0  0  0
 71210  1  0  0  0  0
 74211  1  0  0  0  0
 74212  1  0  0  0  0
 75213  1  0  0  0  0
 75214  1  0  0  0  0
 75215  1  0  0  0  0
 78216  1  0  0  0  0
 83217  1  0  0  0  0
 84218  1  0  0  0  0
 87219  1  0  0  0  0
 87220  1  0  0  0  0
 88221  1  0  0  0  0
 88222  1  0  0  0  0
 88223  1  0  0  0  0
 90224  1  0  0  0  0
 94225  1  0  0  0  0
 98226  1  0  0  0  0
102227  1  0  0  0  0
103228  1  0  0  0  0
106229  1  0  0  0  0
106230  1  0  0  0  0
107231  1  0  0  0  0
107232  1  0  0  0  0
107233  1  0  0  0  0
110234  1  0  0  0  0
115235  1  0  0  0  0
116236  1  0  0  0  0
119237  1  0  0  0  0
119238  1  0  0  0  0
120239  1  0  0  0  0
120240  1  0  0  0  0
120241  1  0  0  0  0
122242  1  0  0  0  0
126243  1  0  0  0  0
130244  1  0  0  0  0
132245  1  0  0  0  0
132246  1  0  0  0  0
133247  1  0  0  0  0
133248  1  0  0  0  0
134249  1  0  0  0  0
135250  1  0  0  0  0
137251  1  0  0  0  0
137252  1  0  0  0  0
138253  1  0  0  0  0
140254  1  0  0  0  0
144255  1  0  0  0  0
145256  1  0  0  0  0
148257  1  0  0  0  0
148258  1  0  0  0  0
149259  1  0  0  0  0
149260  1  0  0  0  0
149261  1  0  0  0  0
152262  1  0  0  0  0
157263  1  0  0  0  0
158264  1  0  0  0  0
161265  1  0  0  0  0
161266  1  0  0  0  0
162267  1  0  0  0  0
162268  1  0  0  0  0
162269  1  0  0  0  0
164270  1  0  0  0  0
168271  1  0  0  0  0
169272  1  0  0  0  0
M  END
