
  xtb     03012202323D
 energy: -289.668819161402 gnorm: 0.000375052671 xtb: 6.4.1 (unknown)
150161  0     0  0            999 V2000
  -10.0129    2.6938    8.7272 C   0  0  0  0  0  0  0  0  0  0  0  0
   -8.9055    1.9588    9.0552 C   0  0  0  0  0  0  0  0  0  0  0  0
   -8.2915    1.8126   10.3827 C   0  0  0  0  0  0  0  0  0  0  0  0
   -7.2882    1.1704   10.5799 O   0  0  0  0  0  0  0  0  0  0  0  0
   -8.9618    2.4795   11.3269 O   0  0  0  0  0  0  0  0  0  0  0  0
   -8.4302    2.4290   12.6528 C   0  0  0  0  0  0  0  0  0  0  0  0
   -8.8882    3.6645   13.4058 C   0  0  0  0  0  0  0  0  0  0  0  0
   -8.3625    1.3296    7.9067 C   0  0  0  0  0  0  0  0  0  0  0  0
   -9.0648    1.6069    6.7441 C   0  0  0  0  0  0  0  0  0  0  0  0
  -10.4110    2.6398    7.0515 S   0  0  0  0  0  0  0  0  0  0  0  0
   -8.5228    0.9920    5.5939 C   0  0  0  0  0  0  0  0  0  0  0  0
   -9.1381    1.0870    4.2640 C   0  0  0  0  0  0  0  0  0  0  0  0
   -8.7991    0.4711    3.2828 O   0  0  0  0  0  0  0  0  0  0  0  0
  -10.1679    1.9452    4.2950 O   0  0  0  0  0  0  0  0  0  0  0  0
  -10.8600    2.1698    3.0683 C   0  0  0  0  0  0  0  0  0  0  0  0
  -10.1479    3.2119    2.2177 C   0  0  0  0  0  0  0  0  0  0  0  0
   -7.4083    0.2363    5.9188 C   0  0  0  0  0  0  0  0  0  0  0  0
   -7.0288    0.2876    7.6219 S   0  0  0  0  0  0  0  0  0  0  0  0
   -6.5279   -0.4551    5.0216 C   0  0  0  0  0  0  0  0  0  0  0  0
   -5.9717   -1.7128    5.1982 C   0  0  0  0  0  0  0  0  0  0  0  0
   -6.3255   -2.6843    6.2415 C   0  0  0  0  0  0  0  0  0  0  0  0
   -7.2131   -2.5658    7.0495 O   0  0  0  0  0  0  0  0  0  0  0  0
   -5.5302   -3.7604    6.1464 O   0  0  0  0  0  0  0  0  0  0  0  0
   -5.7290   -4.7988    7.1041 C   0  0  0  0  0  0  0  0  0  0  0  0
   -5.0270   -4.4820    8.4167 C   0  0  0  0  0  0  0  0  0  0  0  0
   -5.0527   -2.0021    4.1697 C   0  0  0  0  0  0  0  0  0  0  0  0
   -4.9159   -0.9813    3.2435 C   0  0  0  0  0  0  0  0  0  0  0  0
   -5.9245    0.3599    3.5994 S   0  0  0  0  0  0  0  0  0  0  0  0
   -3.9975   -1.2473    2.2046 C   0  0  0  0  0  0  0  0  0  0  0  0
   -3.8691   -0.2271    1.1616 C   0  0  0  0  0  0  0  0  0  0  0  0
   -4.3559    0.8735    1.2819 O   0  0  0  0  0  0  0  0  0  0  0  0
   -3.2277   -0.6481    0.0653 O   0  0  0  0  0  0  0  0  0  0  0  0
   -3.0603    0.2888   -1.0005 C   0  0  0  0  0  0  0  0  0  0  0  0
   -1.8013    1.1228   -0.8153 C   0  0  0  0  0  0  0  0  0  0  0  0
   -3.4034   -2.4961    2.3699 C   0  0  0  0  0  0  0  0  0  0  0  0
   -4.0355   -3.3350    3.7872 S   0  0  0  0  0  0  0  0  0  0  0  0
   -2.3443   -3.1225    1.6666 C   0  0  0  0  0  0  0  0  0  0  0  0
   -1.3343   -2.3077    0.5010 S   0  0  0  0  0  0  0  0  0  0  0  0
   -0.2505   -3.6620    0.3233 C   0  0  0  0  0  0  0  0  0  0  0  0
   -0.7034   -4.7376    1.0849 C   0  0  0  0  0  0  0  0  0  0  0  0
   -1.8556   -4.4050    1.8505 C   0  0  0  0  0  0  0  0  0  0  0  0
   -2.4035   -5.7293    2.8186 S   0  0  0  0  0  0  0  0  0  0  0  0
   -1.1569   -6.7759    2.1549 C   0  0  0  0  0  0  0  0  0  0  0  0
   -1.0277   -8.1835    2.5517 C   0  0  0  0  0  0  0  0  0  0  0  0
   -0.0919   -8.8599    2.1920 O   0  0  0  0  0  0  0  0  0  0  0  0
   -2.1513   -8.7226    3.4082 C   0  0  0  0  0  0  0  0  0  0  0  0
   -3.3573   -9.0582    2.5279 C   0  0  0  0  0  0  0  0  0  0  0  0
   -0.3608   -6.1025    1.2643 C   0  0  0  0  0  0  0  0  0  0  0  0
    0.6072   -6.6910    0.5702 F   0  0  0  0  0  0  0  0  0  0  0  0
    0.9023   -3.4661   -0.4732 C   0  0  0  0  0  0  0  0  0  0  0  0
    0.8701   -2.1784   -1.6613 S   0  0  0  0  0  0  0  0  0  0  0  0
    2.5491   -2.3554   -2.0574 C   0  0  0  0  0  0  0  0  0  0  0  0
    3.1168   -3.3555   -1.2749 C   0  0  0  0  0  0  0  0  0  0  0  0
    2.1794   -3.9970   -0.4160 C   0  0  0  0  0  0  0  0  0  0  0  0
    2.9352   -5.1834    0.5881 S   0  0  0  0  0  0  0  0  0  0  0  0
    4.5101   -4.8120   -0.0828 C   0  0  0  0  0  0  0  0  0  0  0  0
    5.7255   -5.5259    0.3352 C   0  0  0  0  0  0  0  0  0  0  0  0
    6.7950   -5.3091   -0.1864 O   0  0  0  0  0  0  0  0  0  0  0  0
    5.5451   -6.5175    1.4609 C   0  0  0  0  0  0  0  0  0  0  0  0
    5.5395   -5.7777    2.8010 C   0  0  0  0  0  0  0  0  0  0  0  0
    4.4331   -3.8275   -1.0330 C   0  0  0  0  0  0  0  0  0  0  0  0
    5.5061   -3.2921   -1.6073 F   0  0  0  0  0  0  0  0  0  0  0  0
    3.1502   -1.5129   -3.0262 C   0  0  0  0  0  0  0  0  0  0  0  0
    4.2207   -1.7940   -3.8617 C   0  0  0  0  0  0  0  0  0  0  0  0
    4.7962   -3.1321   -4.1055 C   0  0  0  0  0  0  0  0  0  0  0  0
    4.2424   -4.1766   -3.8606 O   0  0  0  0  0  0  0  0  0  0  0  0
    5.9821   -3.0193   -4.6957 O   0  0  0  0  0  0  0  0  0  0  0  0
    6.6735   -4.2354   -4.9861 C   0  0  0  0  0  0  0  0  0  0  0  0
    7.8962   -3.8960   -5.8159 C   0  0  0  0  0  0  0  0  0  0  0  0
    4.5978   -0.6529   -4.5959 C   0  0  0  0  0  0  0  0  0  0  0  0
    3.7967    0.4591   -4.3614 C   0  0  0  0  0  0  0  0  0  0  0  0
    2.5706    0.1367   -3.2049 S   0  0  0  0  0  0  0  0  0  0  0  0
    4.1447    1.5932   -5.1198 C   0  0  0  0  0  0  0  0  0  0  0  0
    3.3121    2.8069   -5.1209 C   0  0  0  0  0  0  0  0  0  0  0  0
    3.3395    3.6897   -5.9423 O   0  0  0  0  0  0  0  0  0  0  0  0
    2.4588    2.7556   -4.0915 O   0  0  0  0  0  0  0  0  0  0  0  0
    1.4777    3.7822   -3.9688 C   0  0  0  0  0  0  0  0  0  0  0  0
    0.1023    3.2288   -4.3127 C   0  0  0  0  0  0  0  0  0  0  0  0
    5.2551    1.3395   -5.9056 C   0  0  0  0  0  0  0  0  0  0  0  0
    5.8263   -0.3079   -5.7507 S   0  0  0  0  0  0  0  0  0  0  0  0
    5.9587    2.2586   -6.7450 C   0  0  0  0  0  0  0  0  0  0  0  0
    6.2240    3.5937   -6.4965 C   0  0  0  0  0  0  0  0  0  0  0  0
    5.9618    4.3233   -5.2446 C   0  0  0  0  0  0  0  0  0  0  0  0
    5.6768    3.8274   -4.1818 O   0  0  0  0  0  0  0  0  0  0  0  0
    6.1550    5.6326   -5.4345 O   0  0  0  0  0  0  0  0  0  0  0  0
    5.9387    6.4896   -4.3151 C   0  0  0  0  0  0  0  0  0  0  0  0
    4.4571    6.7702   -4.1113 C   0  0  0  0  0  0  0  0  0  0  0  0
    6.9050    4.1786   -7.5852 C   0  0  0  0  0  0  0  0  0  0  0  0
    7.1732    3.2970   -8.6217 C   0  0  0  0  0  0  0  0  0  0  0  0
    6.5772    1.7209   -8.2919 S   0  0  0  0  0  0  0  0  0  0  0  0
    7.8776    3.8911   -9.6978 C   0  0  0  0  0  0  0  0  0  0  0  0
    8.2668    3.1264  -10.8913 C   0  0  0  0  0  0  0  0  0  0  0  0
    8.0152    1.9544  -11.0383 O   0  0  0  0  0  0  0  0  0  0  0  0
    8.9289    3.8723  -11.7790 O   0  0  0  0  0  0  0  0  0  0  0  0
    9.3553    3.2062  -12.9697 C   0  0  0  0  0  0  0  0  0  0  0  0
   10.2273    4.1608  -13.7627 C   0  0  0  0  0  0  0  0  0  0  0  0
    8.1229    5.2141   -9.4429 C   0  0  0  0  0  0  0  0  0  0  0  0
    7.5155    5.7546   -7.9240 S   0  0  0  0  0  0  0  0  0  0  0  0
  -10.6164    3.2715    9.3983 H   0  0  0  0  0  0  0  0  0  0  0  0
   -7.3378    2.3756   12.5925 H   0  0  0  0  0  0  0  0  0  0  0  0
   -8.7942    1.5156   13.1367 H   0  0  0  0  0  0  0  0  0  0  0  0
   -8.5256    4.5619   12.9113 H   0  0  0  0  0  0  0  0  0  0  0  0
   -9.9737    3.7009   13.4400 H   0  0  0  0  0  0  0  0  0  0  0  0
   -8.5011    3.6372   14.4201 H   0  0  0  0  0  0  0  0  0  0  0  0
  -11.8541    2.5114    3.3638 H   0  0  0  0  0  0  0  0  0  0  0  0
  -10.9342    1.2223    2.5245 H   0  0  0  0  0  0  0  0  0  0  0  0
   -9.1674    2.8445    1.9243 H   0  0  0  0  0  0  0  0  0  0  0  0
  -10.0264    4.1347    2.7798 H   0  0  0  0  0  0  0  0  0  0  0  0
  -10.7311    3.4135    1.3238 H   0  0  0  0  0  0  0  0  0  0  0  0
   -5.3129   -5.6937    6.6370 H   0  0  0  0  0  0  0  0  0  0  0  0
   -6.8037   -4.9262    7.2705 H   0  0  0  0  0  0  0  0  0  0  0  0
   -3.9674   -4.3096    8.2435 H   0  0  0  0  0  0  0  0  0  0  0  0
   -5.1450   -5.3152    9.1034 H   0  0  0  0  0  0  0  0  0  0  0  0
   -5.4620   -3.5918    8.8648 H   0  0  0  0  0  0  0  0  0  0  0  0
   -2.9988   -0.3194   -1.9051 H   0  0  0  0  0  0  0  0  0  0  0  0
   -3.9437    0.9342   -1.0384 H   0  0  0  0  0  0  0  0  0  0  0  0
   -1.6996    1.8112   -1.6491 H   0  0  0  0  0  0  0  0  0  0  0  0
   -0.9251    0.4805   -0.7730 H   0  0  0  0  0  0  0  0  0  0  0  0
   -1.8687    1.6959    0.1061 H   0  0  0  0  0  0  0  0  0  0  0  0
   -1.7975   -9.6283    3.9024 H   0  0  0  0  0  0  0  0  0  0  0  0
   -2.4358   -7.9854    4.1610 H   0  0  0  0  0  0  0  0  0  0  0  0
   -3.0757   -9.7805    1.7653 H   0  0  0  0  0  0  0  0  0  0  0  0
   -4.1509   -9.4865    3.1349 H   0  0  0  0  0  0  0  0  0  0  0  0
   -3.7407   -8.1658    2.0390 H   0  0  0  0  0  0  0  0  0  0  0  0
    6.3821   -7.2165    1.4357 H   0  0  0  0  0  0  0  0  0  0  0  0
    4.6105   -7.0667    1.3369 H   0  0  0  0  0  0  0  0  0  0  0  0
    4.7044   -5.0833    2.8573 H   0  0  0  0  0  0  0  0  0  0  0  0
    6.4657   -5.2215    2.9272 H   0  0  0  0  0  0  0  0  0  0  0  0
    5.4490   -6.4917    3.6153 H   0  0  0  0  0  0  0  0  0  0  0  0
    5.9945   -4.9092   -5.5208 H   0  0  0  0  0  0  0  0  0  0  0  0
    6.9520   -4.7084   -4.0378 H   0  0  0  0  0  0  0  0  0  0  0  0
    7.5995   -3.4153   -6.7444 H   0  0  0  0  0  0  0  0  0  0  0  0
    8.4458   -4.8047   -6.0427 H   0  0  0  0  0  0  0  0  0  0  0  0
    8.5410   -3.2175   -5.2646 H   0  0  0  0  0  0  0  0  0  0  0  0
    1.5137    4.1162   -2.9284 H   0  0  0  0  0  0  0  0  0  0  0  0
    1.7435    4.6085   -4.6361 H   0  0  0  0  0  0  0  0  0  0  0  0
    0.0692    2.9271   -5.3569 H   0  0  0  0  0  0  0  0  0  0  0  0
   -0.1132    2.3628   -3.6914 H   0  0  0  0  0  0  0  0  0  0  0  0
   -0.6521    3.9913   -4.1420 H   0  0  0  0  0  0  0  0  0  0  0  0
    6.4869    7.4034   -4.5527 H   0  0  0  0  0  0  0  0  0  0  0  0
    6.3616    6.0188   -3.4211 H   0  0  0  0  0  0  0  0  0  0  0  0
    4.0257    7.1792   -5.0214 H   0  0  0  0  0  0  0  0  0  0  0  0
    4.3260    7.4799   -3.2994 H   0  0  0  0  0  0  0  0  0  0  0  0
    3.9408    5.8467   -3.8625 H   0  0  0  0  0  0  0  0  0  0  0  0
    9.9023    2.2988  -12.6903 H   0  0  0  0  0  0  0  0  0  0  0  0
    8.4696    2.9061  -13.5412 H   0  0  0  0  0  0  0  0  0  0  0  0
   11.0985    4.4455  -13.1790 H   0  0  0  0  0  0  0  0  0  0  0  0
    9.6677    5.0582  -14.0125 H   0  0  0  0  0  0  0  0  0  0  0  0
   10.5552    3.6793  -14.6792 H   0  0  0  0  0  0  0  0  0  0  0  0
    8.6355    5.9011  -10.0862 H   0  0  0  0  0  0  0  0  0  0  0  0
  1  2  2  0  0  0  0
  2  3  1  0  0  0  0
  3  4  2  0  0  0  0
  3  5  1  0  0  0  0
  5  6  1  0  0  0  0
  6  7  1  0  0  0  0
  2  8  1  0  0  0  0
  8  9  2  0  0  0  0
  9 10  1  0  0  0  0
  9 11  1  0  0  0  0
 11 12  1  0  0  0  0
 12 13  2  0  0  0  0
 12 14  1  0  0  0  0
 14 15  1  0  0  0  0
 15 16  1  0  0  0  0
 11 17  2  0  0  0  0
 17 18  1  0  0  0  0
 17 19  1  0  0  0  0
 19 20  2  0  0  0  0
 20 21  1  0  0  0  0
 21 22  2  0  0  0  0
 21 23  1  0  0  0  0
 23 24  1  0  0  0  0
 24 25  1  0  0  0  0
 20 26  1  0  0  0  0
 26 27  2  0  0  0  0
 27 28  1  0  0  0  0
 27 29  1  0  0  0  0
 29 30  1  0  0  0  0
 30 31  2  0  0  0  0
 30 32  1  0  0  0  0
 32 33  1  0  0  0  0
 33 34  1  0  0  0  0
 29 35  2  0  0  0  0
 35 36  1  0  0  0  0
 35 37  1  0  0  0  0
 37 38  1  0  0  0  0
 38 39  1  0  0  0  0
 39 40  2  0  0  0  0
 40 41  1  0  0  0  0
 41 42  1  0  0  0  0
 42 43  1  0  0  0  0
 43 44  1  0  0  0  0
 44 45  2  0  0  0  0
 44 46  1  0  0  0  0
 46 47  1  0  0  0  0
 43 48  2  0  0  0  0
 48 49  1  0  0  0  0
 39 50  1  0  0  0  0
 50 51  1  0  0  0  0
 51 52  1  0  0  0  0
 52 53  2  0  0  0  0
 53 54  1  0  0  0  0
 54 55  1  0  0  0  0
 55 56  1  0  0  0  0
 56 57  1  0  0  0  0
 57 58  2  0  0  0  0
 57 59  1  0  0  0  0
 59 60  1  0  0  0  0
 56 61  2  0  0  0  0
 61 62  1  0  0  0  0
 52 63  1  0  0  0  0
 63 64  2  0  0  0  0
 64 65  1  0  0  0  0
 65 66  2  0  0  0  0
 65 67  1  0  0  0  0
 67 68  1  0  0  0  0
 68 69  1  0  0  0  0
 64 70  1  0  0  0  0
 70 71  2  0  0  0  0
 71 72  1  0  0  0  0
 71 73  1  0  0  0  0
 73 74  1  0  0  0  0
 74 75  2  0  0  0  0
 74 76  1  0  0  0  0
 76 77  1  0  0  0  0
 77 78  1  0  0  0  0
 73 79  2  0  0  0  0
 79 80  1  0  0  0  0
 79 81  1  0  0  0  0
 81 82  2  0  0  0  0
 82 83  1  0  0  0  0
 83 84  2  0  0  0  0
 83 85  1  0  0  0  0
 85 86  1  0  0  0  0
 86 87  1  0  0  0  0
 82 88  1  0  0  0  0
 88 89  2  0  0  0  0
 89 90  1  0  0  0  0
 89 91  1  0  0  0  0
 91 92  1  0  0  0  0
 92 93  2  0  0  0  0
 92 94  1  0  0  0  0
 94 95  1  0  0  0  0
 95 96  1  0  0  0  0
 91 97  2  0  0  0  0
 97 98  1  0  0  0  0
 10  1  1  0  0  0  0
 28 19  1  0  0  0  0
 41 37  2  0  0  0  0
 54 50  2  0  0  0  0
 72 63  1  0  0  0  0
 90 81  1  0  0  0  0
 18  8  1  0  0  0  0
 36 26  1  0  0  0  0
 48 40  1  0  0  0  0
 61 53  1  0  0  0  0
 80 70  1  0  0  0  0
 98 88  1  0  0  0  0
  1 99  1  0  0  0  0
  6100  1  0  0  0  0
  6101  1  0  0  0  0
  7102  1  0  0  0  0
  7103  1  0  0  0  0
  7104  1  0  0  0  0
 15105  1  0  0  0  0
 15106  1  0  0  0  0
 16107  1  0  0  0  0
 16108  1  0  0  0  0
 16109  1  0  0  0  0
 24110  1  0  0  0  0
 24111  1  0  0  0  0
 25112  1  0  0  0  0
 25113  1  0  0  0  0
 25114  1  0  0  0  0
 33115  1  0  0  0  0
 33116  1  0  0  0  0
 34117  1  0  0  0  0
 34118  1  0  0  0  0
 34119  1  0  0  0  0
 46120  1  0  0  0  0
 46121  1  0  0  0  0
 47122  1  0  0  0  0
 47123  1  0  0  0  0
 47124  1  0  0  0  0
 59125  1  0  0  0  0
 59126  1  0  0  0  0
 60127  1  0  0  0  0
 60128  1  0  0  0  0
 60129  1  0  0  0  0
 68130  1  0  0  0  0
 68131  1  0  0  0  0
 69132  1  0  0  0  0
 69133  1  0  0  0  0
 69134  1  0  0  0  0
 77135  1  0  0  0  0
 77136  1  0  0  0  0
 78137  1  0  0  0  0
 78138  1  0  0  0  0
 78139  1  0  0  0  0
 86140  1  0  0  0  0
 86141  1  0  0  0  0
 87142  1  0  0  0  0
 87143  1  0  0  0  0
 87144  1  0  0  0  0
 95145  1  0  0  0  0
 95146  1  0  0  0  0
 96147  1  0  0  0  0
 96148  1  0  0  0  0
 96149  1  0  0  0  0
 97150  1  0  0  0  0
M  END
