182

C          8.41070       -4.28730       14.19400
C          8.74570       -3.72010       13.01690
C          7.64190       -3.61090       12.12200
C          7.61120       -3.02320       10.84730
C          8.81260       -2.48310       10.23010
S         10.23700       -3.46050       10.02870
C         11.10280       -2.18060        9.24970
C         12.48590       -2.38290        8.73730
C         12.46600       -2.98390        7.32980
C         10.31800       -1.07100        9.15220
Cl        10.83060        0.40320        8.43920
C          9.02100       -1.23660        9.70920
Cl         7.88420        0.04370        9.78400
C          6.38360       -2.98880       10.19730
C          5.19900       -3.51830       10.76590
C          5.22980       -4.10940       12.03960
C          4.02490       -4.65650       12.64070
S          2.58340       -3.69480       12.79290
C          1.70600       -4.98390       13.54390
C          0.27090       -4.82230       13.90520
C         -0.61270       -4.85380       12.65590
C          2.49580       -6.08820       13.65910
C          3.81250       -5.90520       13.15490
Cl         4.96510       -7.17230       13.12180
Cl         1.97620       -7.57300       14.34450
C          6.45680       -4.13550       12.69200
S          6.74490       -4.73310       14.30050
C          4.09520       -3.40290        9.88630
C          4.40360       -2.80790        8.69960
S          6.09400       -2.36410        8.59820
C          3.51220       -2.53220        7.62210
C          3.77630       -1.87840        6.45530
C          2.65170       -1.76840        5.60070
C          2.58020       -1.16900        4.32890
C          3.74860       -0.56620        3.70880
S          5.23530       -1.44970        3.52130
C          6.02170       -0.11960        2.74440
C          7.41850       -0.22900        2.24100
C          7.43960       -0.71390        0.78940
C          5.16780        0.93730        2.63680
Cl         5.59190        2.43840        1.92260
C          3.88070        0.69050        3.18490
Cl         2.66830        1.89930        3.25200
C          1.34560       -1.18560        3.69320
C          0.18890       -1.75420        4.28250
C          0.26480       -2.37950        5.53950
C         -0.89900       -3.03490        6.10960
S         -1.43000       -2.70020        7.73080
C         -2.78970       -3.76050        7.58890
C         -3.71050       -3.99300        8.73530
C         -3.18930       -5.12250        9.62730
C         -2.80780       -4.34590        6.35800
C         -1.73820       -3.93980        5.51690
Cl        -1.49900       -4.61320        3.95640
Cl        -4.01010       -5.45460        5.84150
C          1.49680       -2.35410        6.17630
S          1.84120       -3.04890        7.73270
C         -0.94960       -1.61560        3.45990
C         -0.67950       -1.04360        2.24780
S          1.00220       -0.58300        2.09490
C         -1.61090       -0.87280        1.19020
S         -1.25120       -0.00630       -0.27880
C         -2.81630       -0.33690       -0.97360
C         -3.56940       -1.11950       -0.10270
C         -2.88680       -1.39160        1.11340
S         -3.81060       -2.41060        2.16640
C         -5.07810       -2.56720        0.96260
C         -6.24680       -3.42970        1.20150
O         -7.10450       -3.58380        0.36560
C         -6.26070       -4.09330        2.56070
C         -7.49560       -4.95900        2.76040
C         -4.79700       -1.83470       -0.15960
F         -5.56260       -1.84020       -1.24610
C         -3.17200        0.18900       -2.24020
S         -1.97700        0.35910       -3.50620
C         -3.12470        1.01620       -4.64190
C         -4.38180        1.12740       -4.03600
C         -4.38990        0.66140       -2.68970
S         -5.90370        0.92890       -1.89420
C         -6.56420        1.63190       -3.35400
C         -7.95480        2.08130       -3.25070
O         -8.53230        1.97930       -2.19030
C         -8.59870        2.68970       -4.47470
C         -8.17840        4.15600       -4.60700
C         -5.65340        1.65110       -4.37700
F         -5.94000        2.14620       -5.58910
C         -2.69550        1.33890       -5.94460
S         -3.77780        1.85440       -7.21530
C         -2.50690        2.00510       -8.39480
C         -1.28270        1.66810       -7.81870
C         -1.40760        1.29250       -6.45390
S          0.10840        0.87740       -5.73370
C          0.94540        1.20540       -7.24250
C          2.40460        1.05590       -7.36250
O          2.98110        1.27540       -8.40080
C          3.09650        0.61550       -6.09180
C          4.60020        0.48330       -6.28370
C          0.07800        1.60260       -8.22630
F          0.47670        1.90370       -9.45630
C         -2.86620        2.44340       -9.69420
C         -4.15080        2.73830      -10.07780
C         -4.25730        3.19470      -11.40640
C         -5.42310        3.56320      -12.10620
C         -6.72700        3.50830      -11.46900
S         -7.00950        4.25450       -9.92150
C         -8.66180        3.74190       -9.88320
C         -9.54210        4.08340       -8.73240
C         -9.91770        5.56610       -8.73490
C         -8.96650        3.04830      -11.01580
Cl       -10.51080        2.37600      -11.34360
C         -7.87410        2.91080      -11.91500
Cl        -7.98890        1.99030      -13.35520
C         -5.25470        3.98800      -13.41810
C         -3.99160        4.02360      -14.06070
C         -2.83970        3.59690      -13.38020
C         -1.54580        3.53770      -14.03890
S         -0.12820        4.25990      -13.33940
C          0.87960        3.72360      -14.63800
C          2.32560        4.07320      -14.68550
C          2.53410        5.46450      -15.28860
C          0.14580        3.03090      -15.55500
C         -1.22900        2.91900      -15.21740
Cl        -2.34270        2.01960      -16.16440
Cl         0.80160        2.33920      -16.98230
C         -2.99610        3.22120      -12.05210
S         -1.72000        2.69450      -10.99410
C         -4.08540        4.57840      -15.36930
C         -5.34460        4.93430      -15.69800
S         -6.50190        4.61990      -14.45460
H          9.04720       -4.48200       15.03490
H          9.73640       -3.37760       12.78160
H         12.99530       -1.41770        8.71520
H         13.02770       -3.05040        9.40940
H         13.48150       -3.12280        6.96930
H         11.94000       -2.32280        6.64590
H         11.96280       -3.94790        7.33810
H          0.12990       -3.87120       14.42260
H         -0.01190       -5.63200       14.57940
H         -0.49600       -5.80170       12.13620
H         -1.65630       -4.73490       12.93390
H         -0.33560       -4.04780       11.97980
H          3.10410       -3.74900       10.11660
H          4.74880       -1.48340        6.22400
H          7.89120        0.75320        2.30290
H          7.97560       -0.92680        2.86790
H          8.46400       -0.78060        0.43350
H          6.97780       -1.69540        0.71210
H          6.89370       -0.02150        0.15380
H         -4.69610       -4.25760        8.34790
H         -3.79750       -3.07710        9.32170
H         -3.86530       -5.28020       10.46310
H         -2.20490       -4.87240       10.01500
H         -3.11570       -6.04660        9.06000
H         -1.93680       -1.90860        3.76150
H         -5.35170       -4.69420        2.65560
H         -6.21050       -3.31150        3.32380
H         -7.46970       -5.43640        3.73660
H         -7.54310       -5.72680        1.99250
H         -8.39500       -4.35310        2.68620
H         -8.32040        2.13630       -5.37140
H         -9.68000        2.63440       -4.33900
H         -8.41620        4.69730       -3.69420
H         -7.11160        4.24210       -4.79620
H         -8.71130        4.62130       -5.43250
H          2.87040        1.34530       -5.30940
H          2.66200       -0.33790       -5.77910
H          5.02360        1.43580       -6.59200
H          5.07550        0.16760       -5.35880
H          4.81620       -0.24650       -7.05970
H         -4.98760        2.62730       -9.41240
H         -9.02180        3.84370       -7.80230
H        -10.44430        3.47300       -8.79390
H        -10.44440        5.82040       -9.65120
H         -9.02400        6.18180       -8.66540
H        -10.56360        5.78960       -7.89000
H          2.84510        3.32980      -15.29270
H          2.73590        4.04890      -13.67480
H          2.02600        6.21560      -14.68850
H          3.59390        5.70150      -15.32110
H          2.13790        5.50040      -16.30040
H         -3.23890        4.71780      -16.01550
H         -5.68540        5.37450      -16.61470
