182

C          1.66930       -6.41260       15.05960
C          2.48200       -5.70630       14.24740
C          1.78700       -5.10440       13.15840
C          2.29970       -4.26690       12.15590
C          3.71670       -3.94870       12.07480
S          4.91850       -5.20220       11.98020
C          6.21440       -4.06120       11.86700
C          7.62420       -4.50550       11.68930
C          7.96130       -4.66330       10.20450
C          5.72780       -2.78860       11.89810
Cl         6.71330       -1.38680       11.81160
C          4.31350       -2.72000       12.01840
Cl         3.47490       -1.23200       12.15840
C          1.39380       -3.76070       11.23220
C          0.00800       -4.05220       11.27250
C         -0.50250       -4.90270       12.26650
C         -1.91330       -5.25120       12.31100
S         -3.15140       -4.03070       12.35930
C         -4.42030       -5.20610       12.39800
C         -5.84920       -4.80100       12.50120
C         -6.27120       -4.65810       13.96550
C         -3.89920       -6.46520       12.38160
C         -2.47980       -6.49570       12.32860
Cl        -1.59740       -7.95940       12.20740
Cl        -4.85030       -7.89290       12.40610
C          0.40380       -5.40330       13.19420
S          0.01400       -6.40410       14.56340
C         -0.68920       -3.44640       10.19820
C          0.11620       -2.73360        9.36110
S          1.79320       -2.76560        9.86210
C         -0.26690       -2.01890        8.18900
C          0.54740       -1.41960        7.27490
C         -0.15320       -0.80860        6.20690
C          0.38070       -0.16630        5.07400
C          1.80540        0.08260        4.94790
S          2.67850       -0.31770        3.49850
C          4.16530        0.30210        4.12890
C          5.42830        0.22700        3.34430
C          6.13140       -1.11540        3.55870
C          3.98200        0.78130        5.39200
Cl         5.22990        1.47830        6.34140
C          2.64560        0.66460        5.85870
Cl         2.14760        1.28660        7.37930
C         -0.52000        0.22310        4.09210
C         -1.92230        0.07670        4.23110
C         -2.45810       -0.54750        5.37160
C         -3.88810       -0.76330        5.50860
S         -4.73460       -0.28290        6.94890
C         -6.25360       -0.84430        6.33890
C         -7.48710       -0.77180        7.16900
C         -7.49400       -1.87570        8.22910
C         -6.09550       -1.37910        5.09540
C         -4.75780       -1.33390        4.61950
Cl        -4.30160       -2.02450        3.11520
Cl        -7.37470       -2.04550        4.16740
C         -1.55420       -0.97640        6.33340
S         -1.96260       -1.85510        7.77900
C         -2.62400        0.60260        3.12320
C         -1.80360        1.06320        2.13160
S         -0.11040        0.95940        2.56840
C         -2.19460        1.47850        0.83200
S         -1.03460        1.83900       -0.41270
C         -2.24910        2.01110       -1.64770
C         -3.51970        1.83030       -1.09590
C         -3.46370        1.53130        0.29560
S         -5.02620        1.25420        0.98430
C         -5.79210        1.51410       -0.57060
C         -7.24590        1.40000       -0.74550
O         -7.77820        1.64410       -1.80390
C         -8.01070        0.92400        0.46900
C         -7.88230       -0.59510        0.60700
C         -4.86980        1.80990       -1.54120
F         -5.22390        2.04520       -2.80120
C         -1.81570        2.21100       -2.98450
C         -2.53880        2.36620       -4.13570
C         -1.73980        2.42700       -5.29950
C         -2.17530        2.55310       -6.63370
C         -3.56790        2.82420       -6.93560
S         -4.46180        1.88610       -8.09400
C         -5.90340        2.80640       -7.84110
C         -7.17520        2.45600       -8.52960
C         -7.94770        1.39990       -7.73460
C         -5.68980        3.78330       -6.91330
Cl        -6.88690        4.90150       -6.40790
C         -4.36750        3.79790       -6.39870
Cl        -3.82750        4.98350       -5.28420
C         -1.21230        2.40160       -7.62100
C          0.16370        2.21780       -7.33180
C          0.61410        2.21970       -5.99740
C          2.02900        2.14850       -5.68350
S          2.65200        1.01840       -4.51840
C          4.27770        1.56890       -4.73730
C          5.39430        0.99760       -3.93620
C          5.42230        1.60380       -2.53110
C          4.31840        2.57890       -5.65200
C          3.04750        2.90600       -6.19550
Cl         2.82980        4.18990       -7.31290
Cl         5.75470        3.38950       -6.12360
C         -0.35990        2.28250       -5.01230
S         -0.08390        2.17230       -3.30070
C          0.92440        2.00710       -8.50130
C          0.18220        2.06120       -9.64950
S         -1.50940        2.39210       -9.33860
C          0.65570        1.84730      -10.96830
S          2.33970        1.49220      -11.25850
C          2.11490        1.32370      -12.97970
C          0.77530        1.54560      -13.30570
C         -0.02750        1.83810      -12.16470
S         -1.69570        2.09290      -12.55280
C         -1.34990        1.81660      -14.25140
C         -2.51380        1.88700      -15.13850
O         -3.61660        2.03660      -14.65810
C         -2.27280        1.80560      -16.62630
C         -1.69550        3.12910      -17.13430
C         -0.02720        1.54200      -14.47440
F          0.46810        1.27530      -15.69120
C          3.23640        0.99530      -13.77640
S          3.20420        0.88800      -15.52390
C          4.85680        0.46760      -15.62500
C          5.43460        0.40510      -14.38060
C          4.51640        0.70850      -13.33400
S          5.24750        0.61720      -11.76720
C          6.79050        0.16980      -12.49160
C          7.86760       -0.09120      -11.53120
O          7.62420       -0.06350      -10.34480
C          9.24740       -0.35310      -12.08270
C          9.88580        0.96440      -12.53020
C          6.72080        0.10350      -13.85330
F          7.74250       -0.22350      -14.65260
H          1.93510       -6.95710       15.94460
H          3.53910       -5.59990       14.40710
H          7.77150       -5.45850       12.19990
H          8.28610       -3.76110       12.13600
H          7.83310       -3.71590        9.68730
H          8.99170       -4.98790       10.08800
H          7.30780       -5.40140        9.74540
H         -6.46490       -5.56170       12.01730
H         -5.99480       -3.85080       11.98470
H         -5.66620       -3.90230       14.46060
H         -7.31570       -4.36500       14.02620
H         -6.14300       -5.60280       14.48750
H         -1.74800       -3.54090       10.03880
H          1.61890       -1.44510        7.35380
H          5.20210        0.35430        2.28440
H          6.08590        1.03790        3.66320
H          7.05120       -1.15060        2.98130
H          6.37440       -1.24970        4.60960
H          5.48810       -1.93290        3.24250
H         -8.35520       -0.88030        6.51670
H         -7.53820        0.20130        7.66090
H         -7.45930       -2.85370        7.75560
H         -8.39720       -1.81090        8.82970
H         -6.62980       -1.77470        8.88150
H         -3.69460        0.62830        3.05710
H         -7.62890        1.41010        1.36880
H         -9.06010        1.18880        0.33300
H         -8.47430       -0.93950        1.45110
H         -6.84790       -0.88660        0.77350
H         -8.24280       -1.08670       -0.29360
H         -3.60860        2.40220       -4.17140
H         -7.78230        3.35820       -8.62380
H         -6.95480        2.07440       -9.52780
H         -8.88280        1.16610       -8.23610
H         -7.35990        0.48930       -7.64740
H         -8.16900        1.76630       -6.73540
H          6.33480        1.20740       -4.44810
H          5.27030       -0.08420       -3.86080
H          6.23830        1.17470       -1.95590
H          5.56410        2.68010       -2.58800
H          4.48580        1.40330       -2.01580
H          1.97720        1.79000       -8.50350
H         -1.58920        0.98890      -16.85810
H         -3.23290        1.61720      -17.10880
H         -1.58250        3.09000      -18.21460
H         -2.36240        3.95100      -16.88410
H         -0.72090        3.32520      -16.69490
H          5.31130        0.28680      -16.57790
H          9.84680       -0.79720      -11.28670
H          9.19750       -1.04520      -12.92320
H          9.92010        1.66700      -11.70070
H         10.90060        0.78240      -12.87380
H          9.32360        1.41410      -13.34470
