138

C          6.75340        1.77460        1.98640
S          6.05900        1.39980        3.50530
C          4.44910        1.28160        2.86030
C          4.47240        1.53400        1.49850
C          5.79620        1.80940        1.02390
S          5.83600        2.16970       -0.67600
C          4.09420        1.95640       -0.78470
C          3.37390        2.07100       -2.05180
O          2.23350        1.67110       -2.17270
C          4.12600        2.74120       -3.17590
C          4.05020        4.25950       -2.99470
C          3.54290        1.64880        0.43260
F          2.23040        1.52790        0.61030
C          3.38720        0.97130        3.78550
S          3.32660        1.88890        5.27090
C          2.08520        0.89240        5.89030
C          1.73420       -0.09540        5.01760
C          2.46490       -0.04530        3.80050
C          2.22430       -1.05810        2.72160
C          1.84420       -2.39160        3.39140
C          0.59280       -2.23120        4.24900
C          0.77440       -1.20270        5.36300
N          1.37050       -1.84370        6.57900
O          2.08100       -2.80270        6.42170
O          1.11890       -1.31950        7.63560
N          1.18870       -0.65570        1.79210
C          0.14210        0.15790        2.09440
C         -0.67950        0.67980        1.16840
C         -1.86360        1.43810        1.45300
S         -2.28230        2.77670        0.41280
C         -3.69830        3.11960        1.32340
C         -3.84460        2.25450        2.36020
C         -2.80460        1.28980        2.44350
C         -2.96270        0.08860        3.33800
C         -3.75390        0.39400        4.62860
C         -4.25380        1.83340        4.72850
C         -4.90940        2.26750        3.42130
N         -5.44090        3.64560        3.51990
O         -6.34590        3.93040        2.77230
O         -4.92180        4.39810        4.30650
N         -3.68070       -0.93660        2.59190
C         -3.06430       -1.72240        1.67300
C         -3.64700       -2.43980        0.68770
C         -5.03270       -2.50930        0.34500
S         -6.29480       -1.87000        1.37560
C         -7.52770       -2.40670        0.31540
C         -7.01040       -3.04280       -0.77220
C         -5.59240       -3.09940       -0.77190
C         -4.84120       -3.72230       -1.91700
C         -5.75870       -3.77540       -3.15300
C         -7.06440       -4.48280       -2.82280
C         -7.87750       -3.64520       -1.84520
N         -8.87790       -4.48580       -1.13060
O         -8.56380       -5.61190       -0.83520
O         -9.92850       -3.95850       -0.85600
N         -3.62670       -2.99150       -2.20520
C         -2.72880       -3.45540       -3.11270
C         -1.73760       -2.75100       -3.69630
C         -1.41440       -1.37320       -3.46990
S         -1.76600       -0.54560       -1.97210
C         -1.01430        0.89530       -2.52670
C         -0.51630        0.75600       -3.78400
C         -0.73990       -0.53420       -4.32780
C         -0.40010       -0.86700       -5.74640
C         -0.27750        0.44340       -6.54630
C          0.70780        1.39340       -5.87490
C          0.15940        1.86390       -4.52230
N         -0.81290        2.95020       -4.80860
O         -0.38880        4.08070       -4.78940
O         -1.94500        2.63500       -5.08820
N          0.80020       -1.68400       -5.91530
C          1.99690       -1.49850       -5.28870
C          2.24410       -1.24590       -3.98540
C          3.58060       -1.02640       -3.53610
S          4.81140       -0.44700       -4.64580
C          6.04040       -0.42360       -3.44480
C          5.54050       -0.83480       -2.24020
C          4.15240       -1.16680       -2.29690
S          3.57310       -1.77090       -0.76390
C          5.16820       -1.56260       -0.04560
C          5.48730       -1.97350        1.33640
O          6.14800       -1.27270        2.06650
C          4.97760       -3.34300        1.71840
C          5.34730       -3.70430        3.14960
C          6.06300       -1.04800       -0.93270
F          7.34820       -0.83210       -0.63650
H          7.80830        1.92580        1.89000
H          3.66560        2.46090       -4.12480
H          5.16940        2.42130       -3.17370
H          3.01410        4.59030       -2.99490
H          4.57160        4.75460       -3.80940
H          4.51210        4.55770       -2.05640
H          1.69570        1.06540        6.87460
H          3.14800       -1.18540        2.14780
H          1.64940       -3.13710        2.61970
H          2.66980       -2.73800        4.01200
H         -0.24160       -1.93180        3.61440
H          0.33910       -3.19400        4.69660
H         -0.18360       -0.78930        5.69780
H          1.39430       -0.75670        0.81080
H          0.00030        0.36690        3.14400
H         -0.41940        0.56520        0.12810
H         -4.32970        3.93530        1.03340
H         -1.98730       -0.33250        3.58410
H         -3.13630        0.18370        5.50150
H         -4.60690       -0.28660        4.66410
H         -4.96280        1.91580        5.55380
H         -3.42070        2.50860        4.93310
H         -5.75390        1.62450        3.14560
H         -4.63360       -0.67960        2.37280
H         -1.99210       -1.79380        1.78930
H         -2.99790       -3.03880        0.06980
H         -8.55650       -2.22670        0.55540
H         -4.55210       -4.75040       -1.64980
H         -5.96100       -2.75540       -3.48980
H         -5.24530       -4.30020       -3.95950
H         -7.64380       -4.65710       -3.73120
H         -6.85000       -5.44990       -2.36150
H         -8.44930       -2.85890       -2.35050
H         -3.69270       -1.98760       -2.11030
H         -2.83310       -4.50540       -3.35180
H         -1.10830       -3.25880       -4.41100
H         -0.99050        1.76240       -1.89800
H         -1.21930       -1.46340       -6.16940
H         -1.26350        0.91020       -6.59950
H          0.04940        0.22440       -7.56510
H          0.90270        2.25930       -6.51230
H          1.65780        0.88260       -5.70360
H          0.95190        2.30550       -3.91070
H          0.89770       -1.97360       -6.87840
H          2.86200       -1.66110       -5.92800
H          1.46310       -1.17790       -3.24710
H          7.04040       -0.13480       -3.69300
H          3.89690       -3.37310        1.56150
H          5.41760       -4.05960        1.01850
H          6.42780       -3.76060        3.25260
H          4.98890       -2.94390        3.83890
H          4.91700       -4.66310        3.42450
