206

C          5.05320       -1.13920       18.06760
C          4.70780       -2.25390       17.39270
C          3.87590       -1.98380       16.26680
C          3.32200       -2.89500       15.35340
C          3.49060       -4.32960       15.51830
S          4.10890       -5.32350       14.23330
C          3.99110       -6.76300       15.18590
C          4.44810       -8.07660       14.65510
C          5.95870       -8.24460       14.83500
C          3.50250       -6.47370       16.42510
Cl         3.24260       -7.64700       17.65050
C          3.21340       -5.09590       16.61620
Cl         2.51080       -4.49080       18.06090
C          2.60980       -2.36370       14.28590
C          2.39470       -0.97400       14.12170
C          2.89360       -0.06600       15.07110
C          2.62830        1.35760       14.95130
S          3.91080        2.53070       14.98980
C          2.81410        3.85230       14.78260
C          3.30140        5.25420       14.66550
C          3.59000        5.61240       13.20550
C          1.53300        3.39570       14.68830
C          1.42280        1.98320       14.78430
Cl        -0.09260        1.17480       14.76780
Cl         0.16730        4.41560       14.48950
C          3.64450       -0.59600       16.11270
S          4.40580        0.31390       17.38730
C          1.68560       -0.68680       12.93050
C          1.33090       -1.80040       12.22620
S          1.86920       -3.27450       13.00090
C          0.64010       -1.83410       10.97700
C          0.09450       -0.77000       10.31840
C         -0.45150       -1.10340        9.05710
C         -1.07060       -0.24480        8.12820
C         -1.24700        1.17090        8.40330
S          0.07920        2.17400        8.91570
C         -0.91590        3.58800        9.00380
C         -0.36060        4.88650        9.47400
C         -0.12120        4.86310       10.98500
C         -2.19810        3.28380        8.65800
Cl        -3.48230        4.42110        8.63540
C         -2.38830        1.91860        8.30940
Cl        -3.92730        1.28360        7.90700
C         -1.48030       -0.81060        6.92830
C         -1.33900       -2.19240        6.64680
C         -0.79650       -3.06540        7.60840
C         -0.72130       -4.48970        7.34400
S          0.74650       -5.38950        7.58880
C          0.03360       -6.85930        7.02040
C          0.82920       -8.11240        6.90560
C          1.49490       -8.21250        5.53090
C         -1.26590       -6.64980        6.66500
C         -1.70160       -5.31240        6.85520
Cl        -3.32650       -4.83320        6.57740
Cl        -2.29560       -7.87120        6.04060
C         -0.32710       -2.48800        8.78010
S          0.46000       -3.32790       10.08450
C         -1.71480       -2.50380        5.32250
C         -2.14360       -1.41960        4.60780
S         -2.11010        0.05250        5.55250
C         -2.54640       -1.42960        3.24710
S         -2.78080        0.02820        2.31970
C         -3.10550       -0.84560        0.84280
C         -3.08190       -2.22090        1.08820
C         -2.75800       -2.52590        2.43760
S         -2.73770       -4.23080        2.74320
C         -3.19590       -4.56670        1.08360
C         -3.40810       -5.94440        0.61480
O         -3.72120       -6.18750       -0.52640
C         -3.20330       -7.00290        1.67650
C         -3.46270       -8.40290        1.14030
C         -3.32910       -3.41250        0.35600
F         -3.69030       -3.40570       -0.92450
C         -3.25460       -0.13080       -0.36420
S         -3.17420       -0.88140       -1.93990
C         -3.24700        0.63350       -2.78370
C         -3.39060        1.68510       -1.87380
C         -3.36980        1.24140       -0.52320
S         -3.50000        2.53420        0.61920
C         -3.62670        3.69400       -0.69190
C         -3.79680        5.08830       -0.27720
O         -3.87440        5.35170        0.90330
C         -3.83690        6.14550       -1.35540
C         -2.42890        6.41460       -1.89240
C         -3.56230        3.09210       -1.91970
F         -3.68630        3.77500       -3.06440
C         -3.04010        0.64790       -4.18740
C         -2.69950        1.70570       -4.98810
C         -2.40370        1.33770       -6.31760
C         -2.02410        2.18560       -7.37710
C         -1.89910        3.62110       -7.19000
S         -0.94280        4.29080       -5.89880
C         -1.29430        5.91690       -6.36880
C         -0.70170        7.07740       -5.64870
C          0.63120        7.48870       -6.27900
C         -2.09850        5.92600       -7.46890
Cl        -2.66140        7.35860       -8.22630
C         -2.44600        4.62970       -7.93580
Cl        -3.52120        4.39130       -9.24790
C         -1.76450        1.57980       -8.59930
C         -1.89800        0.18350       -8.80380
C         -2.31370       -0.65870       -7.75620
C         -2.48050       -2.08410       -7.98560
S         -3.46100       -2.65250       -9.30660
C         -3.12610       -4.31180       -8.94830
C         -3.65520       -5.39810       -9.81770
C         -2.96860       -5.38810      -11.18560
C         -2.30700       -4.40380       -7.86300
C         -1.94400       -3.14470       -7.31030
Cl        -0.86020       -3.00440       -5.99160
Cl        -1.74410       -5.88560       -7.20580
C         -2.54300       -0.05910       -6.52650
S         -3.04880       -0.86720       -5.07350
C         -1.50350       -0.19680      -10.10610
C         -1.08620        0.84660      -10.87870
S         -1.16590        2.37350      -10.03010
C         -0.64340        0.76380      -12.23030
C         -0.25300        1.76520      -13.06740
C          0.08970        1.31130      -14.36650
C          0.55720        2.06420      -15.45650
C          0.64590        3.51220      -15.38350
S          2.11120        4.35600      -15.78760
C          1.40670        5.89990      -15.45200
C          2.20660        7.15140      -15.55130
C          2.97060        7.41580      -14.25140
C          0.11250        5.75370      -15.04910
Cl        -0.91340        7.06410      -14.63030
C         -0.32420        4.40260      -15.01210
Cl        -1.93680        3.96580      -14.61670
C          0.92430        1.35950      -16.59730
C          0.81300       -0.04670      -16.70790
C          0.30950       -0.79670      -15.63340
C          0.18850       -2.24490      -15.68590
S          1.55180       -3.24420      -16.09920
C          0.66470       -4.70630      -15.83380
C          1.28210       -6.03990      -16.07230
C          1.18420       -6.43230      -17.54840
C         -0.61470       -4.42030      -15.46260
C         -0.88800       -3.02860      -15.37310
Cl        -2.44910       -2.43030      -14.99600
Cl        -1.79880       -5.61130      -15.11260
C         -0.03590       -0.09500      -14.48460
S         -0.58950       -0.80830      -13.00060
C          1.21960       -0.50560      -17.99460
C          1.61800        0.49590      -18.80500
S          1.52560        2.06020      -18.07370
H          5.66650       -1.06350       18.94410
H          5.03540       -3.24020       17.66410
H          3.92530       -8.87160       15.18970
H          4.19920       -8.14380       13.59470
H          6.49060       -7.45530       14.30920
H          6.22020       -8.19860       15.88900
H          6.27730       -9.20490       14.43880
H          2.53670        5.92610       15.06010
H          4.21070        5.37140       15.25650
H          2.68830        5.50870       12.60780
H          3.93960        6.63880       13.13560
H          4.35430        4.95420       12.79970
H          1.47490        0.31130       12.59650
H          0.08450        0.22400       10.72270
H          0.58270        5.08780        8.96180
H         -1.06930        5.67730        9.22410
H          0.59510        4.08560       11.24200
H         -1.05090        4.66530       11.51220
H          0.26720        5.82220       11.31750
H          0.16450       -8.96620        7.05060
H          1.59410       -8.12620        7.68330
H          2.15830       -7.36600        5.37070
H          0.74140       -8.21780        4.74760
H          2.07470       -9.12890        5.46290
H         -1.62090       -3.48340        4.89460
H         -2.17870       -6.91660        2.04940
H         -3.87000       -6.78250        2.51460
H         -2.79950       -8.61370        0.30530
H         -3.29950       -9.14380        1.91860
H         -4.48670       -8.48410        0.78450
H         -4.23470        7.05760       -0.90800
H         -4.49060        5.83280       -2.16960
H         -2.46630        7.21640       -2.62550
H         -2.01460        5.53070       -2.37100
H         -1.76800        6.71380       -1.08200
H         -2.62890        2.71540       -4.64040
H         -1.40060        7.91470       -5.69840
H         -0.54350        6.81180       -4.60240
H          1.33750        6.66280       -6.24090
H          0.48410        7.77290       -7.31760
H          1.05260        8.33400       -5.74200
H         -4.73070       -5.26510       -9.95440
H         -3.48330       -6.35470       -9.32210
H         -1.89670       -5.53210      -11.07300
H         -3.13990       -4.43890      -11.68840
H         -3.36300       -6.18710      -11.80750
H         -1.51080       -1.20950      -10.46550
H         -0.20250        2.79250      -12.75590
H          2.91380        7.06450      -16.37760
H          1.53050        7.98420      -15.75330
H          3.54780        8.33230      -14.33740
H          2.27670        7.51730      -13.42090
H          3.64940        6.59320      -14.03930
H          2.33100       -6.01350      -15.77230
H          0.76100       -6.77970      -15.46200
H          1.63110       -7.41020      -17.70480
H          0.14340       -6.47090      -17.85970
H          1.70660       -5.70660      -18.16730
H          1.20440       -1.53930      -18.28670
H          1.96940        0.42420      -19.81570
