
  xtb     03012206243D
 energy: -460.555900332680 gnorm: 0.000210752643 xtb: 6.4.1 (unknown)
230256  0     0  0            999 V2000
    3.5723   -7.8483    8.0561 C   0  0  0  0  0  0  0  0  0  0  0  0
    3.6691   -7.7056    6.7186 C   0  0  0  0  0  0  0  0  0  0  0  0
    2.4144   -7.4344    6.0980 C   0  0  0  0  0  0  0  0  0  0  0  0
    2.1488   -7.2057    4.7379 C   0  0  0  0  0  0  0  0  0  0  0  0
    3.2238   -7.1259    3.7612 C   0  0  0  0  0  0  0  0  0  0  0  0
    4.5705   -6.0543    4.0295 S   0  0  0  0  0  0  0  0  0  0  0  0
    5.2925   -6.4446    2.5044 C   0  0  0  0  0  0  0  0  0  0  0  0
    6.5760   -5.8202    2.0783 C   0  0  0  0  0  0  0  0  0  0  0  0
    6.4738   -4.2970    2.0074 C   0  0  0  0  0  0  0  0  0  0  0  0
    4.5222   -7.3505    1.8395 C   0  0  0  0  0  0  0  0  0  0  0  0
    4.9071   -7.9877    0.2929 Cl  0  0  0  0  0  0  0  0  0  0  0  0
    3.3505   -7.7393    2.5467 C   0  0  0  0  0  0  0  0  0  0  0  0
    2.2720   -8.9273    1.9453 Cl  0  0  0  0  0  0  0  0  0  0  0  0
    0.8227   -6.9736    4.3860 C   0  0  0  0  0  0  0  0  0  0  0  0
   -0.2205   -6.9087    5.3417 C   0  0  0  0  0  0  0  0  0  0  0  0
    0.0449   -7.1338    6.7014 C   0  0  0  0  0  0  0  0  0  0  0  0
   -1.0131   -7.0400    7.6946 C   0  0  0  0  0  0  0  0  0  0  0  0
   -2.0129   -5.6188    7.8034 S   0  0  0  0  0  0  0  0  0  0  0  0
   -2.9291   -6.2637    9.1221 C   0  0  0  0  0  0  0  0  0  0  0  0
   -4.0796   -5.5118    9.6933 C   0  0  0  0  0  0  0  0  0  0  0  0
   -5.3048   -5.6195    8.7826 C   0  0  0  0  0  0  0  0  0  0  0  0
   -2.4783   -7.5085    9.4441 C   0  0  0  0  0  0  0  0  0  0  0  0
   -1.3890   -7.9491    8.6431 C   0  0  0  0  0  0  0  0  0  0  0  0
   -0.6995   -9.5082    8.8130 Cl  0  0  0  0  0  0  0  0  0  0  0  0
   -3.1440   -8.4750   10.6960 Cl  0  0  0  0  0  0  0  0  0  0  0  0
    1.3631   -7.4082    7.0461 C   0  0  0  0  0  0  0  0  0  0  0  0
    1.9620   -7.6741    8.6577 S   0  0  0  0  0  0  0  0  0  0  0  0
   -1.4634   -6.5761    4.7452 C   0  0  0  0  0  0  0  0  0  0  0  0
   -1.3855   -6.3864    3.4014 C   0  0  0  0  0  0  0  0  0  0  0  0
    0.2315   -6.6350    2.7839 S   0  0  0  0  0  0  0  0  0  0  0  0
   -2.4521   -5.9212    2.5608 C   0  0  0  0  0  0  0  0  0  0  0  0
   -3.3391   -4.9484    2.9080 C   0  0  0  0  0  0  0  0  0  0  0  0
   -4.2405   -4.6106    1.8699 C   0  0  0  0  0  0  0  0  0  0  0  0
   -5.2066   -3.5889    1.8730 C   0  0  0  0  0  0  0  0  0  0  0  0
   -5.4606   -2.8035    3.0681 C   0  0  0  0  0  0  0  0  0  0  0  0
   -5.4463   -1.0653    3.0200 S   0  0  0  0  0  0  0  0  0  0  0  0
   -5.7752   -0.9363    4.7142 C   0  0  0  0  0  0  0  0  0  0  0  0
   -5.8813    0.3904    5.3839 C   0  0  0  0  0  0  0  0  0  0  0  0
   -6.6322    1.4076    4.5297 C   0  0  0  0  0  0  0  0  0  0  0  0
   -5.8894   -2.1763    5.2691 C   0  0  0  0  0  0  0  0  0  0  0  0
   -6.2165   -2.4566    6.9300 Cl  0  0  0  0  0  0  0  0  0  0  0  0
   -5.7101   -3.2371    4.3413 C   0  0  0  0  0  0  0  0  0  0  0  0
   -5.8808   -4.8855    4.7897 Cl  0  0  0  0  0  0  0  0  0  0  0  0
   -5.8402   -3.3279    0.6665 C   0  0  0  0  0  0  0  0  0  0  0  0
   -5.6325   -4.1078   -0.4969 C   0  0  0  0  0  0  0  0  0  0  0  0
   -4.7114   -5.1712   -0.4811 C   0  0  0  0  0  0  0  0  0  0  0  0
   -4.4992   -5.9755   -1.6737 C   0  0  0  0  0  0  0  0  0  0  0  0
   -5.8404   -6.7715   -2.4467 S   0  0  0  0  0  0  0  0  0  0  0  0
   -4.8331   -7.4399   -3.6843 C   0  0  0  0  0  0  0  0  0  0  0  0
   -5.3879   -8.3393   -4.7330 C   0  0  0  0  0  0  0  0  0  0  0  0
   -5.3862   -9.7956   -4.2619 C   0  0  0  0  0  0  0  0  0  0  0  0
   -3.5370   -7.0650   -3.4922 C   0  0  0  0  0  0  0  0  0  0  0  0
   -3.3433   -6.2303   -2.3578 C   0  0  0  0  0  0  0  0  0  0  0  0
   -1.8184   -5.5502   -1.9730 Cl  0  0  0  0  0  0  0  0  0  0  0  0
   -2.2459   -7.5300   -4.5219 Cl  0  0  0  0  0  0  0  0  0  0  0  0
   -4.0032   -5.3714    0.6975 C   0  0  0  0  0  0  0  0  0  0  0  0
   -2.7047   -6.5064    0.9357 S   0  0  0  0  0  0  0  0  0  0  0  0
   -6.3048   -3.5727   -1.6232 C   0  0  0  0  0  0  0  0  0  0  0  0
   -6.9626   -2.4062   -1.3528 C   0  0  0  0  0  0  0  0  0  0  0  0
   -6.8992   -1.9838    0.3463 S   0  0  0  0  0  0  0  0  0  0  0  0
   -7.4114   -1.4438   -2.3007 C   0  0  0  0  0  0  0  0  0  0  0  0
   -7.4143    0.2452   -1.8605 S   0  0  0  0  0  0  0  0  0  0  0  0
   -7.4703    0.7841   -3.5158 C   0  0  0  0  0  0  0  0  0  0  0  0
   -7.6221   -0.3131   -4.3623 C   0  0  0  0  0  0  0  0  0  0  0  0
   -7.5734   -1.5543   -3.6633 C   0  0  0  0  0  0  0  0  0  0  0  0
   -7.6655   -2.9165   -4.7317 S   0  0  0  0  0  0  0  0  0  0  0  0
   -7.7956   -1.8545   -6.1259 C   0  0  0  0  0  0  0  0  0  0  0  0
   -7.9169   -2.3857   -7.4915 C   0  0  0  0  0  0  0  0  0  0  0  0
   -7.9308   -1.6583   -8.4562 O   0  0  0  0  0  0  0  0  0  0  0  0
   -8.0147   -3.8932   -7.5727 C   0  0  0  0  0  0  0  0  0  0  0  0
   -8.1450   -4.3755   -9.0099 C   0  0  0  0  0  0  0  0  0  0  0  0
   -7.7545   -0.5349   -5.7583 C   0  0  0  0  0  0  0  0  0  0  0  0
   -7.8553    0.4621   -6.6324 F   0  0  0  0  0  0  0  0  0  0  0  0
   -7.0194    2.1043   -3.7859 C   0  0  0  0  0  0  0  0  0  0  0  0
   -6.3856    2.5584   -4.9113 C   0  0  0  0  0  0  0  0  0  0  0  0
   -5.5693    3.6893   -4.6737 C   0  0  0  0  0  0  0  0  0  0  0  0
   -4.6014    4.2188   -5.5537 C   0  0  0  0  0  0  0  0  0  0  0  0
   -4.6520    3.9006   -6.9630 C   0  0  0  0  0  0  0  0  0  0  0  0
   -3.2451    3.4511   -7.8823 S   0  0  0  0  0  0  0  0  0  0  0  0
   -4.1624    3.2533   -9.3349 C   0  0  0  0  0  0  0  0  0  0  0  0
   -3.5272    2.7747  -10.5927 C   0  0  0  0  0  0  0  0  0  0  0  0
   -3.5298    1.2448  -10.6543 C   0  0  0  0  0  0  0  0  0  0  0  0
   -5.4799    3.5280   -9.1101 C   0  0  0  0  0  0  0  0  0  0  0  0
   -6.6923    3.4504  -10.3195 Cl  0  0  0  0  0  0  0  0  0  0  0  0
   -5.7628    3.8953   -7.7696 C   0  0  0  0  0  0  0  0  0  0  0  0
   -7.3303    4.3660   -7.2631 Cl  0  0  0  0  0  0  0  0  0  0  0  0
   -3.5832    4.9589   -4.9624 C   0  0  0  0  0  0  0  0  0  0  0  0
   -3.6128    5.3497   -3.6013 C   0  0  0  0  0  0  0  0  0  0  0  0
   -4.7106    5.0119   -2.7818 C   0  0  0  0  0  0  0  0  0  0  0  0
   -4.7840    5.4771   -1.4122 C   0  0  0  0  0  0  0  0  0  0  0  0
   -5.1752    4.4093   -0.0948 S   0  0  0  0  0  0  0  0  0  0  0  0
   -5.0166    5.6712    1.0797 C   0  0  0  0  0  0  0  0  0  0  0  0
   -5.2678    5.4039    2.5227 C   0  0  0  0  0  0  0  0  0  0  0  0
   -6.7343    5.0485    2.7716 C   0  0  0  0  0  0  0  0  0  0  0  0
   -4.6914    6.8471    0.4718 C   0  0  0  0  0  0  0  0  0  0  0  0
   -4.5522    6.7414   -0.9380 C   0  0  0  0  0  0  0  0  0  0  0  0
   -4.2090    8.0992   -1.9301 Cl  0  0  0  0  0  0  0  0  0  0  0  0
   -4.4573    8.3296    1.3050 Cl  0  0  0  0  0  0  0  0  0  0  0  0
   -5.6167    4.1106   -3.3227 C   0  0  0  0  0  0  0  0  0  0  0  0
   -6.7963    3.1969   -2.4244 S   0  0  0  0  0  0  0  0  0  0  0  0
   -2.3676    5.8651   -3.1714 C   0  0  0  0  0  0  0  0  0  0  0  0
   -1.4077    5.8449   -4.1431 C   0  0  0  0  0  0  0  0  0  0  0  0
   -2.0473    5.3394   -5.6919 S   0  0  0  0  0  0  0  0  0  0  0  0
    0.0027    5.8946   -3.9074 C   0  0  0  0  0  0  0  0  0  0  0  0
    0.6466    6.3700   -2.8022 C   0  0  0  0  0  0  0  0  0  0  0  0
    1.9759    5.8947   -2.6755 C   0  0  0  0  0  0  0  0  0  0  0  0
    2.8440    6.0458   -1.5755 C   0  0  0  0  0  0  0  0  0  0  0  0
    2.5728    7.0287   -0.5456 C   0  0  0  0  0  0  0  0  0  0  0  0
    2.7102    6.6641    1.1496 S   0  0  0  0  0  0  0  0  0  0  0  0
    2.2661    8.2705    1.6125 C   0  0  0  0  0  0  0  0  0  0  0  0
    2.2438    8.6843    3.0423 C   0  0  0  0  0  0  0  0  0  0  0  0
    3.6126    9.2196    3.4704 C   0  0  0  0  0  0  0  0  0  0  0  0
    2.0410    9.0384    0.5084 C   0  0  0  0  0  0  0  0  0  0  0  0
    1.5946   10.6940    0.5715 Cl  0  0  0  0  0  0  0  0  0  0  0  0
    2.2075    8.3389   -0.7156 C   0  0  0  0  0  0  0  0  0  0  0  0
    2.0518    9.1120   -2.2397 Cl  0  0  0  0  0  0  0  0  0  0  0  0
    3.9312    5.1817   -1.5183 C   0  0  0  0  0  0  0  0  0  0  0  0
    4.2448    4.2669   -2.5545 C   0  0  0  0  0  0  0  0  0  0  0  0
    3.4491    4.2122   -3.7103 C   0  0  0  0  0  0  0  0  0  0  0  0
    3.7248    3.2681   -4.7826 C   0  0  0  0  0  0  0  0  0  0  0  0
    3.9214    3.8038   -6.4237 S   0  0  0  0  0  0  0  0  0  0  0  0
    4.1679    2.1916   -7.0017 C   0  0  0  0  0  0  0  0  0  0  0  0
    4.4705    1.9225   -8.4343 C   0  0  0  0  0  0  0  0  0  0  0  0
    5.9648    2.0908   -8.7201 C   0  0  0  0  0  0  0  0  0  0  0  0
    4.1007    1.3033   -5.9702 C   0  0  0  0  0  0  0  0  0  0  0  0
    3.8415    1.9079   -4.7109 C   0  0  0  0  0  0  0  0  0  0  0  0
    3.6178    0.9884   -3.2766 Cl  0  0  0  0  0  0  0  0  0  0  0  0
    4.2965   -0.3915   -6.1506 Cl  0  0  0  0  0  0  0  0  0  0  0  0
    2.3224    5.0211   -3.7343 C   0  0  0  0  0  0  0  0  0  0  0  0
    1.0530    4.9210   -4.9200 S   0  0  0  0  0  0  0  0  0  0  0  0
    5.3378    3.4336   -2.2146 C   0  0  0  0  0  0  0  0  0  0  0  0
    5.8156    3.6515   -0.9578 C   0  0  0  0  0  0  0  0  0  0  0  0
    5.0190    5.0012   -0.1697 S   0  0  0  0  0  0  0  0  0  0  0  0
    6.7047    2.8182   -0.2170 C   0  0  0  0  0  0  0  0  0  0  0  0
    7.1845    3.0188    1.0418 C   0  0  0  0  0  0  0  0  0  0  0  0
    7.8626    1.8934    1.5738 C   0  0  0  0  0  0  0  0  0  0  0  0
    8.4565    1.7557    2.8393 C   0  0  0  0  0  0  0  0  0  0  0  0
    8.4296    2.8424    3.8044 C   0  0  0  0  0  0  0  0  0  0  0  0
    6.9282    3.5980    4.2536 S   0  0  0  0  0  0  0  0  0  0  0  0
    7.7098    4.6797    5.3570 C   0  0  0  0  0  0  0  0  0  0  0  0
    6.9257    5.6959    6.1118 C   0  0  0  0  0  0  0  0  0  0  0  0
    6.2309    6.6782    5.1680 C   0  0  0  0  0  0  0  0  0  0  0  0
    9.0534    4.4548    5.3650 C   0  0  0  0  0  0  0  0  0  0  0  0
   10.1706    5.3331    6.3271 Cl  0  0  0  0  0  0  0  0  0  0  0  0
    9.4649    3.4102    4.4918 C   0  0  0  0  0  0  0  0  0  0  0  0
   11.1111    2.9865    4.2777 Cl  0  0  0  0  0  0  0  0  0  0  0  0
    9.0220    0.5215    3.1387 C   0  0  0  0  0  0  0  0  0  0  0  0
    9.0167   -0.5699    2.2360 C   0  0  0  0  0  0  0  0  0  0  0  0
    8.4588   -0.4193    0.9561 C   0  0  0  0  0  0  0  0  0  0  0  0
    8.4399   -1.5108   -0.0038 C   0  0  0  0  0  0  0  0  0  0  0  0
    6.9641   -1.9862   -0.7940 S   0  0  0  0  0  0  0  0  0  0  0  0
    7.7537   -3.2377   -1.6892 C   0  0  0  0  0  0  0  0  0  0  0  0
    6.9947   -4.1289   -2.6094 C   0  0  0  0  0  0  0  0  0  0  0  0
    6.4760   -5.3684   -1.8773 C   0  0  0  0  0  0  0  0  0  0  0  0
    9.0814   -3.2755   -1.3814 C   0  0  0  0  0  0  0  0  0  0  0  0
    9.4754   -2.2955   -0.4310 C   0  0  0  0  0  0  0  0  0  0  0  0
   11.1106   -2.0811    0.0476 Cl  0  0  0  0  0  0  0  0  0  0  0  0
   10.1922   -4.3854   -2.0747 Cl  0  0  0  0  0  0  0  0  0  0  0  0
    7.8876    0.8122    0.6604 C   0  0  0  0  0  0  0  0  0  0  0  0
    7.1073    1.2291   -0.8383 S   0  0  0  0  0  0  0  0  0  0  0  0
    9.5555   -1.7454    2.8358 C   0  0  0  0  0  0  0  0  0  0  0  0
    9.9571   -1.5481    4.1079 C   0  0  0  0  0  0  0  0  0  0  0  0
    9.7112    0.0671    4.6707 S   0  0  0  0  0  0  0  0  0  0  0  0
    4.3591   -8.0584    8.7538 H   0  0  0  0  0  0  0  0  0  0  0  0
    4.5924   -7.7949    6.1771 H   0  0  0  0  0  0  0  0  0  0  0  0
    6.8435   -6.2240    1.1009 H   0  0  0  0  0  0  0  0  0  0  0  0
    7.3623   -6.0919    2.7878 H   0  0  0  0  0  0  0  0  0  0  0  0
    6.2499   -3.8857    2.9888 H   0  0  0  0  0  0  0  0  0  0  0  0
    7.4133   -3.8761    1.6598 H   0  0  0  0  0  0  0  0  0  0  0  0
    5.6868   -3.9966    1.3203 H   0  0  0  0  0  0  0  0  0  0  0  0
   -3.8074   -4.4608    9.8085 H   0  0  0  0  0  0  0  0  0  0  0  0
   -4.3128   -5.9235   10.6766 H   0  0  0  0  0  0  0  0  0  0  0  0
   -5.0816   -5.2102    7.8004 H   0  0  0  0  0  0  0  0  0  0  0  0
   -6.1372   -5.0660    9.2087 H   0  0  0  0  0  0  0  0  0  0  0  0
   -5.6005   -6.6594    8.6669 H   0  0  0  0  0  0  0  0  0  0  0  0
   -2.3865   -6.4954    5.2879 H   0  0  0  0  0  0  0  0  0  0  0  0
   -3.3005   -4.4452    3.8560 H   0  0  0  0  0  0  0  0  0  0  0  0
   -6.3874    0.2514    6.3414 H   0  0  0  0  0  0  0  0  0  0  0  0
   -4.8748    0.7674    5.5914 H   0  0  0  0  0  0  0  0  0  0  0  0
   -6.1144    1.5660    3.5866 H   0  0  0  0  0  0  0  0  0  0  0  0
   -7.6377    1.0552    4.3152 H   0  0  0  0  0  0  0  0  0  0  0  0
   -6.7009    2.3564    5.0548 H   0  0  0  0  0  0  0  0  0  0  0  0
   -6.4088   -8.0339   -4.9684 H   0  0  0  0  0  0  0  0  0  0  0  0
   -4.7762   -8.2470   -5.6325 H   0  0  0  0  0  0  0  0  0  0  0  0
   -4.3730  -10.1158   -4.0334 H   0  0  0  0  0  0  0  0  0  0  0  0
   -5.7887  -10.4395   -5.0390 H   0  0  0  0  0  0  0  0  0  0  0  0
   -5.9953   -9.9037   -3.3676 H   0  0  0  0  0  0  0  0  0  0  0  0
   -6.2256   -3.9812   -2.6136 H   0  0  0  0  0  0  0  0  0  0  0  0
   -7.1234   -4.3175   -7.1018 H   0  0  0  0  0  0  0  0  0  0  0  0
   -8.8762   -4.2109   -6.9790 H   0  0  0  0  0  0  0  0  0  0  0  0
   -7.2798   -4.0646   -9.5897 H   0  0  0  0  0  0  0  0  0  0  0  0
   -8.2220   -5.4591   -9.0426 H   0  0  0  0  0  0  0  0  0  0  0  0
   -9.0301   -3.9442   -9.4705 H   0  0  0  0  0  0  0  0  0  0  0  0
   -6.3875    2.0348   -5.8475 H   0  0  0  0  0  0  0  0  0  0  0  0
   -2.5006    3.1409  -10.6432 H   0  0  0  0  0  0  0  0  0  0  0  0
   -4.0866    3.1740  -11.4408 H   0  0  0  0  0  0  0  0  0  0  0  0
   -4.5478    0.8672  -10.6043 H   0  0  0  0  0  0  0  0  0  0  0  0
   -3.0782    0.9086  -11.5837 H   0  0  0  0  0  0  0  0  0  0  0  0
   -2.9647    0.8332   -9.8214 H   0  0  0  0  0  0  0  0  0  0  0  0
   -4.9977    6.2950    3.0914 H   0  0  0  0  0  0  0  0  0  0  0  0
   -4.6362    4.5761    2.8537 H   0  0  0  0  0  0  0  0  0  0  0  0
   -6.9015    4.8711    3.8303 H   0  0  0  0  0  0  0  0  0  0  0  0
   -7.0037    4.1517    2.2189 H   0  0  0  0  0  0  0  0  0  0  0  0
   -7.3795    5.8620    2.4499 H   0  0  0  0  0  0  0  0  0  0  0  0
   -2.1570    6.1186   -2.1491 H   0  0  0  0  0  0  0  0  0  0  0  0
    0.1651    6.9834   -2.0635 H   0  0  0  0  0  0  0  0  0  0  0  0
    1.9764    7.8277    3.6628 H   0  0  0  0  0  0  0  0  0  0  0  0
    1.4903    9.4632    3.1731 H   0  0  0  0  0  0  0  0  0  0  0  0
    3.5885    9.5116    4.5167 H   0  0  0  0  0  0  0  0  0  0  0  0
    4.3749    8.4562    3.3365 H   0  0  0  0  0  0  0  0  0  0  0  0
    3.8799   10.0873    2.8732 H   0  0  0  0  0  0  0  0  0  0  0  0
    3.9010    2.6117   -9.0599 H   0  0  0  0  0  0  0  0  0  0  0  0
    4.1660    0.9011   -8.6701 H   0  0  0  0  0  0  0  0  0  0  0  0
    6.5447    1.4006   -8.1127 H   0  0  0  0  0  0  0  0  0  0  0  0
    6.1692    1.8892   -9.7680 H   0  0  0  0  0  0  0  0  0  0  0  0
    6.2803    3.1058   -8.4911 H   0  0  0  0  0  0  0  0  0  0  0  0
    5.7327    2.6692   -2.8579 H   0  0  0  0  0  0  0  0  0  0  0  0
    7.0344    3.9398    1.5748 H   0  0  0  0  0  0  0  0  0  0  0  0
    7.6052    6.2314    6.7763 H   0  0  0  0  0  0  0  0  0  0  0  0
    6.1721    5.1920    6.7224 H   0  0  0  0  0  0  0  0  0  0  0  0
    5.5482    6.1469    4.5083 H   0  0  0  0  0  0  0  0  0  0  0  0
    6.9649    7.2023    4.5607 H   0  0  0  0  0  0  0  0  0  0  0  0
    5.6674    7.4099    5.7406 H   0  0  0  0  0  0  0  0  0  0  0  0
    7.6555   -4.4375   -3.4219 H   0  0  0  0  0  0  0  0  0  0  0  0
    6.1537   -3.5773   -3.0320 H   0  0  0  0  0  0  0  0  0  0  0  0
    5.9355   -6.0105   -2.5673 H   0  0  0  0  0  0  0  0  0  0  0  0
    5.8039   -5.0803   -1.0733 H   0  0  0  0  0  0  0  0  0  0  0  0
    7.3057   -5.9320   -1.4580 H   0  0  0  0  0  0  0  0  0  0  0  0
    9.6245   -2.6918    2.3330 H   0  0  0  0  0  0  0  0  0  0  0  0
   10.3954   -2.2623    4.7773 H   0  0  0  0  0  0  0  0  0  0  0  0
  1  2  2  0  0  0  0
  2  3  1  0  0  0  0
  3  4  2  0  0  0  0
  4  5  1  0  0  0  0
  5  6  1  0  0  0  0
  6  7  1  0  0  0  0
  7  8  1  0  0  0  0
  8  9  1  0  0  0  0
  7 10  2  0  0  0  0
 10 11  1  0  0  0  0
 10 12  1  0  0  0  0
 12 13  1  0  0  0  0
  4 14  1  0  0  0  0
 14 15  2  0  0  0  0
 15 16  1  0  0  0  0
 16 17  1  0  0  0  0
 17 18  1  0  0  0  0
 18 19  1  0  0  0  0
 19 20  1  0  0  0  0
 20 21  1  0  0  0  0
 19 22  2  0  0  0  0
 22 23  1  0  0  0  0
 23 24  1  0  0  0  0
 22 25  1  0  0  0  0
 16 26  2  0  0  0  0
 26 27  1  0  0  0  0
 15 28  1  0  0  0  0
 28 29  2  0  0  0  0
 29 30  1  0  0  0  0
 29 31  1  0  0  0  0
 31 32  2  0  0  0  0
 32 33  1  0  0  0  0
 33 34  2  0  0  0  0
 34 35  1  0  0  0  0
 35 36  1  0  0  0  0
 36 37  1  0  0  0  0
 37 38  1  0  0  0  0
 38 39  1  0  0  0  0
 37 40  2  0  0  0  0
 40 41  1  0  0  0  0
 40 42  1  0  0  0  0
 42 43  1  0  0  0  0
 34 44  1  0  0  0  0
 44 45  2  0  0  0  0
 45 46  1  0  0  0  0
 46 47  1  0  0  0  0
 47 48  1  0  0  0  0
 48 49  1  0  0  0  0
 49 50  1  0  0  0  0
 50 51  1  0  0  0  0
 49 52  2  0  0  0  0
 52 53  1  0  0  0  0
 53 54  1  0  0  0  0
 52 55  1  0  0  0  0
 46 56  2  0  0  0  0
 56 57  1  0  0  0  0
 45 58  1  0  0  0  0
 58 59  2  0  0  0  0
 59 60  1  0  0  0  0
 59 61  1  0  0  0  0
 61 62  1  0  0  0  0
 62 63  1  0  0  0  0
 63 64  2  0  0  0  0
 64 65  1  0  0  0  0
 65 66  1  0  0  0  0
 66 67  1  0  0  0  0
 67 68  1  0  0  0  0
 68 69  2  0  0  0  0
 68 70  1  0  0  0  0
 70 71  1  0  0  0  0
 67 72  2  0  0  0  0
 72 73  1  0  0  0  0
 63 74  1  0  0  0  0
 74 75  2  0  0  0  0
 75 76  1  0  0  0  0
 76 77  2  0  0  0  0
 77 78  1  0  0  0  0
 78 79  1  0  0  0  0
 79 80  1  0  0  0  0
 80 81  1  0  0  0  0
 81 82  1  0  0  0  0
 80 83  2  0  0  0  0
 83 84  1  0  0  0  0
 83 85  1  0  0  0  0
 85 86  1  0  0  0  0
 77 87  1  0  0  0  0
 87 88  2  0  0  0  0
 88 89  1  0  0  0  0
 89 90  1  0  0  0  0
 90 91  1  0  0  0  0
 91 92  1  0  0  0  0
 92 93  1  0  0  0  0
 93 94  1  0  0  0  0
 92 95  2  0  0  0  0
 95 96  1  0  0  0  0
 96 97  1  0  0  0  0
 95 98  1  0  0  0  0
 89 99  2  0  0  0  0
 99100  1  0  0  0  0
 88101  1  0  0  0  0
101102  2  0  0  0  0
102103  1  0  0  0  0
102104  1  0  0  0  0
104105  2  0  0  0  0
105106  1  0  0  0  0
106107  2  0  0  0  0
107108  1  0  0  0  0
108109  1  0  0  0  0
109110  1  0  0  0  0
110111  1  0  0  0  0
111112  1  0  0  0  0
110113  2  0  0  0  0
113114  1  0  0  0  0
113115  1  0  0  0  0
115116  1  0  0  0  0
107117  1  0  0  0  0
117118  2  0  0  0  0
118119  1  0  0  0  0
119120  1  0  0  0  0
120121  1  0  0  0  0
121122  1  0  0  0  0
122123  1  0  0  0  0
123124  1  0  0  0  0
122125  2  0  0  0  0
125126  1  0  0  0  0
126127  1  0  0  0  0
125128  1  0  0  0  0
119129  2  0  0  0  0
129130  1  0  0  0  0
118131  1  0  0  0  0
131132  2  0  0  0  0
132133  1  0  0  0  0
132134  1  0  0  0  0
134135  2  0  0  0  0
135136  1  0  0  0  0
136137  2  0  0  0  0
137138  1  0  0  0  0
138139  1  0  0  0  0
139140  1  0  0  0  0
140141  1  0  0  0  0
141142  1  0  0  0  0
140143  2  0  0  0  0
143144  1  0  0  0  0
143145  1  0  0  0  0
145146  1  0  0  0  0
137147  1  0  0  0  0
147148  2  0  0  0  0
148149  1  0  0  0  0
149150  1  0  0  0  0
150151  1  0  0  0  0
151152  1  0  0  0  0
152153  1  0  0  0  0
153154  1  0  0  0  0
152155  2  0  0  0  0
155156  1  0  0  0  0
156157  1  0  0  0  0
155158  1  0  0  0  0
149159  2  0  0  0  0
159160  1  0  0  0  0
148161  1  0  0  0  0
161162  2  0  0  0  0
162163  1  0  0  0  0
 27  1  1  0  0  0  0
 57 31  1  0  0  0  0
 65 61  2  0  0  0  0
100 74  1  0  0  0  0
130104  1  0  0  0  0
160134  1  0  0  0  0
 26  3  1  0  0  0  0
 56 33  1  0  0  0  0
 72 64  1  0  0  0  0
 99 76  1  0  0  0  0
129106  1  0  0  0  0
159136  1  0  0  0  0
 12  5  2  0  0  0  0
 30 14  1  0  0  0  0
 42 35  2  0  0  0  0
 60 44  1  0  0  0  0
 85 78  2  0  0  0  0
103 87  1  0  0  0  0
115108  2  0  0  0  0
133117  1  0  0  0  0
145138  2  0  0  0  0
163147  1  0  0  0  0
 23 17  2  0  0  0  0
 53 47  2  0  0  0  0
 96 90  2  0  0  0  0
126120  2  0  0  0  0
156150  2  0  0  0  0
  1164  1  0  0  0  0
  2165  1  0  0  0  0
  8166  1  0  0  0  0
  8167  1  0  0  0  0
  9168  1  0  0  0  0
  9169  1  0  0  0  0
  9170  1  0  0  0  0
 20171  1  0  0  0  0
 20172  1  0  0  0  0
 21173  1  0  0  0  0
 21174  1  0  0  0  0
 21175  1  0  0  0  0
 28176  1  0  0  0  0
 32177  1  0  0  0  0
 38178  1  0  0  0  0
 38179  1  0  0  0  0
 39180  1  0  0  0  0
 39181  1  0  0  0  0
 39182  1  0  0  0  0
 50183  1  0  0  0  0
 50184  1  0  0  0  0
 51185  1  0  0  0  0
 51186  1  0  0  0  0
 51187  1  0  0  0  0
 58188  1  0  0  0  0
 70189  1  0  0  0  0
 70190  1  0  0  0  0
 71191  1  0  0  0  0
 71192  1  0  0  0  0
 71193  1  0  0  0  0
 75194  1  0  0  0  0
 81195  1  0  0  0  0
 81196  1  0  0  0  0
 82197  1  0  0  0  0
 82198  1  0  0  0  0
 82199  1  0  0  0  0
 93200  1  0  0  0  0
 93201  1  0  0  0  0
 94202  1  0  0  0  0
 94203  1  0  0  0  0
 94204  1  0  0  0  0
101205  1  0  0  0  0
105206  1  0  0  0  0
111207  1  0  0  0  0
111208  1  0  0  0  0
112209  1  0  0  0  0
112210  1  0  0  0  0
112211  1  0  0  0  0
123212  1  0  0  0  0
123213  1  0  0  0  0
124214  1  0  0  0  0
124215  1  0  0  0  0
124216  1  0  0  0  0
131217  1  0  0  0  0
135218  1  0  0  0  0
141219  1  0  0  0  0
141220  1  0  0  0  0
142221  1  0  0  0  0
142222  1  0  0  0  0
142223  1  0  0  0  0
153224  1  0  0  0  0
153225  1  0  0  0  0
154226  1  0  0  0  0
154227  1  0  0  0  0
154228  1  0  0  0  0
161229  1  0  0  0  0
162230  1  0  0  0  0
M  END
