230

C         -0.81580      -10.87870        3.53170
C         -0.06600       -9.76620        3.66830
C         -0.17300       -8.88750        2.55150
C          0.50730       -7.68200        2.33290
C          1.32720       -7.06110        3.35760
S          0.68080       -6.73660        4.93540
C          2.09430       -5.86830        5.42140
C          2.18010       -5.20470        6.75220
C          1.67570       -3.76240        6.66840
C          3.00920       -5.84310        4.41090
Cl         4.53510       -5.06160        4.51940
C          2.57960       -6.52600        3.24470
Cl         3.58460       -6.75200        1.87690
C          0.27740       -7.04150        1.12120
C         -0.65010       -7.51630        0.16300
C         -1.33850       -8.72070        0.38760
C         -2.29600       -9.23040       -0.57930
S         -1.84940       -9.44070       -2.24880
C         -3.40690      -10.06550       -2.67140
C         -3.73770      -10.42640       -4.07740
C         -4.14110       -9.18630       -4.87880
C         -4.21700      -10.09060       -1.57630
C         -3.59140       -9.62510       -0.38790
Cl        -4.43370       -9.50100        1.09760
Cl        -5.84380      -10.63470       -1.60320
C         -1.06150       -9.39160        1.57270
S         -1.71110      -10.93260        2.05370
C         -0.83640       -6.59170       -0.89560
C         -0.07490       -5.46770       -0.77160
S          0.95420       -5.51660        0.64240
C         -0.05550       -4.31640       -1.61270
C          0.79290       -3.25140       -1.53710
C          0.55910       -2.27040       -2.52900
C          1.27280       -1.08190       -2.75310
C          2.30280       -0.62870       -1.82460
S          3.95160       -0.36370       -2.29750
C          4.39400        0.20080       -0.72450
C          5.77910        0.65160       -0.41770
C          5.94690        2.14460       -0.70980
C          3.30930        0.20610        0.10050
Cl         3.35170        0.78700        1.71190
C          2.12770       -0.28520       -0.51380
Cl         0.62510       -0.39670        0.30620
C          0.87090       -0.29930       -3.82420
C         -0.26950       -0.59920       -4.61080
C         -1.02020       -1.75890       -4.34750
C         -2.30210       -1.98120       -4.99720
S         -2.49550       -1.97490       -6.72370
C         -4.21110       -2.16730       -6.61190
C         -5.07760       -2.14520       -7.82220
C         -5.56810       -0.72120       -8.10180
C         -4.59610       -2.23310       -5.30600
C         -3.51870       -2.12930       -4.38710
Cl        -3.75730       -2.08520       -2.68980
Cl        -6.22660       -2.41950       -4.80610
C         -0.55080       -2.59800       -3.34600
S         -1.22980       -4.13790       -2.90110
C         -0.61340        0.47420       -5.46650
C          0.20350        1.56080       -5.34180
S          1.52940        1.26170       -4.22740
C         -0.14890        2.90440       -5.66640
C          0.41450        4.02830       -5.13450
C         -0.50400        5.09910       -4.99080
C         -0.39070        6.16140       -4.07960
C          0.82230        6.34270       -3.28230
S          1.78760        7.78090       -3.30990
C          2.84020        7.18650       -2.07040
C          3.94430        8.01900       -1.51820
C          3.49350        8.72430       -0.23580
C          2.44630        5.94620       -1.66470
Cl         3.25250        5.03070       -0.46230
C          1.29470        5.46820       -2.34400
Cl         0.53950        3.97130       -1.96080
C         -1.56500        6.77840       -3.68340
C         -2.84400        6.40350       -4.16830
C         -2.93990        5.43490       -5.17950
C         -4.23000        4.84960       -5.55340
S         -5.13120        5.29900       -6.96050
C         -6.35150        4.10780       -6.64750
C         -7.49170        3.91270       -7.58460
C         -7.05790        3.11230       -8.81480
C         -6.05460        3.40760       -5.51670
C         -4.85320        3.83330       -4.88940
Cl        -4.24040        3.13820       -3.43980
Cl        -7.01210        2.13120       -4.88790
C         -1.77190        4.78430       -5.54050
S         -1.75530        3.22150       -6.31810
C         -3.87360        6.70630       -3.23760
C         -3.39130        7.18140       -2.04900
S         -1.69470        7.65810       -2.18240
C         -3.81550        6.76850       -0.74380
C         -4.53020        5.61790       -0.53820
C         -4.15850        4.91990        0.63610
C         -4.40090        3.55480        0.89970
C         -5.38390        2.82160        0.12770
S         -5.02450        1.26510       -0.56430
C         -6.57150        1.15860       -1.33120
C         -6.94280       -0.04450       -2.12280
C         -7.10480       -1.27010       -1.22300
C         -7.31740        2.26450       -1.05000
Cl        -8.91330        2.51990       -1.62730
C         -6.64810        3.21050       -0.22990
Cl        -7.40870        4.64780        0.31920
C         -3.54340        2.93590        1.80240
C         -2.52210        3.62860        2.50010
C         -2.33450        5.00660        2.28950
C         -1.16560        5.70550        2.80610
S         -1.28830        7.18520        3.70420
C          0.43090        7.37700        3.76790
C          1.05260        8.57380        4.39810
C          1.14340        9.72670        3.39490
C          1.04710        6.35130        3.11560
C          0.14640        5.39830        2.56970
Cl         0.67230        4.05320        1.64190
Cl         2.74860        6.20470        2.95140
C         -3.15960        5.61650        1.36010
S         -2.84110        7.18320        0.65800
C         -1.67950        2.75270        3.22080
C         -1.98590        1.43370        3.03500
S         -3.44250        1.21760        2.08350
C         -1.16460        0.32010        3.35040
S          0.42780        0.55870        4.02870
C          0.89580       -1.09840        3.77640
C         -0.17660       -1.81710        3.26920
C         -1.31730       -1.00550        3.01270
S         -2.60610       -1.90400        2.28150
C         -1.67880       -3.39550        2.40820
C         -2.25840       -4.67960        1.98960
O         -1.80310       -5.73580        2.36680
C         -3.44560       -4.55650        1.06280
C         -4.06110       -5.90780        0.73450
C         -0.44120       -3.17220        2.94870
F          0.45520       -4.12720        3.18790
C          2.27860       -1.43180        3.86570
C          3.00330       -2.23890        3.03270
C          4.40440       -2.05090        3.15440
C          5.43940       -2.60410        2.37660
C          5.20780       -3.56330        1.31270
S          4.01890       -3.28830        0.07210
C          4.45010       -4.73060       -0.78660
C          3.76250       -5.13230       -2.04360
C          3.97420       -4.11430       -3.16310
C          5.45840       -5.37290       -0.13550
Cl         6.15440       -6.84800       -0.66390
C          5.88680       -4.72270        1.05390
Cl         7.05290       -5.42420        2.09010
C          6.73070       -2.14660        2.63170
C          7.04130       -1.23030        3.66300
C          6.01810       -0.72810        4.48080
C          6.30510        0.18590        5.57350
S          5.50420        1.72140        5.72310
C          6.36070        2.11160        7.17470
C          6.16680        3.41920        7.85990
C          7.13370        4.47280        7.31420
C          7.21780        1.10510        7.50690
C          7.18780        0.01020        6.60280
Cl         8.11740       -1.41390        6.83740
Cl         8.23500        1.13220        8.88870
C          4.72260       -1.11580        4.17170
S          3.29500       -0.49080        4.93940
C          8.41760       -0.86150        3.64960
C          9.10610       -1.45680        2.65440
S          8.14330       -2.50830        1.67900
H         -0.91130      -11.69860        4.21650
H          0.55830       -9.56580        4.51960
H          3.22060       -5.20640        7.08330
H          1.58030       -5.76120        7.47380
H          2.28160       -3.19640        5.96620
H          0.64310       -3.74410        6.32790
H          1.73250       -3.28520        7.64310
H         -2.87040      -10.89490       -4.54610
H         -4.56150      -11.14220       -4.06970
H         -3.32670       -8.46560       -4.89410
H         -5.01310       -8.71640       -4.43110
H         -4.38120       -9.46430       -5.90140
H         -1.52460       -6.73670       -1.70950
H          1.57350       -3.17540       -0.80190
H          6.48670        0.07840       -1.01870
H          5.98310        0.45990        0.63860
H          5.25560        2.72670       -0.10610
H          6.96080        2.45910       -0.47810
H          5.74710        2.34880       -1.75910
H         -4.51490       -2.51450       -8.68070
H         -5.93620       -2.79930       -7.65700
H         -6.13470       -0.34590       -7.25300
H         -4.72340       -0.05820       -8.27660
H         -6.20710       -0.71340       -8.98090
H         -1.48870        0.48350       -6.09040
H          1.40530        4.03820       -4.71720
H          4.24660        8.75970       -2.25960
H          4.79760        7.37470       -1.29570
H          3.21200        7.99070        0.51530
H          2.63680        9.36340       -0.43740
H          4.30150        9.33470        0.15850
H         -8.28620        3.37930       -7.06000
H         -7.87320        4.88520       -7.90140
H         -6.68490        2.13590       -8.51690
H         -6.26930        3.63820       -9.34750
H         -7.90120        2.97470       -9.48580
H         -4.89330        6.39830       -3.38230
H         -5.15530        5.18570       -1.29740
H         -6.16280       -0.24410       -2.86060
H         -7.87630        0.15620       -2.65120
H         -6.17660       -1.47160       -0.69280
H         -7.89410       -1.10480       -0.49360
H         -7.35990       -2.13940       -1.82300
H          2.05400        8.30990        4.74330
H          0.45500        8.88440        5.25650
H          1.75300        9.43720        2.54280
H          1.59220       10.59700        3.86590
H          0.15180        9.99380        3.03780
H         -0.83930        3.07650        3.80790
H         -4.18270       -3.90120        1.53540
H         -3.10820       -4.05510        0.15060
H         -4.90960       -5.78670        0.06640
H         -4.39510       -6.39920        1.64460
H         -3.32580       -6.54970        0.25730
H          2.55110       -2.89090        2.30810
H          4.15360       -6.10520       -2.34590
H          2.69220       -5.23950       -1.85160
H          3.57740       -3.14410       -2.87570
H          3.46650       -4.44340       -4.06580
H          5.03360       -4.00330       -3.37970
H          5.13960        3.75530        7.71100
H          6.34140        3.28420        8.92910
H          6.96690        4.62230        6.25020
H          8.16190        4.15390        7.46460
H          6.98370        5.41850        7.82790
H          8.85110       -0.16660        4.34460
H         10.14690       -1.35020        2.41830
