206

C          5.16300       -7.64510        8.08840
C          4.76000       -6.43610        7.64740
C          3.95520       -6.51600        6.47370
C          3.33180       -5.47020        5.77400
C          3.63750       -4.08090        6.07310
S          2.41550       -2.86850        6.31580
C          3.58940       -1.61760        6.53750
C          3.19910       -0.19940        6.77030
C          3.26620        0.60270        5.46950
C          4.85000       -2.12080        6.41000
Cl         6.27350       -1.17410        6.55470
C          4.88210       -3.51530        6.14920
Cl         6.34790       -4.36530        5.87600
C          2.47320       -5.82940        4.74200
C          2.30190       -7.16910        4.31470
C          2.98180       -8.20910        4.96960
C          2.85220       -9.58930        4.53350
S          1.29190      -10.33470        4.34260
C          1.98250      -11.84410        3.85430
C          1.12110      -12.98950        3.45180
C          0.63780      -12.82620        2.00850
C          3.34240      -11.75740        3.83780
C          3.83960      -10.48460        4.22840
Cl         5.51190      -10.11120        4.21750
Cl         4.37890      -13.05080        3.39410
C          3.77150       -7.85640        6.05850
S          4.60600       -8.95970        7.11420
C          1.45480       -7.25550        3.18000
C          0.95970       -6.05240        2.78210
S          1.53940       -4.72730        3.77290
C          0.10320       -5.76540        1.67640
C         -0.62390       -4.63050        1.48700
C         -1.29590       -4.59130        0.24110
C         -2.03510       -3.52670       -0.30090
C         -2.22240       -2.29980        0.45940
S         -2.90590       -2.31910        2.05740
C         -2.65030       -0.62290        2.27580
C         -3.01890        0.04230        3.55330
C         -4.50270       -0.12180        3.87750
C         -2.07350       -0.08490        1.16480
Cl        -1.64150        1.57380        1.01720
C         -1.83120       -1.02990        0.13070
Cl        -1.04600       -0.60070       -1.33340
C         -2.45020       -3.66200       -1.61730
C         -2.10640       -4.77100       -2.43260
C         -1.42920       -5.86560       -1.86680
C         -1.08470       -7.04800       -2.63960
S         -0.21990       -6.94190       -4.14530
C         -0.16800       -8.66160       -4.33180
C          0.44110       -9.28650       -5.53790
C         -0.52460       -9.24310       -6.72450
C         -0.79700       -9.26830       -3.28640
C         -1.30940       -8.35930       -2.32200
Cl        -2.19280       -8.88310       -0.95060
Cl        -0.95990      -10.96840       -3.12120
C         -1.04370       -5.74900       -0.53450
S         -0.03830       -6.87850        0.33190
C         -2.44480       -4.54310       -3.79420
C         -3.05340       -3.34580       -4.00870
S         -3.33920       -2.46840       -2.51130
C         -3.14550       -2.54740       -5.19850
C         -3.96180       -1.47740       -5.40830
C         -3.41300       -0.51140       -6.28980
C         -3.85010        0.81060       -6.50610
C         -5.19040        1.27800       -6.20890
S         -6.03910        0.90540       -4.73730
C         -7.41340        1.85330       -5.18760
C         -8.57910        2.00810       -4.27510
C         -8.36750        3.17900       -3.31190
C         -7.21200        2.42580       -6.40790
Cl        -8.35790        3.43430       -7.19110
C         -5.95700        2.10500       -6.98840
Cl        -5.51080        2.64530       -8.55210
C         -2.86710        1.71410       -6.89890
C         -1.54130        1.33740       -7.22350
C         -1.21640       -0.02930       -7.32290
C          0.05660       -0.52460       -7.81030
S          1.59530        0.11740       -7.31520
C          2.47680       -1.03610       -8.25520
C          3.96340       -1.00420       -8.32170
C          4.44110       -0.03550       -9.40640
C          1.61670       -1.85730       -8.92090
C          0.24850       -1.58000       -8.66320
Cl        -1.01810       -2.44500       -9.42630
Cl         2.11840       -3.12000       -9.96810
C         -2.14480       -0.91130       -6.77750
S         -1.75020       -2.53090       -6.26670
C         -0.65150        2.43870       -7.15370
C         -1.25170        3.59640       -6.75760
S         -3.00350        3.44080       -6.68660
C         -0.63960        4.65670       -6.01700
S          0.55460        4.16650       -4.83390
C          0.38040        5.62040       -3.89220
C         -0.46550        6.50930       -4.55690
C         -1.04680        5.93500       -5.73020
S         -2.18010        6.99260       -6.50240
C         -1.89360        8.22870       -5.28890
C         -2.57630        9.52870       -5.32450
O         -2.31690       10.40190       -4.52840
C         -3.63960        9.67880       -6.38880
C         -4.93690        9.01630       -5.91850
C         -0.97760        7.81740       -4.35410
F         -0.59010        8.59350       -3.34540
C          0.85670        5.59050       -2.55220
C          0.67370        6.48610       -1.53350
C          0.98020        5.95850       -0.25680
C          0.80830        6.58910        0.99340
C          0.54710        8.01190        1.07040
S         -0.70790        8.67310        2.07600
C         -0.34840       10.29400        1.59340
C         -1.08680       11.45280        2.16510
C         -0.43260       11.92450        3.46620
C          0.69860       10.31010        0.71930
Cl         1.35280       11.74080        0.03870
C          1.20360        9.01970        0.41330
Cl         2.56100        8.78510       -0.60660
C          0.88240        5.77180        2.11460
C          1.22430        4.40080        2.03440
C          1.59320        3.82280        0.80490
C          2.10390        2.46620        0.76780
S          1.49560        1.26830       -0.33030
C          2.51960        0.03920        0.31660
C          2.45700       -1.36740       -0.16780
C          1.69250       -2.24990        0.82130
C          3.29420        0.54320        1.32110
C          3.06410        1.91750        1.57890
Cl         3.97810        2.80170        2.73110
Cl         4.44590       -0.38670        2.19110
C          1.40030        4.60640       -0.32290
S          1.53110        4.06950       -1.96950
C          1.08700        3.74300        3.27700
C          0.71490        4.57490        4.29240
S          0.53280        6.23410        3.75950
C          0.45190        4.16360        5.63200
S          0.48110        5.24280        7.00040
C          0.13140        3.98970        8.11380
C         -0.01290        2.78240        7.47580
C          0.16680        2.88800        6.06330
S         -0.08450        1.37600        5.24940
C         -0.39320        0.57870        6.78810
C         -0.70180       -0.85190        6.69860
O         -0.84750       -1.35990        5.60690
C         -0.82240       -1.60580        7.99780
C         -1.13430       -3.07630        7.76280
C         -0.31600        1.44180        7.84340
F         -0.51340        1.08400        9.11840
H          5.76810       -7.86480        8.94620
H          4.99760       -5.51150        8.14040
H          3.88170        0.23970        7.50170
H          2.18590       -0.16600        7.17390
H          2.99570        1.64010        5.65100
H          2.58410        0.18440        4.73280
H          4.27360        0.57500        5.06440
H          1.69890      -13.91070        3.54380
H          0.25850      -13.04830        4.11820
H          1.48580      -12.77570        1.33010
H          0.05550      -11.91350        1.90550
H          0.01550      -13.67080        1.72550
H          1.21460       -8.17460        2.67730
H         -0.65750       -3.84230        2.21650
H         -2.42120       -0.40420        4.35220
H         -2.76300        1.10040        3.47820
H         -4.73570        0.36740        4.81980
H         -4.75570       -1.17610        3.96090
H         -5.11470        0.32180        3.09550
H          0.69070      -10.32300       -5.30490
H          1.35830       -8.75530       -5.79880
H         -0.77260       -8.21350       -6.97140
H         -0.06890       -9.71000       -7.59330
H         -1.44190       -9.77480       -6.48420
H         -2.19640       -5.21710       -4.59330
H         -4.86900       -1.33120       -4.85150
H         -9.47280        2.18730       -4.87580
H         -8.71760        1.08820       -3.70470
H         -7.48100        3.01270       -2.70450
H         -9.22720        3.28130       -2.65540
H         -8.24040        4.10480       -3.86710
H          4.36330       -0.69400       -7.35500
H          4.32490       -2.00960       -8.54540
H          5.52690       -0.02670       -9.44640
H          4.05890       -0.33910      -10.37760
H          4.09110        0.97190       -9.19380
H          0.41320        2.35530       -7.27050
H         -3.30760        9.22200       -7.32260
H         -3.81220       10.74400       -6.54770
H         -5.71670        9.16300       -6.66140
H         -5.26420        9.45710       -4.97960
H         -4.79700        7.94760       -5.77300
H          0.26720        7.46880       -1.66820
H         -2.12060       11.16380        2.36050
H         -1.08080       12.26590        1.43700
H          0.59470       12.22800        3.28170
H         -0.43210       11.12220        4.20040
H         -0.97870       12.77130        3.87270
H          1.96100       -1.39120       -1.13890
H          3.47330       -1.75130       -0.28400
H          1.63210       -3.26640        0.44240
H          2.19200       -2.26750        1.78610
H          0.68390       -1.87040        0.96150
H          1.23690        2.68780        3.40710
H          0.04770        4.20330        9.15990
H          0.11520       -1.49510        8.54880
H         -1.60460       -1.13550        8.59940
H         -2.07390       -3.18010        7.22630
H         -1.20830       -3.60270        8.71030
H         -0.35030       -3.53190        7.16320
