
  xtb     03012203163D
 energy: -413.171495936047 gnorm: 0.000691060005 xtb: 6.4.1 (unknown)
206229  0     0  0            999 V2000
    3.7653  -11.5219    3.0211 C   0  0  0  0  0  0  0  0  0  0  0  0
    2.2301  -11.1177    3.6887 S   0  0  0  0  0  0  0  0  0  0  0  0
    1.8161  -10.0884    2.3487 C   0  0  0  0  0  0  0  0  0  0  0  0
    2.8566  -10.0621    1.4341 C   0  0  0  0  0  0  0  0  0  0  0  0
    3.9527  -10.8888    1.8334 C   0  0  0  0  0  0  0  0  0  0  0  0
    5.2777  -10.7999    0.7110 S   0  0  0  0  0  0  0  0  0  0  0  0
    4.4205   -9.6003   -0.2537 C   0  0  0  0  0  0  0  0  0  0  0  0
    5.0493   -8.9677   -1.4211 C   0  0  0  0  0  0  0  0  0  0  0  0
    4.5019   -8.0836   -2.0389 O   0  0  0  0  0  0  0  0  0  0  0  0
    6.4178   -9.5078   -1.7719 C   0  0  0  0  0  0  0  0  0  0  0  0
    7.0433   -8.7571   -2.9387 C   0  0  0  0  0  0  0  0  0  0  0  0
    3.1760   -9.3371    0.2547 C   0  0  0  0  0  0  0  0  0  0  0  0
    2.3408   -8.4483   -0.2747 F   0  0  0  0  0  0  0  0  0  0  0  0
    0.5621   -9.4105    2.2891 C   0  0  0  0  0  0  0  0  0  0  0  0
   -0.0887   -8.5700    3.6724 S   0  0  0  0  0  0  0  0  0  0  0  0
   -1.4813   -7.9968    2.8026 C   0  0  0  0  0  0  0  0  0  0  0  0
   -1.4729   -8.5051    1.5022 C   0  0  0  0  0  0  0  0  0  0  0  0
   -0.3034   -9.2751    1.2288 C   0  0  0  0  0  0  0  0  0  0  0  0
   -0.2795   -9.9138   -0.3790 S   0  0  0  0  0  0  0  0  0  0  0  0
   -1.8290   -9.1733   -0.7250 C   0  0  0  0  0  0  0  0  0  0  0  0
   -2.4843   -9.2997   -2.0344 C   0  0  0  0  0  0  0  0  0  0  0  0
   -3.5642   -8.7999   -2.2510 O   0  0  0  0  0  0  0  0  0  0  0  0
   -1.7383  -10.1183   -3.0633 C   0  0  0  0  0  0  0  0  0  0  0  0
   -2.0235  -11.6056   -2.8408 C   0  0  0  0  0  0  0  0  0  0  0  0
   -2.3103   -8.4781    0.3546 C   0  0  0  0  0  0  0  0  0  0  0  0
   -3.4871   -7.8603    0.3261 F   0  0  0  0  0  0  0  0  0  0  0  0
   -2.3018   -7.0107    3.4145 C   0  0  0  0  0  0  0  0  0  0  0  0
   -3.4074   -6.3684    2.9275 C   0  0  0  0  0  0  0  0  0  0  0  0
   -3.7853   -5.2408    3.6922 C   0  0  0  0  0  0  0  0  0  0  0  0
   -4.7211   -4.2505    3.3394 C   0  0  0  0  0  0  0  0  0  0  0  0
   -5.4657   -4.3379    2.0919 C   0  0  0  0  0  0  0  0  0  0  0  0
   -7.2012   -4.2962    2.0558 S   0  0  0  0  0  0  0  0  0  0  0  0
   -7.2429   -4.4357    0.3320 C   0  0  0  0  0  0  0  0  0  0  0  0
   -8.5308   -4.5328   -0.4083 C   0  0  0  0  0  0  0  0  0  0  0  0
   -8.9538   -5.9946   -0.5747 C   0  0  0  0  0  0  0  0  0  0  0  0
   -5.9779   -4.5062   -0.1724 C   0  0  0  0  0  0  0  0  0  0  0  0
   -5.6183   -4.6493   -1.8421 Cl  0  0  0  0  0  0  0  0  0  0  0  0
   -4.9667   -4.4465    0.8234 C   0  0  0  0  0  0  0  0  0  0  0  0
   -3.2947   -4.4310    0.4437 Cl  0  0  0  0  0  0  0  0  0  0  0  0
   -4.7952   -3.1355    4.1588 C   0  0  0  0  0  0  0  0  0  0  0  0
   -3.9951   -2.9812    5.3187 C   0  0  0  0  0  0  0  0  0  0  0  0
   -3.0726   -3.9783    5.6855 C   0  0  0  0  0  0  0  0  0  0  0  0
   -2.1488   -3.7855    6.7912 C   0  0  0  0  0  0  0  0  0  0  0  0
   -1.1787   -2.3439    6.8972 S   0  0  0  0  0  0  0  0  0  0  0  0
   -0.3849   -2.8855    8.3357 C   0  0  0  0  0  0  0  0  0  0  0  0
    0.6506   -2.0479    9.0037 C   0  0  0  0  0  0  0  0  0  0  0  0
    0.2788   -0.5676    9.0062 C   0  0  0  0  0  0  0  0  0  0  0  0
   -0.8469   -4.1172    8.6931 C   0  0  0  0  0  0  0  0  0  0  0  0
   -1.8393   -4.6344    7.8163 C   0  0  0  0  0  0  0  0  0  0  0  0
   -2.6128   -6.1396    8.0844 Cl  0  0  0  0  0  0  0  0  0  0  0  0
   -0.3022   -4.9827   10.0717 Cl  0  0  0  0  0  0  0  0  0  0  0  0
   -2.9811   -5.0814    4.8487 C   0  0  0  0  0  0  0  0  0  0  0  0
   -1.7681   -6.3208    4.9438 S   0  0  0  0  0  0  0  0  0  0  0  0
   -4.1185   -1.6876    5.8710 C   0  0  0  0  0  0  0  0  0  0  0  0
   -4.8918   -0.8428    5.1261 C   0  0  0  0  0  0  0  0  0  0  0  0
   -5.6683   -1.6700    3.7881 S   0  0  0  0  0  0  0  0  0  0  0  0
   -4.7947    0.5796    5.1667 C   0  0  0  0  0  0  0  0  0  0  0  0
   -5.2313    1.4821    4.2402 C   0  0  0  0  0  0  0  0  0  0  0  0
   -4.5135    2.7061    4.2595 C   0  0  0  0  0  0  0  0  0  0  0  0
   -4.5113    3.7375    3.2995 C   0  0  0  0  0  0  0  0  0  0  0  0
   -5.5070    3.8414    2.2477 C   0  0  0  0  0  0  0  0  0  0  0  0
   -5.9805    2.4970    1.2512 S   0  0  0  0  0  0  0  0  0  0  0  0
   -7.0669    3.4642    0.3164 C   0  0  0  0  0  0  0  0  0  0  0  0
   -7.8277    2.8883   -0.8260 C   0  0  0  0  0  0  0  0  0  0  0  0
   -7.0098    2.9547   -2.1183 C   0  0  0  0  0  0  0  0  0  0  0  0
   -7.0493    4.7542    0.7565 C   0  0  0  0  0  0  0  0  0  0  0  0
   -8.0026    6.0084    0.0781 Cl  0  0  0  0  0  0  0  0  0  0  0  0
   -6.1675    4.9726    1.8474 C   0  0  0  0  0  0  0  0  0  0  0  0
   -6.0301    6.4943    2.6224 Cl  0  0  0  0  0  0  0  0  0  0  0  0
   -3.4289    4.6130    3.3265 C   0  0  0  0  0  0  0  0  0  0  0  0
   -2.4239    4.5749    4.3246 C   0  0  0  0  0  0  0  0  0  0  0  0
   -2.5145    3.6442    5.3694 C   0  0  0  0  0  0  0  0  0  0  0  0
   -1.4694    3.4896    6.3761 C   0  0  0  0  0  0  0  0  0  0  0  0
   -1.8137    3.6747    8.0673 S   0  0  0  0  0  0  0  0  0  0  0  0
   -0.2004    3.2419    8.5229 C   0  0  0  0  0  0  0  0  0  0  0  0
    0.2203    3.2404    9.9510 C   0  0  0  0  0  0  0  0  0  0  0  0
    0.3553    4.6654   10.4910 C   0  0  0  0  0  0  0  0  0  0  0  0
    0.5467    2.9756    7.4154 C   0  0  0  0  0  0  0  0  0  0  0  0
   -0.1702    3.1097    6.1955 C   0  0  0  0  0  0  0  0  0  0  0  0
    0.5328    2.7502    4.6673 Cl  0  0  0  0  0  0  0  0  0  0  0  0
    2.1917    2.4932    7.4593 Cl  0  0  0  0  0  0  0  0  0  0  0  0
   -3.5426    2.7198    5.2917 C   0  0  0  0  0  0  0  0  0  0  0  0
   -3.6048    1.2757    6.2580 S   0  0  0  0  0  0  0  0  0  0  0  0
   -1.2948    5.3545    3.9785 C   0  0  0  0  0  0  0  0  0  0  0  0
   -1.3738    5.8879    2.7250 C   0  0  0  0  0  0  0  0  0  0  0  0
   -2.9580    5.6545    2.0092 S   0  0  0  0  0  0  0  0  0  0  0  0
   -0.2443    6.1956    1.8977 C   0  0  0  0  0  0  0  0  0  0  0  0
    0.9369    5.5264    2.0368 C   0  0  0  0  0  0  0  0  0  0  0  0
    1.7709    5.6094    0.9002 C   0  0  0  0  0  0  0  0  0  0  0  0
    2.9094    4.8257    0.6540 C   0  0  0  0  0  0  0  0  0  0  0  0
    3.4256    3.9439    1.6912 C   0  0  0  0  0  0  0  0  0  0  0  0
    3.9675    4.5807    3.2162 S   0  0  0  0  0  0  0  0  0  0  0  0
    4.3131    3.0050    3.8411 C   0  0  0  0  0  0  0  0  0  0  0  0
    4.9130    2.8210    5.1907 C   0  0  0  0  0  0  0  0  0  0  0  0
    6.4407    2.8701    5.1200 C   0  0  0  0  0  0  0  0  0  0  0  0
    4.0222    2.0538    2.9102 C   0  0  0  0  0  0  0  0  0  0  0  0
    4.2219    0.3705    3.1713 Cl  0  0  0  0  0  0  0  0  0  0  0  0
    3.5141    2.5805    1.6913 C   0  0  0  0  0  0  0  0  0  0  0  0
    2.9963    1.5775    0.4006 Cl  0  0  0  0  0  0  0  0  0  0  0  0
    3.4183    4.8596   -0.6334 C   0  0  0  0  0  0  0  0  0  0  0  0
    2.9010    5.7129   -1.6414 C   0  0  0  0  0  0  0  0  0  0  0  0
    1.8100    6.5599   -1.3636 C   0  0  0  0  0  0  0  0  0  0  0  0
    1.3118    7.4785   -2.3695 C   0  0  0  0  0  0  0  0  0  0  0  0
   -0.3807    7.6089   -2.7447 S   0  0  0  0  0  0  0  0  0  0  0  0
   -0.1018    8.8266   -3.9415 C   0  0  0  0  0  0  0  0  0  0  0  0
   -1.2341    9.4599   -4.6711 C   0  0  0  0  0  0  0  0  0  0  0  0
   -1.8929   10.5443   -3.8151 C   0  0  0  0  0  0  0  0  0  0  0  0
    1.2279    9.1153   -4.0245 C   0  0  0  0  0  0  0  0  0  0  0  0
    2.0337    8.3507   -3.1401 C   0  0  0  0  0  0  0  0  0  0  0  0
    3.7290    8.5852   -3.0095 Cl  0  0  0  0  0  0  0  0  0  0  0  0
    1.8904   10.2836   -5.0927 Cl  0  0  0  0  0  0  0  0  0  0  0  0
    1.2161    6.4258   -0.1126 C   0  0  0  0  0  0  0  0  0  0  0  0
   -0.3190    7.0882    0.3939 S   0  0  0  0  0  0  0  0  0  0  0  0
    3.5016    5.4525   -2.9003 C   0  0  0  0  0  0  0  0  0  0  0  0
    4.4123    4.4401   -2.8659 C   0  0  0  0  0  0  0  0  0  0  0  0
    4.6616    3.8158   -1.2512 S   0  0  0  0  0  0  0  0  0  0  0  0
    5.0024    3.7520   -3.9725 C   0  0  0  0  0  0  0  0  0  0  0  0
    5.2648    2.4170   -4.0201 C   0  0  0  0  0  0  0  0  0  0  0  0
    5.6543    1.9636   -5.3046 C   0  0  0  0  0  0  0  0  0  0  0  0
    5.8872    0.6411   -5.7201 C   0  0  0  0  0  0  0  0  0  0  0  0
    5.5485   -0.4741   -4.8540 C   0  0  0  0  0  0  0  0  0  0  0  0
    6.6096   -1.8261   -4.5880 S   0  0  0  0  0  0  0  0  0  0  0  0
    5.4728   -2.6211   -3.5540 C   0  0  0  0  0  0  0  0  0  0  0  0
    5.7337   -3.9644   -2.9664 C   0  0  0  0  0  0  0  0  0  0  0  0
    5.0597   -5.0610   -3.7964 C   0  0  0  0  0  0  0  0  0  0  0  0
    4.3363   -1.8754   -3.4400 C   0  0  0  0  0  0  0  0  0  0  0  0
    2.9814   -2.3380   -2.4928 Cl  0  0  0  0  0  0  0  0  0  0  0  0
    4.3730   -0.6626   -4.1746 C   0  0  0  0  0  0  0  0  0  0  0  0
    3.0151    0.3849   -4.2619 Cl  0  0  0  0  0  0  0  0  0  0  0  0
    6.3512    0.4687   -7.0193 C   0  0  0  0  0  0  0  0  0  0  0  0
    6.5326    1.5450   -7.9210 C   0  0  0  0  0  0  0  0  0  0  0  0
    6.2348    2.8580   -7.5219 C   0  0  0  0  0  0  0  0  0  0  0  0
    6.4064    3.9883   -8.4203 C   0  0  0  0  0  0  0  0  0  0  0  0
    5.1180    5.1163   -8.7159 S   0  0  0  0  0  0  0  0  0  0  0  0
    6.0989    6.0809   -9.7665 C   0  0  0  0  0  0  0  0  0  0  0  0
    5.5705    7.3354  -10.3691 C   0  0  0  0  0  0  0  0  0  0  0  0
    5.5444    8.4654   -9.3373 C   0  0  0  0  0  0  0  0  0  0  0  0
    7.3506    5.5513   -9.8646 C   0  0  0  0  0  0  0  0  0  0  0  0
    7.5277    4.3623   -9.1066 C   0  0  0  0  0  0  0  0  0  0  0  0
    9.0333    3.5431   -9.0113 Cl  0  0  0  0  0  0  0  0  0  0  0  0
    8.6113    6.2341  -10.8081 Cl  0  0  0  0  0  0  0  0  0  0  0  0
    5.7764    3.0327   -6.2228 C   0  0  0  0  0  0  0  0  0  0  0  0
    5.3010    4.5475   -5.5022 S   0  0  0  0  0  0  0  0  0  0  0  0
    6.9413    1.0866   -9.2078 C   0  0  0  0  0  0  0  0  0  0  0  0
    7.0757   -0.2535   -9.2676 C   0  0  0  0  0  0  0  0  0  0  0  0
    6.7058   -1.0562   -7.7805 S   0  0  0  0  0  0  0  0  0  0  0  0
    4.4228  -12.1837    3.5452 H   0  0  0  0  0  0  0  0  0  0  0  0
    7.0537   -9.4419   -0.8852 H   0  0  0  0  0  0  0  0  0  0  0  0
    6.3074  -10.5691   -2.0114 H   0  0  0  0  0  0  0  0  0  0  0  0
    6.3889   -8.7991   -3.8057 H   0  0  0  0  0  0  0  0  0  0  0  0
    8.0039   -9.1930   -3.1994 H   0  0  0  0  0  0  0  0  0  0  0  0
    7.1913   -7.7121   -2.6778 H   0  0  0  0  0  0  0  0  0  0  0  0
   -0.6659   -9.9287   -2.9949 H   0  0  0  0  0  0  0  0  0  0  0  0
   -2.0946   -9.8253   -4.0518 H   0  0  0  0  0  0  0  0  0  0  0  0
   -3.0928  -11.7949   -2.9009 H   0  0  0  0  0  0  0  0  0  0  0  0
   -1.6663  -11.9280   -1.8653 H   0  0  0  0  0  0  0  0  0  0  0  0
   -1.5227  -12.1963   -3.6035 H   0  0  0  0  0  0  0  0  0  0  0  0
   -3.9283   -6.6596    2.0386 H   0  0  0  0  0  0  0  0  0  0  0  0
   -9.3038   -3.9869    0.1348 H   0  0  0  0  0  0  0  0  0  0  0  0
   -8.4028   -4.0778   -1.3925 H   0  0  0  0  0  0  0  0  0  0  0  0
   -9.0933   -6.4605    0.3978 H   0  0  0  0  0  0  0  0  0  0  0  0
   -9.8876   -6.0524   -1.1274 H   0  0  0  0  0  0  0  0  0  0  0  0
   -8.1915   -6.5465   -1.1182 H   0  0  0  0  0  0  0  0  0  0  0  0
    0.7777   -2.4103   10.0258 H   0  0  0  0  0  0  0  0  0  0  0  0
    1.6051   -2.1763    8.4835 H   0  0  0  0  0  0  0  0  0  0  0  0
   -0.6654   -0.4113    9.5222 H   0  0  0  0  0  0  0  0  0  0  0  0
    1.0504    0.0099    9.5076 H   0  0  0  0  0  0  0  0  0  0  0  0
    0.1780   -0.1997    7.9876 H   0  0  0  0  0  0  0  0  0  0  0  0
   -3.5850   -1.3540    6.7418 H   0  0  0  0  0  0  0  0  0  0  0  0
   -5.9665    1.2283    3.4984 H   0  0  0  0  0  0  0  0  0  0  0  0
   -8.0780    1.8489   -0.6071 H   0  0  0  0  0  0  0  0  0  0  0  0
   -8.7529    3.4543   -0.9508 H   0  0  0  0  0  0  0  0  0  0  0  0
   -6.0867    2.3902   -2.0108 H   0  0  0  0  0  0  0  0  0  0  0  0
   -6.7611    3.9861   -2.3547 H   0  0  0  0  0  0  0  0  0  0  0  0
   -7.5812    2.5358   -2.9421 H   0  0  0  0  0  0  0  0  0  0  0  0
    1.1783    2.7242   10.0302 H   0  0  0  0  0  0  0  0  0  0  0  0
   -0.5185    2.6985   10.5448 H   0  0  0  0  0  0  0  0  0  0  0  0
    1.1001    5.2163    9.9221 H   0  0  0  0  0  0  0  0  0  0  0  0
   -0.5954    5.1876   10.4170 H   0  0  0  0  0  0  0  0  0  0  0  0
    0.6610    4.6419   11.5334 H   0  0  0  0  0  0  0  0  0  0  0  0
   -0.4237    5.4394    4.6006 H   0  0  0  0  0  0  0  0  0  0  0  0
    1.1540    4.8938    2.8767 H   0  0  0  0  0  0  0  0  0  0  0  0
    4.5532    3.6061    5.8576 H   0  0  0  0  0  0  0  0  0  0  0  0
    4.5967    1.8533    5.5850 H   0  0  0  0  0  0  0  0  0  0  0  0
    6.8126    2.0841    4.4677 H   0  0  0  0  0  0  0  0  0  0  0  0
    6.8646    2.7312    6.1109 H   0  0  0  0  0  0  0  0  0  0  0  0
    6.7698    3.8304    4.7301 H   0  0  0  0  0  0  0  0  0  0  0  0
   -1.9745    8.6989   -4.9238 H   0  0  0  0  0  0  0  0  0  0  0  0
   -0.8538    9.9000   -5.5945 H   0  0  0  0  0  0  0  0  0  0  0  0
   -2.7182   10.9980   -4.3571 H   0  0  0  0  0  0  0  0  0  0  0  0
   -2.2740   10.1146   -2.8918 H   0  0  0  0  0  0  0  0  0  0  0  0
   -1.1714   11.3185   -3.5667 H   0  0  0  0  0  0  0  0  0  0  0  0
    3.2092    5.9313   -3.8170 H   0  0  0  0  0  0  0  0  0  0  0  0
    5.1621    1.7760   -3.1637 H   0  0  0  0  0  0  0  0  0  0  0  0
    6.8092   -4.1405   -2.9199 H   0  0  0  0  0  0  0  0  0  0  0  0
    5.3294   -3.9860   -1.9520 H   0  0  0  0  0  0  0  0  0  0  0  0
    5.1481   -6.0215   -3.2968 H   0  0  0  0  0  0  0  0  0  0  0  0
    5.5156   -5.1256   -4.7815 H   0  0  0  0  0  0  0  0  0  0  0  0
    4.0024   -4.8408   -3.9161 H   0  0  0  0  0  0  0  0  0  0  0  0
    6.2088    7.6162  -11.2085 H   0  0  0  0  0  0  0  0  0  0  0  0
    4.5588    7.1624  -10.7411 H   0  0  0  0  0  0  0  0  0  0  0  0
    4.9111    8.1929   -8.4964 H   0  0  0  0  0  0  0  0  0  0  0  0
    6.5475    8.6612   -8.9668 H   0  0  0  0  0  0  0  0  0  0  0  0
    5.1559    9.3745   -9.7882 H   0  0  0  0  0  0  0  0  0  0  0  0
    7.1094    1.7401  -10.0435 H   0  0  0  0  0  0  0  0  0  0  0  0
    7.3713   -0.8481  -10.1098 H   0  0  0  0  0  0  0  0  0  0  0  0
  1  2  1  0  0  0  0
  2  3  1  0  0  0  0
  3  4  2  0  0  0  0
  4  5  1  0  0  0  0
  5  6  1  0  0  0  0
  6  7  1  0  0  0  0
  7  8  1  0  0  0  0
  8  9  2  0  0  0  0
  8 10  1  0  0  0  0
 10 11  1  0  0  0  0
  7 12  2  0  0  0  0
 12 13  1  0  0  0  0
  3 14  1  0  0  0  0
 14 15  1  0  0  0  0
 15 16  1  0  0  0  0
 16 17  2  0  0  0  0
 17 18  1  0  0  0  0
 18 19  1  0  0  0  0
 19 20  1  0  0  0  0
 20 21  1  0  0  0  0
 21 22  2  0  0  0  0
 21 23  1  0  0  0  0
 23 24  1  0  0  0  0
 20 25  2  0  0  0  0
 25 26  1  0  0  0  0
 16 27  1  0  0  0  0
 27 28  2  0  0  0  0
 28 29  1  0  0  0  0
 29 30  2  0  0  0  0
 30 31  1  0  0  0  0
 31 32  1  0  0  0  0
 32 33  1  0  0  0  0
 33 34  1  0  0  0  0
 34 35  1  0  0  0  0
 33 36  2  0  0  0  0
 36 37  1  0  0  0  0
 36 38  1  0  0  0  0
 38 39  1  0  0  0  0
 30 40  1  0  0  0  0
 40 41  2  0  0  0  0
 41 42  1  0  0  0  0
 42 43  1  0  0  0  0
 43 44  1  0  0  0  0
 44 45  1  0  0  0  0
 45 46  1  0  0  0  0
 46 47  1  0  0  0  0
 45 48  2  0  0  0  0
 48 49  1  0  0  0  0
 49 50  1  0  0  0  0
 48 51  1  0  0  0  0
 42 52  2  0  0  0  0
 52 53  1  0  0  0  0
 41 54  1  0  0  0  0
 54 55  2  0  0  0  0
 55 56  1  0  0  0  0
 55 57  1  0  0  0  0
 57 58  2  0  0  0  0
 58 59  1  0  0  0  0
 59 60  2  0  0  0  0
 60 61  1  0  0  0  0
 61 62  1  0  0  0  0
 62 63  1  0  0  0  0
 63 64  1  0  0  0  0
 64 65  1  0  0  0  0
 63 66  2  0  0  0  0
 66 67  1  0  0  0  0
 66 68  1  0  0  0  0
 68 69  1  0  0  0  0
 60 70  1  0  0  0  0
 70 71  2  0  0  0  0
 71 72  1  0  0  0  0
 72 73  1  0  0  0  0
 73 74  1  0  0  0  0
 74 75  1  0  0  0  0
 75 76  1  0  0  0  0
 76 77  1  0  0  0  0
 75 78  2  0  0  0  0
 78 79  1  0  0  0  0
 79 80  1  0  0  0  0
 78 81  1  0  0  0  0
 72 82  2  0  0  0  0
 82 83  1  0  0  0  0
 71 84  1  0  0  0  0
 84 85  2  0  0  0  0
 85 86  1  0  0  0  0
 85 87  1  0  0  0  0
 87 88  2  0  0  0  0
 88 89  1  0  0  0  0
 89 90  2  0  0  0  0
 90 91  1  0  0  0  0
 91 92  1  0  0  0  0
 92 93  1  0  0  0  0
 93 94  1  0  0  0  0
 94 95  1  0  0  0  0
 93 96  2  0  0  0  0
 96 97  1  0  0  0  0
 96 98  1  0  0  0  0
 98 99  1  0  0  0  0
 90100  1  0  0  0  0
100101  2  0  0  0  0
101102  1  0  0  0  0
102103  1  0  0  0  0
103104  1  0  0  0  0
104105  1  0  0  0  0
105106  1  0  0  0  0
106107  1  0  0  0  0
105108  2  0  0  0  0
108109  1  0  0  0  0
109110  1  0  0  0  0
108111  1  0  0  0  0
102112  2  0  0  0  0
112113  1  0  0  0  0
101114  1  0  0  0  0
114115  2  0  0  0  0
115116  1  0  0  0  0
115117  1  0  0  0  0
117118  2  0  0  0  0
118119  1  0  0  0  0
119120  2  0  0  0  0
120121  1  0  0  0  0
121122  1  0  0  0  0
122123  1  0  0  0  0
123124  1  0  0  0  0
124125  1  0  0  0  0
123126  2  0  0  0  0
126127  1  0  0  0  0
126128  1  0  0  0  0
128129  1  0  0  0  0
120130  1  0  0  0  0
130131  2  0  0  0  0
131132  1  0  0  0  0
132133  1  0  0  0  0
133134  1  0  0  0  0
134135  1  0  0  0  0
135136  1  0  0  0  0
136137  1  0  0  0  0
135138  2  0  0  0  0
138139  1  0  0  0  0
139140  1  0  0  0  0
138141  1  0  0  0  0
132142  2  0  0  0  0
142143  1  0  0  0  0
131144  1  0  0  0  0
144145  2  0  0  0  0
145146  1  0  0  0  0
  5  1  2  0  0  0  0
 18 14  2  0  0  0  0
 53 27  1  0  0  0  0
 83 57  1  0  0  0  0
113 87  1  0  0  0  0
143117  1  0  0  0  0
 12  4  1  0  0  0  0
 25 17  1  0  0  0  0
 52 29  1  0  0  0  0
 82 59  1  0  0  0  0
112 89  1  0  0  0  0
142119  1  0  0  0  0
 38 31  2  0  0  0  0
 56 40  1  0  0  0  0
 68 61  2  0  0  0  0
 86 70  1  0  0  0  0
 98 91  2  0  0  0  0
116100  1  0  0  0  0
128121  2  0  0  0  0
146130  1  0  0  0  0
 49 43  2  0  0  0  0
 79 73  2  0  0  0  0
109103  2  0  0  0  0
139133  2  0  0  0  0
  1147  1  0  0  0  0
 10148  1  0  0  0  0
 10149  1  0  0  0  0
 11150  1  0  0  0  0
 11151  1  0  0  0  0
 11152  1  0  0  0  0
 23153  1  0  0  0  0
 23154  1  0  0  0  0
 24155  1  0  0  0  0
 24156  1  0  0  0  0
 24157  1  0  0  0  0
 28158  1  0  0  0  0
 34159  1  0  0  0  0
 34160  1  0  0  0  0
 35161  1  0  0  0  0
 35162  1  0  0  0  0
 35163  1  0  0  0  0
 46164  1  0  0  0  0
 46165  1  0  0  0  0
 47166  1  0  0  0  0
 47167  1  0  0  0  0
 47168  1  0  0  0  0
 54169  1  0  0  0  0
 58170  1  0  0  0  0
 64171  1  0  0  0  0
 64172  1  0  0  0  0
 65173  1  0  0  0  0
 65174  1  0  0  0  0
 65175  1  0  0  0  0
 76176  1  0  0  0  0
 76177  1  0  0  0  0
 77178  1  0  0  0  0
 77179  1  0  0  0  0
 77180  1  0  0  0  0
 84181  1  0  0  0  0
 88182  1  0  0  0  0
 94183  1  0  0  0  0
 94184  1  0  0  0  0
 95185  1  0  0  0  0
 95186  1  0  0  0  0
 95187  1  0  0  0  0
106188  1  0  0  0  0
106189  1  0  0  0  0
107190  1  0  0  0  0
107191  1  0  0  0  0
107192  1  0  0  0  0
114193  1  0  0  0  0
118194  1  0  0  0  0
124195  1  0  0  0  0
124196  1  0  0  0  0
125197  1  0  0  0  0
125198  1  0  0  0  0
125199  1  0  0  0  0
136200  1  0  0  0  0
136201  1  0  0  0  0
137202  1  0  0  0  0
137203  1  0  0  0  0
137204  1  0  0  0  0
144205  1  0  0  0  0
145206  1  0  0  0  0
M  END
