
  xtb     03012207423D
 energy: -271.068111721168 gnorm: 0.000466988802 xtb: 6.4.1 (unknown)
134148  0     0  0            999 V2000
    4.2452   -1.9844   12.3394 C   0  0  0  0  0  0  0  0  0  0  0  0
    3.3038   -2.7117   11.1004 S   0  0  0  0  0  0  0  0  0  0  0  0
    3.3788   -1.3013   10.0767 C   0  0  0  0  0  0  0  0  0  0  0  0
    4.1227   -0.3082   10.7050 C   0  0  0  0  0  0  0  0  0  0  0  0
    4.6048   -0.7204   11.9904 C   0  0  0  0  0  0  0  0  0  0  0  0
    5.5469    0.5036   12.7874 S   0  0  0  0  0  0  0  0  0  0  0  0
    5.3223    1.5758   11.4163 C   0  0  0  0  0  0  0  0  0  0  0  0
    5.9693    2.8887   11.5228 C   0  0  0  0  0  0  0  0  0  0  0  0
    6.6070    3.1632   12.5151 O   0  0  0  0  0  0  0  0  0  0  0  0
    5.7888    3.8282   10.3545 C   0  0  0  0  0  0  0  0  0  0  0  0
    6.5163    5.1461   10.5775 C   0  0  0  0  0  0  0  0  0  0  0  0
    4.5657    1.0112   10.4258 C   0  0  0  0  0  0  0  0  0  0  0  0
    4.2831    1.6543    9.2860 F   0  0  0  0  0  0  0  0  0  0  0  0
    2.7161   -1.3356    8.8186 C   0  0  0  0  0  0  0  0  0  0  0  0
    2.1257   -2.4379    8.2575 C   0  0  0  0  0  0  0  0  0  0  0  0
    1.5338   -2.1885    7.0010 C   0  0  0  0  0  0  0  0  0  0  0  0
    0.9202   -3.1112    6.1318 C   0  0  0  0  0  0  0  0  0  0  0  0
    0.7561   -4.5067    6.5021 C   0  0  0  0  0  0  0  0  0  0  0  0
   -0.0376   -4.9563    7.9838 S   0  0  0  0  0  0  0  0  0  0  0  0
    0.1349   -6.6464    7.6568 C   0  0  0  0  0  0  0  0  0  0  0  0
   -0.4258   -7.6738    8.5763 C   0  0  0  0  0  0  0  0  0  0  0  0
   -1.8890   -7.9685    8.2365 C   0  0  0  0  0  0  0  0  0  0  0  0
    0.7688   -6.8355    6.4651 C   0  0  0  0  0  0  0  0  0  0  0  0
    1.1238   -8.3783    5.8048 Cl  0  0  0  0  0  0  0  0  0  0  0  0
    1.1252   -5.6265    5.8090 C   0  0  0  0  0  0  0  0  0  0  0  0
    2.0100   -5.6089    4.3429 Cl  0  0  0  0  0  0  0  0  0  0  0  0
    0.4815   -2.6257    4.9081 C   0  0  0  0  0  0  0  0  0  0  0  0
    0.6210   -1.2669    4.5236 C   0  0  0  0  0  0  0  0  0  0  0  0
    1.2270   -0.3427    5.3949 C   0  0  0  0  0  0  0  0  0  0  0  0
    1.3828    1.0520    5.0190 C   0  0  0  0  0  0  0  0  0  0  0  0
    2.1250    1.4985    3.5097 S   0  0  0  0  0  0  0  0  0  0  0  0
    1.9324    3.1900    3.8217 C   0  0  0  0  0  0  0  0  0  0  0  0
    2.3433    4.2054    2.8139 C   0  0  0  0  0  0  0  0  0  0  0  0
    1.3526    4.2508    1.6482 C   0  0  0  0  0  0  0  0  0  0  0  0
    1.3250    3.3813    5.0262 C   0  0  0  0  0  0  0  0  0  0  0  0
    1.0186    2.1738    5.7112 C   0  0  0  0  0  0  0  0  0  0  0  0
    0.1874    2.1587    7.2083 Cl  0  0  0  0  0  0  0  0  0  0  0  0
    0.9514    4.9237    5.6782 Cl  0  0  0  0  0  0  0  0  0  0  0  0
    1.6779   -0.8318    6.6132 C   0  0  0  0  0  0  0  0  0  0  0  0
    2.5479    0.0811    7.8056 S   0  0  0  0  0  0  0  0  0  0  0  0
    0.0726   -1.0233    3.2472 C   0  0  0  0  0  0  0  0  0  0  0  0
   -0.4558   -2.1399    2.6579 C   0  0  0  0  0  0  0  0  0  0  0  0
   -0.3313   -3.5549    3.6780 S   0  0  0  0  0  0  0  0  0  0  0  0
   -0.9987   -2.2157    1.3518 C   0  0  0  0  0  0  0  0  0  0  0  0
   -1.0639   -0.7900    0.3456 S   0  0  0  0  0  0  0  0  0  0  0  0
   -1.6980   -1.6614   -1.0278 C   0  0  0  0  0  0  0  0  0  0  0  0
   -1.8696   -3.0075   -0.6937 C   0  0  0  0  0  0  0  0  0  0  0  0
   -1.4739   -3.2986    0.6437 C   0  0  0  0  0  0  0  0  0  0  0  0
   -1.6786   -4.9659    1.0653 S   0  0  0  0  0  0  0  0  0  0  0  0
   -2.3112   -5.3004   -0.5361 C   0  0  0  0  0  0  0  0  0  0  0  0
   -2.7124   -6.6892   -0.7878 C   0  0  0  0  0  0  0  0  0  0  0  0
   -2.5972   -7.5146    0.0903 O   0  0  0  0  0  0  0  0  0  0  0  0
   -3.2548   -6.9957   -2.1636 C   0  0  0  0  0  0  0  0  0  0  0  0
   -3.6332   -8.4631   -2.3022 C   0  0  0  0  0  0  0  0  0  0  0  0
   -2.3438   -4.1828   -1.3263 C   0  0  0  0  0  0  0  0  0  0  0  0
   -2.7986   -4.1981   -2.5877 F   0  0  0  0  0  0  0  0  0  0  0  0
   -1.9076   -0.9603   -2.2320 C   0  0  0  0  0  0  0  0  0  0  0  0
   -2.3137   -1.7247   -3.7534 S   0  0  0  0  0  0  0  0  0  0  0  0
   -2.2815   -0.2223   -4.6331 C   0  0  0  0  0  0  0  0  0  0  0  0
   -2.0267    0.8362   -3.7647 C   0  0  0  0  0  0  0  0  0  0  0  0
   -1.7920    0.4061   -2.4343 C   0  0  0  0  0  0  0  0  0  0  0  0
   -1.4734    1.7288   -1.3651 S   0  0  0  0  0  0  0  0  0  0  0  0
   -1.7539    2.8847   -2.6595 C   0  0  0  0  0  0  0  0  0  0  0  0
   -1.6937    4.3370   -2.4236 C   0  0  0  0  0  0  0  0  0  0  0  0
   -2.0052    5.1308   -3.2776 O   0  0  0  0  0  0  0  0  0  0  0  0
   -1.2094    4.7236   -1.0444 C   0  0  0  0  0  0  0  0  0  0  0  0
   -1.1890    6.2328   -0.8522 C   0  0  0  0  0  0  0  0  0  0  0  0
   -2.0355    2.2547   -3.8422 C   0  0  0  0  0  0  0  0  0  0  0  0
   -2.3511    2.8996   -4.9596 F   0  0  0  0  0  0  0  0  0  0  0  0
   -2.4073   -0.2085   -6.0431 C   0  0  0  0  0  0  0  0  0  0  0  0
   -3.4031   -1.3783   -6.8767 S   0  0  0  0  0  0  0  0  0  0  0  0
   -2.9604   -0.7829   -8.4496 C   0  0  0  0  0  0  0  0  0  0  0  0
   -2.0387    0.2534   -8.3242 C   0  0  0  0  0  0  0  0  0  0  0  0
   -1.7507    0.5818   -6.9681 C   0  0  0  0  0  0  0  0  0  0  0  0
   -0.5027    1.7728   -6.8227 S   0  0  0  0  0  0  0  0  0  0  0  0
   -0.3251    1.8267   -8.5649 C   0  0  0  0  0  0  0  0  0  0  0  0
    0.7054    2.7508   -9.0486 C   0  0  0  0  0  0  0  0  0  0  0  0
    1.3718    3.3648   -8.2446 O   0  0  0  0  0  0  0  0  0  0  0  0
    0.9051    2.8665  -10.5399 C   0  0  0  0  0  0  0  0  0  0  0  0
    1.8134    1.7320  -11.0223 C   0  0  0  0  0  0  0  0  0  0  0  0
   -1.1922    0.9808   -9.1998 C   0  0  0  0  0  0  0  0  0  0  0  0
   -1.1950    0.7842  -10.5238 F   0  0  0  0  0  0  0  0  0  0  0  0
   -3.5434   -1.3448   -9.6170 C   0  0  0  0  0  0  0  0  0  0  0  0
   -3.9766   -3.0431   -9.6683 S   0  0  0  0  0  0  0  0  0  0  0  0
   -4.5874   -2.9334  -11.2606 C   0  0  0  0  0  0  0  0  0  0  0  0
   -4.4878   -1.6543  -11.7460 C   0  0  0  0  0  0  0  0  0  0  0  0
   -3.8971   -0.7522  -10.8106 C   0  0  0  0  0  0  0  0  0  0  0  0
   -3.8871    0.8721  -11.4076 S   0  0  0  0  0  0  0  0  0  0  0  0
   -4.6049    0.3642  -12.9302 C   0  0  0  0  0  0  0  0  0  0  0  0
   -4.8582    1.3218  -14.0197 C   0  0  0  0  0  0  0  0  0  0  0  0
   -5.4951    1.0090  -14.9973 O   0  0  0  0  0  0  0  0  0  0  0  0
   -4.2336    2.6860  -13.8392 C   0  0  0  0  0  0  0  0  0  0  0  0
   -2.7338    2.6170  -14.1385 C   0  0  0  0  0  0  0  0  0  0  0  0
   -4.8614   -0.9782  -12.9433 C   0  0  0  0  0  0  0  0  0  0  0  0
   -5.3975   -1.6314  -13.9683 F   0  0  0  0  0  0  0  0  0  0  0  0
    4.4737   -2.5262   13.2335 H   0  0  0  0  0  0  0  0  0  0  0  0
    6.1567    3.3337    9.4519 H   0  0  0  0  0  0  0  0  0  0  0  0
    4.7185    3.9984   10.2122 H   0  0  0  0  0  0  0  0  0  0  0  0
    6.3640    5.8099    9.7305 H   0  0  0  0  0  0  0  0  0  0  0  0
    7.5818    4.9709   10.7024 H   0  0  0  0  0  0  0  0  0  0  0  0
    6.1480    5.6311   11.4779 H   0  0  0  0  0  0  0  0  0  0  0  0
    2.1357   -3.4023    8.7322 H   0  0  0  0  0  0  0  0  0  0  0  0
    0.1624   -8.5882    8.4791 H   0  0  0  0  0  0  0  0  0  0  0  0
   -0.3552   -7.3178    9.6054 H   0  0  0  0  0  0  0  0  0  0  0  0
   -2.2836   -8.7234    8.9110 H   0  0  0  0  0  0  0  0  0  0  0  0
   -2.4880   -7.0660    8.3325 H   0  0  0  0  0  0  0  0  0  0  0  0
   -1.9723   -8.3340    7.2163 H   0  0  0  0  0  0  0  0  0  0  0  0
    2.3868    5.1811    3.3001 H   0  0  0  0  0  0  0  0  0  0  0  0
    3.3366    3.9601    2.4330 H   0  0  0  0  0  0  0  0  0  0  0  0
    0.3593    4.5078    2.0077 H   0  0  0  0  0  0  0  0  0  0  0  0
    1.6670    4.9975    0.9240 H   0  0  0  0  0  0  0  0  0  0  0  0
    1.3045    3.2808    1.1579 H   0  0  0  0  0  0  0  0  0  0  0  0
    0.0681   -0.0634    2.7639 H   0  0  0  0  0  0  0  0  0  0  0  0
   -2.4975   -6.7213   -2.9024 H   0  0  0  0  0  0  0  0  0  0  0  0
   -4.1230   -6.3562   -2.3418 H   0  0  0  0  0  0  0  0  0  0  0  0
   -4.3939   -8.7255   -1.5714 H   0  0  0  0  0  0  0  0  0  0  0  0
   -4.0171   -8.6623   -3.2992 H   0  0  0  0  0  0  0  0  0  0  0  0
   -2.7657   -9.0934   -2.1245 H   0  0  0  0  0  0  0  0  0  0  0  0
   -1.8599    4.2479   -0.3056 H   0  0  0  0  0  0  0  0  0  0  0  0
   -0.2086    4.3046   -0.9108 H   0  0  0  0  0  0  0  0  0  0  0  0
   -0.8183    6.4855    0.1376 H   0  0  0  0  0  0  0  0  0  0  0  0
   -2.1900    6.6398   -0.9689 H   0  0  0  0  0  0  0  0  0  0  0  0
   -0.5497    6.6961   -1.5991 H   0  0  0  0  0  0  0  0  0  0  0  0
    1.3880    3.8243  -10.7381 H   0  0  0  0  0  0  0  0  0  0  0  0
   -0.0502    2.8295  -11.0625 H   0  0  0  0  0  0  0  0  0  0  0  0
    2.7597    1.7561  -10.4870 H   0  0  0  0  0  0  0  0  0  0  0  0
    1.3465    0.7636  -10.8615 H   0  0  0  0  0  0  0  0  0  0  0  0
    2.0112    1.8457  -12.0848 H   0  0  0  0  0  0  0  0  0  0  0  0
   -4.9875   -3.7981  -11.7504 H   0  0  0  0  0  0  0  0  0  0  0  0
   -4.3915    3.0370  -12.8175 H   0  0  0  0  0  0  0  0  0  0  0  0
   -4.7138    3.3745  -14.5355 H   0  0  0  0  0  0  0  0  0  0  0  0
   -2.2267    1.9509  -13.4441 H   0  0  0  0  0  0  0  0  0  0  0  0
   -2.2949    3.6074  -14.0490 H   0  0  0  0  0  0  0  0  0  0  0  0
   -2.5693    2.2556  -15.1509 H   0  0  0  0  0  0  0  0  0  0  0  0
  1  2  1  0  0  0  0
  2  3  1  0  0  0  0
  3  4  2  0  0  0  0
  4  5  1  0  0  0  0
  5  6  1  0  0  0  0
  6  7  1  0  0  0  0
  7  8  1  0  0  0  0
  8  9  2  0  0  0  0
  8 10  1  0  0  0  0
 10 11  1  0  0  0  0
  7 12  2  0  0  0  0
 12 13  1  0  0  0  0
  3 14  1  0  0  0  0
 14 15  2  0  0  0  0
 15 16  1  0  0  0  0
 16 17  2  0  0  0  0
 17 18  1  0  0  0  0
 18 19  1  0  0  0  0
 19 20  1  0  0  0  0
 20 21  1  0  0  0  0
 21 22  1  0  0  0  0
 20 23  2  0  0  0  0
 23 24  1  0  0  0  0
 23 25  1  0  0  0  0
 25 26  1  0  0  0  0
 17 27  1  0  0  0  0
 27 28  2  0  0  0  0
 28 29  1  0  0  0  0
 29 30  1  0  0  0  0
 30 31  1  0  0  0  0
 31 32  1  0  0  0  0
 32 33  1  0  0  0  0
 33 34  1  0  0  0  0
 32 35  2  0  0  0  0
 35 36  1  0  0  0  0
 36 37  1  0  0  0  0
 35 38  1  0  0  0  0
 29 39  2  0  0  0  0
 39 40  1  0  0  0  0
 28 41  1  0  0  0  0
 41 42  2  0  0  0  0
 42 43  1  0  0  0  0
 42 44  1  0  0  0  0
 44 45  1  0  0  0  0
 45 46  1  0  0  0  0
 46 47  2  0  0  0  0
 47 48  1  0  0  0  0
 48 49  1  0  0  0  0
 49 50  1  0  0  0  0
 50 51  1  0  0  0  0
 51 52  2  0  0  0  0
 51 53  1  0  0  0  0
 53 54  1  0  0  0  0
 50 55  2  0  0  0  0
 55 56  1  0  0  0  0
 46 57  1  0  0  0  0
 57 58  1  0  0  0  0
 58 59  1  0  0  0  0
 59 60  2  0  0  0  0
 60 61  1  0  0  0  0
 61 62  1  0  0  0  0
 62 63  1  0  0  0  0
 63 64  1  0  0  0  0
 64 65  2  0  0  0  0
 64 66  1  0  0  0  0
 66 67  1  0  0  0  0
 63 68  2  0  0  0  0
 68 69  1  0  0  0  0
 59 70  1  0  0  0  0
 70 71  1  0  0  0  0
 71 72  1  0  0  0  0
 72 73  2  0  0  0  0
 73 74  1  0  0  0  0
 74 75  1  0  0  0  0
 75 76  1  0  0  0  0
 76 77  1  0  0  0  0
 77 78  2  0  0  0  0
 77 79  1  0  0  0  0
 79 80  1  0  0  0  0
 76 81  2  0  0  0  0
 81 82  1  0  0  0  0
 72 83  1  0  0  0  0
 83 84  1  0  0  0  0
 84 85  1  0  0  0  0
 85 86  2  0  0  0  0
 86 87  1  0  0  0  0
 87 88  1  0  0  0  0
 88 89  1  0  0  0  0
 89 90  1  0  0  0  0
 90 91  2  0  0  0  0
 90 92  1  0  0  0  0
 92 93  1  0  0  0  0
 89 94  2  0  0  0  0
 94 95  1  0  0  0  0
  5  1  2  0  0  0  0
 40 14  1  0  0  0  0
 48 44  2  0  0  0  0
 61 57  2  0  0  0  0
 74 70  2  0  0  0  0
 87 83  2  0  0  0  0
 12  4  1  0  0  0  0
 39 16  1  0  0  0  0
 55 47  1  0  0  0  0
 68 60  1  0  0  0  0
 81 73  1  0  0  0  0
 94 86  1  0  0  0  0
 25 18  2  0  0  0  0
 43 27  1  0  0  0  0
 36 30  2  0  0  0  0
  1 96  1  0  0  0  0
 10 97  1  0  0  0  0
 10 98  1  0  0  0  0
 11 99  1  0  0  0  0
 11100  1  0  0  0  0
 11101  1  0  0  0  0
 15102  1  0  0  0  0
 21103  1  0  0  0  0
 21104  1  0  0  0  0
 22105  1  0  0  0  0
 22106  1  0  0  0  0
 22107  1  0  0  0  0
 33108  1  0  0  0  0
 33109  1  0  0  0  0
 34110  1  0  0  0  0
 34111  1  0  0  0  0
 34112  1  0  0  0  0
 41113  1  0  0  0  0
 53114  1  0  0  0  0
 53115  1  0  0  0  0
 54116  1  0  0  0  0
 54117  1  0  0  0  0
 54118  1  0  0  0  0
 66119  1  0  0  0  0
 66120  1  0  0  0  0
 67121  1  0  0  0  0
 67122  1  0  0  0  0
 67123  1  0  0  0  0
 79124  1  0  0  0  0
 79125  1  0  0  0  0
 80126  1  0  0  0  0
 80127  1  0  0  0  0
 80128  1  0  0  0  0
 85129  1  0  0  0  0
 92130  1  0  0  0  0
 92131  1  0  0  0  0
 93132  1  0  0  0  0
 93133  1  0  0  0  0
 93134  1  0  0  0  0
M  END
