
  xtb     03012201493D
 energy: -201.848269843233 gnorm: 0.000296090596 xtb: 6.4.1 (unknown)
 75 81  0     0  0            999 V2000
    4.4250    5.1186    7.4318 C   0  0  0  0  0  0  0  0  0  0  0  0
    4.1792    4.7381    5.7850 S   0  0  0  0  0  0  0  0  0  0  0  0
    3.1628    3.3892    6.1815 C   0  0  0  0  0  0  0  0  0  0  0  0
    3.0329    3.2701    7.5631 C   0  0  0  0  0  0  0  0  0  0  0  0
    3.7655    4.2661    8.2742 C   0  0  0  0  0  0  0  0  0  0  0  0
    3.8632    4.4303    9.6072 O   0  0  0  0  0  0  0  0  0  0  0  0
    2.1982    2.2210    8.2128 C   0  0  0  0  0  0  0  0  0  0  0  0
    2.1331    2.3523    9.5547 F   0  0  0  0  0  0  0  0  0  0  0  0
    2.6559    0.9705    8.0081 F   0  0  0  0  0  0  0  0  0  0  0  0
    0.9175    2.2322    7.7994 F   0  0  0  0  0  0  0  0  0  0  0  0
    2.6298    2.6105    5.1162 C   0  0  0  0  0  0  0  0  0  0  0  0
    1.7371    1.1240    5.3237 S   0  0  0  0  0  0  0  0  0  0  0  0
    1.5275    0.8828    3.6199 C   0  0  0  0  0  0  0  0  0  0  0  0
    2.1350    1.9203    2.9097 C   0  0  0  0  0  0  0  0  0  0  0  0
    2.7507    2.8780    3.7626 C   0  0  0  0  0  0  0  0  0  0  0  0
    3.5084    4.1644    2.8852 S   0  0  0  0  0  0  0  0  0  0  0  0
    3.0160    3.4403    1.3646 C   0  0  0  0  0  0  0  0  0  0  0  0
    3.4221    4.1569    0.1509 C   0  0  0  0  0  0  0  0  0  0  0  0
    4.0381    5.1950    0.2436 O   0  0  0  0  0  0  0  0  0  0  0  0
    3.0346    3.5251   -1.1653 C   0  0  0  0  0  0  0  0  0  0  0  0
    3.5212    4.3512   -2.3472 C   0  0  0  0  0  0  0  0  0  0  0  0
    2.3123    2.2821    1.5508 C   0  0  0  0  0  0  0  0  0  0  0  0
    1.8329    1.5536    0.5322 F   0  0  0  0  0  0  0  0  0  0  0  0
    0.8138   -0.2534    3.1692 C   0  0  0  0  0  0  0  0  0  0  0  0
    0.5052   -0.6481    1.5077 S   0  0  0  0  0  0  0  0  0  0  0  0
   -0.3564   -2.0848    1.9348 C   0  0  0  0  0  0  0  0  0  0  0  0
   -0.4196   -2.2393    3.3103 C   0  0  0  0  0  0  0  0  0  0  0  0
    0.2531   -1.2108    4.0101 C   0  0  0  0  0  0  0  0  0  0  0  0
    0.3960   -1.0830    5.3389 O   0  0  0  0  0  0  0  0  0  0  0  0
   -1.1898   -3.3033    4.0208 C   0  0  0  0  0  0  0  0  0  0  0  0
   -0.4379   -4.3364    4.4352 F   0  0  0  0  0  0  0  0  0  0  0  0
   -1.7508   -2.8118    5.1565 F   0  0  0  0  0  0  0  0  0  0  0  0
   -2.2028   -3.8037    3.3120 F   0  0  0  0  0  0  0  0  0  0  0  0
   -0.8594   -2.9265    0.8945 C   0  0  0  0  0  0  0  0  0  0  0  0
   -1.4957   -2.2468   -0.5699 S   0  0  0  0  0  0  0  0  0  0  0  0
   -1.8064   -3.8090   -1.2392 C   0  0  0  0  0  0  0  0  0  0  0  0
   -1.3906   -4.8080   -0.3768 C   0  0  0  0  0  0  0  0  0  0  0  0
   -0.8572   -4.3097    0.8414 C   0  0  0  0  0  0  0  0  0  0  0  0
   -0.3380   -5.0259    1.8478 O   0  0  0  0  0  0  0  0  0  0  0  0
   -1.3820   -6.2662   -0.7012 C   0  0  0  0  0  0  0  0  0  0  0  0
   -1.3689   -6.5291   -2.0103 F   0  0  0  0  0  0  0  0  0  0  0  0
   -2.4051   -6.9514   -0.1659 F   0  0  0  0  0  0  0  0  0  0  0  0
   -0.2698   -6.8651   -0.2043 F   0  0  0  0  0  0  0  0  0  0  0  0
   -2.4459   -3.9042   -2.5159 C   0  0  0  0  0  0  0  0  0  0  0  0
   -2.0916   -2.7725   -3.7758 S   0  0  0  0  0  0  0  0  0  0  0  0
   -3.2373   -3.5042   -4.8430 C   0  0  0  0  0  0  0  0  0  0  0  0
   -3.8799   -4.5724   -4.2227 C   0  0  0  0  0  0  0  0  0  0  0  0
   -3.4375   -4.7950   -2.8937 C   0  0  0  0  0  0  0  0  0  0  0  0
   -3.8983   -5.6863   -2.0066 O   0  0  0  0  0  0  0  0  0  0  0  0
   -4.9363   -5.3813   -4.8984 C   0  0  0  0  0  0  0  0  0  0  0  0
   -5.4461   -6.3488   -4.1138 F   0  0  0  0  0  0  0  0  0  0  0  0
   -4.4922   -6.0130   -5.9999 F   0  0  0  0  0  0  0  0  0  0  0  0
   -5.9936   -4.6418   -5.2837 F   0  0  0  0  0  0  0  0  0  0  0  0
   -3.3823   -2.9557   -6.1523 C   0  0  0  0  0  0  0  0  0  0  0  0
   -4.4234   -3.5589   -7.4081 S   0  0  0  0  0  0  0  0  0  0  0  0
   -3.9328   -2.3443   -8.4871 C   0  0  0  0  0  0  0  0  0  0  0  0
   -3.0097   -1.4971   -7.9345 C   0  0  0  0  0  0  0  0  0  0  0  0
   -2.6836   -1.8395   -6.5986 C   0  0  0  0  0  0  0  0  0  0  0  0
   -1.8097   -1.2079   -5.7974 O   0  0  0  0  0  0  0  0  0  0  0  0
   -2.3858   -0.3634   -8.6763 C   0  0  0  0  0  0  0  0  0  0  0  0
   -1.1478   -0.6569   -9.1202 F   0  0  0  0  0  0  0  0  0  0  0  0
   -2.2318    0.7288   -7.8942 F   0  0  0  0  0  0  0  0  0  0  0  0
   -3.0961    0.0152   -9.7388 F   0  0  0  0  0  0  0  0  0  0  0  0
    5.0390    5.9450    7.7221 H   0  0  0  0  0  0  0  0  0  0  0  0
    3.3444    3.7817   10.0970 H   0  0  0  0  0  0  0  0  0  0  0  0
    3.4558    2.5173   -1.2004 H   0  0  0  0  0  0  0  0  0  0  0  0
    1.9473    3.4190   -1.1909 H   0  0  0  0  0  0  0  0  0  0  0  0
    4.6028    4.4531   -2.3139 H   0  0  0  0  0  0  0  0  0  0  0  0
    3.0893    5.3479   -2.3123 H   0  0  0  0  0  0  0  0  0  0  0  0
    3.2394    3.8759   -3.2830 H   0  0  0  0  0  0  0  0  0  0  0  0
   -0.1155   -1.7337    5.8371 H   0  0  0  0  0  0  0  0  0  0  0  0
   -0.3514   -5.9754    1.6750 H   0  0  0  0  0  0  0  0  0  0  0  0
   -4.5605   -6.2837   -2.3751 H   0  0  0  0  0  0  0  0  0  0  0  0
   -4.3386   -2.2960   -9.4780 H   0  0  0  0  0  0  0  0  0  0  0  0
   -1.4710   -0.3933   -6.1922 H   0  0  0  0  0  0  0  0  0  0  0  0
  1  2  1  0  0  0  0
  2  3  1  0  0  0  0
  3  4  2  0  0  0  0
  4  5  1  0  0  0  0
  5  6  1  0  0  0  0
  4  7  1  0  0  0  0
  7  8  1  0  0  0  0
  7  9  1  0  0  0  0
  7 10  1  0  0  0  0
  3 11  1  0  0  0  0
 11 12  1  0  0  0  0
 12 13  1  0  0  0  0
 13 14  2  0  0  0  0
 14 15  1  0  0  0  0
 15 16  1  0  0  0  0
 16 17  1  0  0  0  0
 17 18  1  0  0  0  0
 18 19  2  0  0  0  0
 18 20  1  0  0  0  0
 20 21  1  0  0  0  0
 17 22  2  0  0  0  0
 22 23  1  0  0  0  0
 13 24  1  0  0  0  0
 24 25  1  0  0  0  0
 25 26  1  0  0  0  0
 26 27  2  0  0  0  0
 27 28  1  0  0  0  0
 28 29  1  0  0  0  0
 27 30  1  0  0  0  0
 30 31  1  0  0  0  0
 30 32  1  0  0  0  0
 30 33  1  0  0  0  0
 26 34  1  0  0  0  0
 34 35  1  0  0  0  0
 35 36  1  0  0  0  0
 36 37  2  0  0  0  0
 37 38  1  0  0  0  0
 38 39  1  0  0  0  0
 37 40  1  0  0  0  0
 40 41  1  0  0  0  0
 40 42  1  0  0  0  0
 40 43  1  0  0  0  0
 36 44  1  0  0  0  0
 44 45  1  0  0  0  0
 45 46  1  0  0  0  0
 46 47  2  0  0  0  0
 47 48  1  0  0  0  0
 48 49  1  0  0  0  0
 47 50  1  0  0  0  0
 50 51  1  0  0  0  0
 50 52  1  0  0  0  0
 50 53  1  0  0  0  0
 46 54  1  0  0  0  0
 54 55  1  0  0  0  0
 55 56  1  0  0  0  0
 56 57  2  0  0  0  0
 57 58  1  0  0  0  0
 58 59  1  0  0  0  0
 57 60  1  0  0  0  0
 60 61  1  0  0  0  0
 60 62  1  0  0  0  0
 60 63  1  0  0  0  0
  5  1  2  0  0  0  0
 15 11  2  0  0  0  0
 28 24  2  0  0  0  0
 38 34  2  0  0  0  0
 48 44  2  0  0  0  0
 58 54  2  0  0  0  0
 22 14  1  0  0  0  0
  1 64  1  0  0  0  0
  6 65  1  0  0  0  0
 20 66  1  0  0  0  0
 20 67  1  0  0  0  0
 21 68  1  0  0  0  0
 21 69  1  0  0  0  0
 21 70  1  0  0  0  0
 29 71  1  0  0  0  0
 39 72  1  0  0  0  0
 49 73  1  0  0  0  0
 56 74  1  0  0  0  0
 59 75  1  0  0  0  0
M  END
