166

C          2.87370        5.95660        4.14930
S          2.69600        4.38030        3.46650
C          1.69720        6.55540        4.43240
C          0.56560        5.74930        4.10930
C         -0.80680        6.04580        4.30010
C         -1.14790        7.42610        4.79420
C         -0.99100        8.45030        3.66700
C         -1.75780        5.09580        3.98700
C         -3.23070        5.29410        4.22990
C         -3.92970        5.92840        3.02740
C          0.96710        4.52160        3.55820
C          0.01130        3.59900        3.16210
S          0.25850        2.08350        2.35600
C         -1.35100        3.87600        3.38780
C         -2.16570        2.83240        2.88630
C         -1.46980        1.81930        2.28360
C         -2.03090        0.69560        1.61350
C         -1.31310       -0.26100        0.99070
C         -1.87480       -1.35080        0.26250
S         -0.79350       -2.55230       -0.41330
C         -3.18070       -1.61710       -0.05370
C         -3.36230       -2.77120       -0.85820
C         -4.56370       -3.28930       -1.41410
C         -5.83810       -2.58790       -1.02740
C         -6.29750       -3.01090        0.36920
C         -4.51570       -4.38760       -2.25030
C         -5.73220       -4.99950       -2.89260
C         -6.22230       -6.21250       -2.09950
C         -2.13120       -3.39620       -1.12400
C         -2.09310       -4.52800       -1.91720
S         -0.69900       -5.45950       -2.33670
C         -3.26850       -5.01490       -2.51420
C         -2.97920       -6.12040       -3.35620
C         -1.66000       -6.48370       -3.38730
C         -1.09380       -7.51420       -4.21390
C          0.15320       -8.00720       -4.17520
C          1.10520       -7.60730       -3.14690
S          2.14410       -6.20490       -3.30260
C          2.53140       -6.19750       -1.59970
C          2.02310       -7.33900       -0.99780
C          1.20760       -8.10520       -1.88210
S          0.49460       -9.47730       -1.08350
C          1.34100       -9.08480        0.41100
C          1.20810       -9.91450        1.61470
O          1.75190       -9.61920        2.65370
C          0.34220      -11.14340        1.44180
C          0.22580      -11.94040        2.73270
C          2.09270       -7.94690        0.28150
F          2.87770       -7.47260        1.24580
C          2.90870       -5.00280       -0.92810
S          3.95270       -3.76720       -1.57820
C          3.51590       -2.61060       -0.34730
C          2.62300       -3.18530        0.55250
C          2.29490       -4.52690        0.21120
S          1.05780       -5.18760        1.22320
C          0.99450       -3.71030        2.16220
C          0.04620       -3.54540        3.27040
O         -0.16470       -2.46470        3.77220
C         -0.63040       -4.81510        3.73540
C          0.34480       -5.66730        4.55100
C          1.87850       -2.77460        1.69380
F          2.04380       -1.59700        2.28730
C          3.95260       -1.26250       -0.45360
S          2.98380        0.01390        0.25040
C          5.02310       -0.77400       -1.16060
C          5.10620        0.63920       -1.15950
C          6.05360        1.49710       -1.77990
C          7.18770        0.84650       -2.52740
C          6.76690        0.49240       -3.95570
C          5.88430        2.86720       -1.72530
C          6.84640        3.82800       -2.37280
C          7.88770        4.31270       -1.36190
C          4.03410        1.19360       -0.43880
C          3.87600        2.56390       -0.37380
S          2.56930        3.39930        0.38010
C          4.78340        3.41880       -1.01840
C          4.38020        4.77450       -0.86030
C          3.20610        4.92710       -0.18110
C          2.49960        6.14170        0.15530
C          1.16270        6.28100        0.18270
C          0.21660        5.31370       -0.31300
S         -1.36820        5.17120        0.41410
C          0.36570        4.45640       -1.36370
C         -0.75360        3.61990       -1.60010
C         -0.90990        2.62890       -2.60370
C          0.28430        2.34580       -3.47420
C          1.28070        1.45870       -2.72420
C         -2.10260        1.94220       -2.70250
C         -2.39350        0.94320       -3.79200
C         -2.11240       -0.49280       -3.35180
C         -1.78450        3.89160       -0.68330
C         -2.95760        3.15710       -0.74550
S         -4.34440        3.27190        0.28660
C         -3.12510        2.18640       -1.74990
C         -4.39130        1.55370       -1.64410
C         -5.16050        2.01310       -0.61630
C         -6.48310        1.61610       -0.20630
C         -7.29540        0.82050       -0.89740
H          3.86320        6.34190        4.30150
H          1.63700        7.53450        4.87160
H         -0.48760        7.69390        5.62190
H         -2.17060        7.46750        5.16410
H         -1.62560        8.18500        2.82440
H          0.03740        8.48220        3.31520
H         -1.27070        9.44270        4.01450
H         -3.68670        4.32550        4.43830
H         -3.39050        5.91610        5.11170
H         -4.99950        6.00540        3.20890
H         -3.53930        6.92430        2.83800
H         -3.77070        5.32650        2.13630
H         -3.23930        2.83170        2.93120
H         -3.11220        0.65440        1.61090
H         -0.23260       -0.21350        1.02890
H         -3.98310       -0.97800        0.26580
H         -6.63580       -2.79460       -1.73920
H         -5.66890       -1.50960       -1.03030
H         -5.51970       -2.81490        1.10340
H         -7.19070       -2.45910        0.65350
H         -6.52500       -4.07390        0.39150
H         -6.54150       -4.27500       -2.97050
H         -5.48080       -5.31080       -3.90830
H         -7.08080       -6.66480       -2.59100
H         -6.51610       -5.91590       -1.09580
H         -5.43530       -6.95860       -2.01590
H         -3.71870       -6.64420       -3.93530
H         -1.77850       -7.90930       -4.95360
H          0.46230       -8.75780       -4.88910
H          0.77780      -11.75570        0.64760
H         -0.64340      -10.82030        1.09600
H         -0.20080      -11.32110        3.51760
H         -0.40650      -12.81230        2.58680
H          1.20900      -12.26740        3.06100
H         -0.98400       -5.38320        2.87220
H         -1.48340       -4.53600        4.35620
H         -0.16570       -6.54650        4.93560
H          1.18060       -6.00090        3.94080
H          0.73140       -5.09550        5.39150
H          5.71490       -1.43030       -1.65800
H          7.48410       -0.06390       -2.00400
H          8.05820        1.50050       -2.55440
H          5.91190       -0.17960       -3.94410
H          6.48510        1.38880       -4.50380
H          7.58440        0.00600       -4.48310
H          6.29230        4.68570       -2.75750
H          7.34870        3.36290       -3.21970
H          7.40100        4.80290       -0.52210
H          8.46300        3.47390       -0.97630
H          8.57200        5.01780       -1.82870
H          4.91510        5.61530       -1.26520
H          3.11980        6.98090        0.44400
H          0.73710        7.19200        0.58250
H          1.25700        4.44950       -1.96400
H          0.76980        3.28520       -3.74520
H         -0.00630        1.85070       -4.39940
H          0.84720        0.48230       -2.52150
H          2.18820        1.32070       -3.30890
H          1.54390        1.91060       -1.77230
H         -3.44410        1.03030       -4.07680
H         -1.80490        1.16820       -4.68150
H         -2.70820       -0.74330       -2.47850
H         -2.35770       -1.19160       -4.14920
H         -1.06380       -0.61810       -3.09540
H         -4.71920        0.76730       -2.29880
H         -6.81140        2.02920        0.73870
H         -8.27250        0.56300       -0.52870
H         -7.02150        0.41120       -1.85450
