
  xtb     02282222323D
 energy: -365.833397464600 gnorm: 0.000329452636 xtb: 6.4.1 (unknown)
182202  0     0  0            999 V2000
    8.4107   -4.2873   14.1940 C   0  0  0  0  0  0  0  0  0  0  0  0
    8.7457   -3.7201   13.0169 C   0  0  0  0  0  0  0  0  0  0  0  0
    7.6419   -3.6109   12.1220 C   0  0  0  0  0  0  0  0  0  0  0  0
    7.6112   -3.0232   10.8473 C   0  0  0  0  0  0  0  0  0  0  0  0
    8.8126   -2.4831   10.2301 C   0  0  0  0  0  0  0  0  0  0  0  0
   10.2370   -3.4605   10.0287 S   0  0  0  0  0  0  0  0  0  0  0  0
   11.1028   -2.1806    9.2497 C   0  0  0  0  0  0  0  0  0  0  0  0
   12.4859   -2.3829    8.7373 C   0  0  0  0  0  0  0  0  0  0  0  0
   12.4660   -2.9839    7.3298 C   0  0  0  0  0  0  0  0  0  0  0  0
   10.3180   -1.0710    9.1522 C   0  0  0  0  0  0  0  0  0  0  0  0
   10.8306    0.4032    8.4392 Cl  0  0  0  0  0  0  0  0  0  0  0  0
    9.0210   -1.2366    9.7092 C   0  0  0  0  0  0  0  0  0  0  0  0
    7.8842    0.0437    9.7840 Cl  0  0  0  0  0  0  0  0  0  0  0  0
    6.3836   -2.9888   10.1973 C   0  0  0  0  0  0  0  0  0  0  0  0
    5.1990   -3.5183   10.7659 C   0  0  0  0  0  0  0  0  0  0  0  0
    5.2298   -4.1094   12.0396 C   0  0  0  0  0  0  0  0  0  0  0  0
    4.0249   -4.6565   12.6407 C   0  0  0  0  0  0  0  0  0  0  0  0
    2.5834   -3.6948   12.7929 S   0  0  0  0  0  0  0  0  0  0  0  0
    1.7060   -4.9839   13.5439 C   0  0  0  0  0  0  0  0  0  0  0  0
    0.2709   -4.8223   13.9052 C   0  0  0  0  0  0  0  0  0  0  0  0
   -0.6127   -4.8538   12.6559 C   0  0  0  0  0  0  0  0  0  0  0  0
    2.4958   -6.0882   13.6591 C   0  0  0  0  0  0  0  0  0  0  0  0
    3.8125   -5.9052   13.1549 C   0  0  0  0  0  0  0  0  0  0  0  0
    4.9651   -7.1723   13.1218 Cl  0  0  0  0  0  0  0  0  0  0  0  0
    1.9762   -7.5730   14.3445 Cl  0  0  0  0  0  0  0  0  0  0  0  0
    6.4568   -4.1355   12.6920 C   0  0  0  0  0  0  0  0  0  0  0  0
    6.7449   -4.7331   14.3005 S   0  0  0  0  0  0  0  0  0  0  0  0
    4.0952   -3.4029    9.8863 C   0  0  0  0  0  0  0  0  0  0  0  0
    4.4036   -2.8079    8.6996 C   0  0  0  0  0  0  0  0  0  0  0  0
    6.0940   -2.3641    8.5982 S   0  0  0  0  0  0  0  0  0  0  0  0
    3.5122   -2.5322    7.6221 C   0  0  0  0  0  0  0  0  0  0  0  0
    3.7763   -1.8784    6.4553 C   0  0  0  0  0  0  0  0  0  0  0  0
    2.6517   -1.7684    5.6007 C   0  0  0  0  0  0  0  0  0  0  0  0
    2.5802   -1.1690    4.3289 C   0  0  0  0  0  0  0  0  0  0  0  0
    3.7486   -0.5662    3.7088 C   0  0  0  0  0  0  0  0  0  0  0  0
    5.2353   -1.4497    3.5213 S   0  0  0  0  0  0  0  0  0  0  0  0
    6.0217   -0.1196    2.7444 C   0  0  0  0  0  0  0  0  0  0  0  0
    7.4185   -0.2290    2.2410 C   0  0  0  0  0  0  0  0  0  0  0  0
    7.4396   -0.7139    0.7894 C   0  0  0  0  0  0  0  0  0  0  0  0
    5.1678    0.9373    2.6368 C   0  0  0  0  0  0  0  0  0  0  0  0
    5.5919    2.4384    1.9226 Cl  0  0  0  0  0  0  0  0  0  0  0  0
    3.8807    0.6905    3.1849 C   0  0  0  0  0  0  0  0  0  0  0  0
    2.6683    1.8993    3.2520 Cl  0  0  0  0  0  0  0  0  0  0  0  0
    1.3456   -1.1856    3.6932 C   0  0  0  0  0  0  0  0  0  0  0  0
    0.1889   -1.7542    4.2825 C   0  0  0  0  0  0  0  0  0  0  0  0
    0.2648   -2.3795    5.5395 C   0  0  0  0  0  0  0  0  0  0  0  0
   -0.8990   -3.0349    6.1096 C   0  0  0  0  0  0  0  0  0  0  0  0
   -1.4300   -2.7002    7.7308 S   0  0  0  0  0  0  0  0  0  0  0  0
   -2.7897   -3.7605    7.5889 C   0  0  0  0  0  0  0  0  0  0  0  0
   -3.7105   -3.9930    8.7353 C   0  0  0  0  0  0  0  0  0  0  0  0
   -3.1893   -5.1225    9.6273 C   0  0  0  0  0  0  0  0  0  0  0  0
   -2.8078   -4.3459    6.3580 C   0  0  0  0  0  0  0  0  0  0  0  0
   -1.7382   -3.9398    5.5169 C   0  0  0  0  0  0  0  0  0  0  0  0
   -1.4990   -4.6132    3.9564 Cl  0  0  0  0  0  0  0  0  0  0  0  0
   -4.0101   -5.4546    5.8415 Cl  0  0  0  0  0  0  0  0  0  0  0  0
    1.4968   -2.3541    6.1763 C   0  0  0  0  0  0  0  0  0  0  0  0
    1.8412   -3.0489    7.7327 S   0  0  0  0  0  0  0  0  0  0  0  0
   -0.9496   -1.6156    3.4599 C   0  0  0  0  0  0  0  0  0  0  0  0
   -0.6795   -1.0436    2.2478 C   0  0  0  0  0  0  0  0  0  0  0  0
    1.0022   -0.5830    2.0949 S   0  0  0  0  0  0  0  0  0  0  0  0
   -1.6109   -0.8728    1.1902 C   0  0  0  0  0  0  0  0  0  0  0  0
   -1.2512   -0.0063   -0.2788 S   0  0  0  0  0  0  0  0  0  0  0  0
   -2.8163   -0.3369   -0.9736 C   0  0  0  0  0  0  0  0  0  0  0  0
   -3.5694   -1.1195   -0.1027 C   0  0  0  0  0  0  0  0  0  0  0  0
   -2.8868   -1.3916    1.1134 C   0  0  0  0  0  0  0  0  0  0  0  0
   -3.8106   -2.4106    2.1664 S   0  0  0  0  0  0  0  0  0  0  0  0
   -5.0781   -2.5672    0.9626 C   0  0  0  0  0  0  0  0  0  0  0  0
   -6.2468   -3.4297    1.2015 C   0  0  0  0  0  0  0  0  0  0  0  0
   -7.1045   -3.5838    0.3656 O   0  0  0  0  0  0  0  0  0  0  0  0
   -6.2607   -4.0933    2.5607 C   0  0  0  0  0  0  0  0  0  0  0  0
   -7.4956   -4.9590    2.7604 C   0  0  0  0  0  0  0  0  0  0  0  0
   -4.7970   -1.8347   -0.1596 C   0  0  0  0  0  0  0  0  0  0  0  0
   -5.5626   -1.8402   -1.2461 F   0  0  0  0  0  0  0  0  0  0  0  0
   -3.1720    0.1890   -2.2402 C   0  0  0  0  0  0  0  0  0  0  0  0
   -1.9770    0.3591   -3.5062 S   0  0  0  0  0  0  0  0  0  0  0  0
   -3.1247    1.0162   -4.6419 C   0  0  0  0  0  0  0  0  0  0  0  0
   -4.3818    1.1274   -4.0360 C   0  0  0  0  0  0  0  0  0  0  0  0
   -4.3899    0.6614   -2.6897 C   0  0  0  0  0  0  0  0  0  0  0  0
   -5.9037    0.9289   -1.8942 S   0  0  0  0  0  0  0  0  0  0  0  0
   -6.5642    1.6319   -3.3540 C   0  0  0  0  0  0  0  0  0  0  0  0
   -7.9548    2.0813   -3.2507 C   0  0  0  0  0  0  0  0  0  0  0  0
   -8.5323    1.9793   -2.1903 O   0  0  0  0  0  0  0  0  0  0  0  0
   -8.5987    2.6897   -4.4747 C   0  0  0  0  0  0  0  0  0  0  0  0
   -8.1784    4.1560   -4.6070 C   0  0  0  0  0  0  0  0  0  0  0  0
   -5.6534    1.6511   -4.3770 C   0  0  0  0  0  0  0  0  0  0  0  0
   -5.9400    2.1462   -5.5891 F   0  0  0  0  0  0  0  0  0  0  0  0
   -2.6955    1.3389   -5.9446 C   0  0  0  0  0  0  0  0  0  0  0  0
   -3.7778    1.8544   -7.2153 S   0  0  0  0  0  0  0  0  0  0  0  0
   -2.5069    2.0051   -8.3948 C   0  0  0  0  0  0  0  0  0  0  0  0
   -1.2827    1.6681   -7.8187 C   0  0  0  0  0  0  0  0  0  0  0  0
   -1.4076    1.2925   -6.4539 C   0  0  0  0  0  0  0  0  0  0  0  0
    0.1084    0.8774   -5.7337 S   0  0  0  0  0  0  0  0  0  0  0  0
    0.9454    1.2054   -7.2425 C   0  0  0  0  0  0  0  0  0  0  0  0
    2.4046    1.0559   -7.3625 C   0  0  0  0  0  0  0  0  0  0  0  0
    2.9811    1.2754   -8.4008 O   0  0  0  0  0  0  0  0  0  0  0  0
    3.0965    0.6155   -6.0918 C   0  0  0  0  0  0  0  0  0  0  0  0
    4.6002    0.4833   -6.2837 C   0  0  0  0  0  0  0  0  0  0  0  0
    0.0780    1.6026   -8.2263 C   0  0  0  0  0  0  0  0  0  0  0  0
    0.4767    1.9037   -9.4563 F   0  0  0  0  0  0  0  0  0  0  0  0
   -2.8662    2.4434   -9.6942 C   0  0  0  0  0  0  0  0  0  0  0  0
   -4.1508    2.7383  -10.0778 C   0  0  0  0  0  0  0  0  0  0  0  0
   -4.2573    3.1947  -11.4064 C   0  0  0  0  0  0  0  0  0  0  0  0
   -5.4231    3.5632  -12.1062 C   0  0  0  0  0  0  0  0  0  0  0  0
   -6.7270    3.5083  -11.4690 C   0  0  0  0  0  0  0  0  0  0  0  0
   -7.0095    4.2545   -9.9215 S   0  0  0  0  0  0  0  0  0  0  0  0
   -8.6618    3.7419   -9.8832 C   0  0  0  0  0  0  0  0  0  0  0  0
   -9.5421    4.0834   -8.7324 C   0  0  0  0  0  0  0  0  0  0  0  0
   -9.9177    5.5661   -8.7349 C   0  0  0  0  0  0  0  0  0  0  0  0
   -8.9665    3.0483  -11.0158 C   0  0  0  0  0  0  0  0  0  0  0  0
  -10.5108    2.3760  -11.3436 Cl  0  0  0  0  0  0  0  0  0  0  0  0
   -7.8741    2.9108  -11.9150 C   0  0  0  0  0  0  0  0  0  0  0  0
   -7.9889    1.9903  -13.3552 Cl  0  0  0  0  0  0  0  0  0  0  0  0
   -5.2547    3.9880  -13.4181 C   0  0  0  0  0  0  0  0  0  0  0  0
   -3.9916    4.0236  -14.0607 C   0  0  0  0  0  0  0  0  0  0  0  0
   -2.8397    3.5969  -13.3802 C   0  0  0  0  0  0  0  0  0  0  0  0
   -1.5458    3.5377  -14.0389 C   0  0  0  0  0  0  0  0  0  0  0  0
   -0.1282    4.2599  -13.3394 S   0  0  0  0  0  0  0  0  0  0  0  0
    0.8796    3.7236  -14.6380 C   0  0  0  0  0  0  0  0  0  0  0  0
    2.3256    4.0732  -14.6855 C   0  0  0  0  0  0  0  0  0  0  0  0
    2.5341    5.4645  -15.2886 C   0  0  0  0  0  0  0  0  0  0  0  0
    0.1458    3.0309  -15.5550 C   0  0  0  0  0  0  0  0  0  0  0  0
   -1.2290    2.9190  -15.2174 C   0  0  0  0  0  0  0  0  0  0  0  0
   -2.3427    2.0196  -16.1644 Cl  0  0  0  0  0  0  0  0  0  0  0  0
    0.8016    2.3392  -16.9823 Cl  0  0  0  0  0  0  0  0  0  0  0  0
   -2.9961    3.2212  -12.0521 C   0  0  0  0  0  0  0  0  0  0  0  0
   -1.7200    2.6945  -10.9941 S   0  0  0  0  0  0  0  0  0  0  0  0
   -4.0854    4.5784  -15.3693 C   0  0  0  0  0  0  0  0  0  0  0  0
   -5.3446    4.9343  -15.6980 C   0  0  0  0  0  0  0  0  0  0  0  0
   -6.5019    4.6199  -14.4546 S   0  0  0  0  0  0  0  0  0  0  0  0
    9.0472   -4.4820   15.0349 H   0  0  0  0  0  0  0  0  0  0  0  0
    9.7364   -3.3776   12.7816 H   0  0  0  0  0  0  0  0  0  0  0  0
   12.9953   -1.4177    8.7152 H   0  0  0  0  0  0  0  0  0  0  0  0
   13.0277   -3.0504    9.4094 H   0  0  0  0  0  0  0  0  0  0  0  0
   13.4815   -3.1228    6.9693 H   0  0  0  0  0  0  0  0  0  0  0  0
   11.9400   -2.3228    6.6459 H   0  0  0  0  0  0  0  0  0  0  0  0
   11.9628   -3.9479    7.3381 H   0  0  0  0  0  0  0  0  0  0  0  0
    0.1299   -3.8712   14.4226 H   0  0  0  0  0  0  0  0  0  0  0  0
   -0.0119   -5.6320   14.5794 H   0  0  0  0  0  0  0  0  0  0  0  0
   -0.4960   -5.8017   12.1362 H   0  0  0  0  0  0  0  0  0  0  0  0
   -1.6563   -4.7349   12.9339 H   0  0  0  0  0  0  0  0  0  0  0  0
   -0.3356   -4.0478   11.9798 H   0  0  0  0  0  0  0  0  0  0  0  0
    3.1041   -3.7490   10.1166 H   0  0  0  0  0  0  0  0  0  0  0  0
    4.7488   -1.4834    6.2240 H   0  0  0  0  0  0  0  0  0  0  0  0
    7.8912    0.7532    2.3029 H   0  0  0  0  0  0  0  0  0  0  0  0
    7.9756   -0.9268    2.8679 H   0  0  0  0  0  0  0  0  0  0  0  0
    8.4640   -0.7806    0.4335 H   0  0  0  0  0  0  0  0  0  0  0  0
    6.9778   -1.6954    0.7121 H   0  0  0  0  0  0  0  0  0  0  0  0
    6.8937   -0.0215    0.1538 H   0  0  0  0  0  0  0  0  0  0  0  0
   -4.6961   -4.2576    8.3479 H   0  0  0  0  0  0  0  0  0  0  0  0
   -3.7975   -3.0771    9.3217 H   0  0  0  0  0  0  0  0  0  0  0  0
   -3.8653   -5.2802   10.4631 H   0  0  0  0  0  0  0  0  0  0  0  0
   -2.2049   -4.8724   10.0150 H   0  0  0  0  0  0  0  0  0  0  0  0
   -3.1157   -6.0466    9.0600 H   0  0  0  0  0  0  0  0  0  0  0  0
   -1.9368   -1.9086    3.7615 H   0  0  0  0  0  0  0  0  0  0  0  0
   -5.3517   -4.6942    2.6556 H   0  0  0  0  0  0  0  0  0  0  0  0
   -6.2105   -3.3115    3.3238 H   0  0  0  0  0  0  0  0  0  0  0  0
   -7.4697   -5.4364    3.7366 H   0  0  0  0  0  0  0  0  0  0  0  0
   -7.5431   -5.7268    1.9925 H   0  0  0  0  0  0  0  0  0  0  0  0
   -8.3950   -4.3531    2.6862 H   0  0  0  0  0  0  0  0  0  0  0  0
   -8.3204    2.1363   -5.3714 H   0  0  0  0  0  0  0  0  0  0  0  0
   -9.6800    2.6344   -4.3390 H   0  0  0  0  0  0  0  0  0  0  0  0
   -8.4162    4.6973   -3.6942 H   0  0  0  0  0  0  0  0  0  0  0  0
   -7.1116    4.2421   -4.7962 H   0  0  0  0  0  0  0  0  0  0  0  0
   -8.7113    4.6213   -5.4325 H   0  0  0  0  0  0  0  0  0  0  0  0
    2.8704    1.3453   -5.3094 H   0  0  0  0  0  0  0  0  0  0  0  0
    2.6620   -0.3379   -5.7791 H   0  0  0  0  0  0  0  0  0  0  0  0
    5.0236    1.4358   -6.5920 H   0  0  0  0  0  0  0  0  0  0  0  0
    5.0755    0.1676   -5.3588 H   0  0  0  0  0  0  0  0  0  0  0  0
    4.8162   -0.2465   -7.0597 H   0  0  0  0  0  0  0  0  0  0  0  0
   -4.9876    2.6273   -9.4124 H   0  0  0  0  0  0  0  0  0  0  0  0
   -9.0218    3.8437   -7.8023 H   0  0  0  0  0  0  0  0  0  0  0  0
  -10.4443    3.4730   -8.7939 H   0  0  0  0  0  0  0  0  0  0  0  0
  -10.4444    5.8204   -9.6512 H   0  0  0  0  0  0  0  0  0  0  0  0
   -9.0240    6.1818   -8.6654 H   0  0  0  0  0  0  0  0  0  0  0  0
  -10.5636    5.7896   -7.8900 H   0  0  0  0  0  0  0  0  0  0  0  0
    2.8451    3.3298  -15.2927 H   0  0  0  0  0  0  0  0  0  0  0  0
    2.7359    4.0489  -13.6748 H   0  0  0  0  0  0  0  0  0  0  0  0
    2.0260    6.2156  -14.6885 H   0  0  0  0  0  0  0  0  0  0  0  0
    3.5939    5.7015  -15.3211 H   0  0  0  0  0  0  0  0  0  0  0  0
    2.1379    5.5004  -16.3004 H   0  0  0  0  0  0  0  0  0  0  0  0
   -3.2389    4.7178  -16.0155 H   0  0  0  0  0  0  0  0  0  0  0  0
   -5.6854    5.3745  -16.6147 H   0  0  0  0  0  0  0  0  0  0  0  0
  1  2  2  0  0  0  0
  2  3  1  0  0  0  0
  3  4  2  0  0  0  0
  4  5  1  0  0  0  0
  5  6  1  0  0  0  0
  6  7  1  0  0  0  0
  7  8  1  0  0  0  0
  8  9  1  0  0  0  0
  7 10  2  0  0  0  0
 10 11  1  0  0  0  0
 10 12  1  0  0  0  0
 12 13  1  0  0  0  0
  4 14  1  0  0  0  0
 14 15  2  0  0  0  0
 15 16  1  0  0  0  0
 16 17  1  0  0  0  0
 17 18  1  0  0  0  0
 18 19  1  0  0  0  0
 19 20  1  0  0  0  0
 20 21  1  0  0  0  0
 19 22  2  0  0  0  0
 22 23  1  0  0  0  0
 23 24  1  0  0  0  0
 22 25  1  0  0  0  0
 16 26  2  0  0  0  0
 26 27  1  0  0  0  0
 15 28  1  0  0  0  0
 28 29  2  0  0  0  0
 29 30  1  0  0  0  0
 29 31  1  0  0  0  0
 31 32  2  0  0  0  0
 32 33  1  0  0  0  0
 33 34  2  0  0  0  0
 34 35  1  0  0  0  0
 35 36  1  0  0  0  0
 36 37  1  0  0  0  0
 37 38  1  0  0  0  0
 38 39  1  0  0  0  0
 37 40  2  0  0  0  0
 40 41  1  0  0  0  0
 40 42  1  0  0  0  0
 42 43  1  0  0  0  0
 34 44  1  0  0  0  0
 44 45  2  0  0  0  0
 45 46  1  0  0  0  0
 46 47  1  0  0  0  0
 47 48  1  0  0  0  0
 48 49  1  0  0  0  0
 49 50  1  0  0  0  0
 50 51  1  0  0  0  0
 49 52  2  0  0  0  0
 52 53  1  0  0  0  0
 53 54  1  0  0  0  0
 52 55  1  0  0  0  0
 46 56  2  0  0  0  0
 56 57  1  0  0  0  0
 45 58  1  0  0  0  0
 58 59  2  0  0  0  0
 59 60  1  0  0  0  0
 59 61  1  0  0  0  0
 61 62  1  0  0  0  0
 62 63  1  0  0  0  0
 63 64  2  0  0  0  0
 64 65  1  0  0  0  0
 65 66  1  0  0  0  0
 66 67  1  0  0  0  0
 67 68  1  0  0  0  0
 68 69  2  0  0  0  0
 68 70  1  0  0  0  0
 70 71  1  0  0  0  0
 67 72  2  0  0  0  0
 72 73  1  0  0  0  0
 63 74  1  0  0  0  0
 74 75  1  0  0  0  0
 75 76  1  0  0  0  0
 76 77  2  0  0  0  0
 77 78  1  0  0  0  0
 78 79  1  0  0  0  0
 79 80  1  0  0  0  0
 80 81  1  0  0  0  0
 81 82  2  0  0  0  0
 81 83  1  0  0  0  0
 83 84  1  0  0  0  0
 80 85  2  0  0  0  0
 85 86  1  0  0  0  0
 76 87  1  0  0  0  0
 87 88  1  0  0  0  0
 88 89  1  0  0  0  0
 89 90  2  0  0  0  0
 90 91  1  0  0  0  0
 91 92  1  0  0  0  0
 92 93  1  0  0  0  0
 93 94  1  0  0  0  0
 94 95  2  0  0  0  0
 94 96  1  0  0  0  0
 96 97  1  0  0  0  0
 93 98  2  0  0  0  0
 98 99  1  0  0  0  0
 89100  1  0  0  0  0
100101  2  0  0  0  0
101102  1  0  0  0  0
102103  2  0  0  0  0
103104  1  0  0  0  0
104105  1  0  0  0  0
105106  1  0  0  0  0
106107  1  0  0  0  0
107108  1  0  0  0  0
106109  2  0  0  0  0
109110  1  0  0  0  0
109111  1  0  0  0  0
111112  1  0  0  0  0
103113  1  0  0  0  0
113114  2  0  0  0  0
114115  1  0  0  0  0
115116  1  0  0  0  0
116117  1  0  0  0  0
117118  1  0  0  0  0
118119  1  0  0  0  0
119120  1  0  0  0  0
118121  2  0  0  0  0
121122  1  0  0  0  0
122123  1  0  0  0  0
121124  1  0  0  0  0
115125  2  0  0  0  0
125126  1  0  0  0  0
114127  1  0  0  0  0
127128  2  0  0  0  0
128129  1  0  0  0  0
 27  1  1  0  0  0  0
 57 31  1  0  0  0  0
 65 61  2  0  0  0  0
 78 74  2  0  0  0  0
 91 87  2  0  0  0  0
126100  1  0  0  0  0
 26  3  1  0  0  0  0
 56 33  1  0  0  0  0
 72 64  1  0  0  0  0
 85 77  1  0  0  0  0
 98 90  1  0  0  0  0
125102  1  0  0  0  0
 12  5  2  0  0  0  0
 30 14  1  0  0  0  0
 42 35  2  0  0  0  0
 60 44  1  0  0  0  0
111104  2  0  0  0  0
129113  1  0  0  0  0
 23 17  2  0  0  0  0
 53 47  2  0  0  0  0
122116  2  0  0  0  0
  1130  1  0  0  0  0
  2131  1  0  0  0  0
  8132  1  0  0  0  0
  8133  1  0  0  0  0
  9134  1  0  0  0  0
  9135  1  0  0  0  0
  9136  1  0  0  0  0
 20137  1  0  0  0  0
 20138  1  0  0  0  0
 21139  1  0  0  0  0
 21140  1  0  0  0  0
 21141  1  0  0  0  0
 28142  1  0  0  0  0
 32143  1  0  0  0  0
 38144  1  0  0  0  0
 38145  1  0  0  0  0
 39146  1  0  0  0  0
 39147  1  0  0  0  0
 39148  1  0  0  0  0
 50149  1  0  0  0  0
 50150  1  0  0  0  0
 51151  1  0  0  0  0
 51152  1  0  0  0  0
 51153  1  0  0  0  0
 58154  1  0  0  0  0
 70155  1  0  0  0  0
 70156  1  0  0  0  0
 71157  1  0  0  0  0
 71158  1  0  0  0  0
 71159  1  0  0  0  0
 83160  1  0  0  0  0
 83161  1  0  0  0  0
 84162  1  0  0  0  0
 84163  1  0  0  0  0
 84164  1  0  0  0  0
 96165  1  0  0  0  0
 96166  1  0  0  0  0
 97167  1  0  0  0  0
 97168  1  0  0  0  0
 97169  1  0  0  0  0
101170  1  0  0  0  0
107171  1  0  0  0  0
107172  1  0  0  0  0
108173  1  0  0  0  0
108174  1  0  0  0  0
108175  1  0  0  0  0
119176  1  0  0  0  0
119177  1  0  0  0  0
120178  1  0  0  0  0
120179  1  0  0  0  0
120180  1  0  0  0  0
127181  1  0  0  0  0
128182  1  0  0  0  0
M  END
