95

C         10.87040        0.80240        6.63440
S         10.83260       -0.91470        6.58910
C         10.02590       -0.88520        5.07280
C          9.80710        0.37450        4.62620
C         10.28830        1.36400        5.53130
N         10.25570        2.73180        5.30720
C          9.27940        3.44010        4.65920
C          8.07460        2.98070        4.27020
C          7.12980        3.75950        3.53620
S          7.48850        5.37940        3.00090
C          5.94790        5.52510        2.24990
C          5.19430        4.40970        2.39440
C          5.85640        3.38980        3.12780
N          5.30590        2.15870        3.42590
C          4.18960        1.61620        2.89130
C          3.71330        0.39610        3.23690
C          2.56700       -0.19530        2.65890
S          1.59610        0.57440        1.42470
C          0.50810       -0.79260        1.26800
C          0.88590       -1.79170        2.17030
C          2.03560       -1.43920        2.92860
S          2.51500       -2.67430        4.05070
C          1.17380       -3.67770        3.53300
C          1.05160       -4.95450        4.23240
O          1.82240       -5.21790        5.13260
C         -0.02120       -5.91350        3.77350
C          0.41500       -6.60480        2.47960
C          0.42480       -3.07370        2.55600
F         -0.66870       -3.64140        2.02830
C         -0.50620       -0.74700        0.29450
S         -1.51110       -2.12050       -0.12640
C         -2.36340       -1.25040       -1.37360
C         -1.86520        0.04630       -1.47420
C         -0.84330        0.31580       -0.52790
S         -0.21760        1.92340       -0.67950
C         -1.25250        2.23130       -2.06750
C         -1.21220        3.50050       -2.80070
O         -1.74210        3.62890       -3.88070
C         -0.50020        4.63310       -2.09460
C         -1.40610        5.20600       -1.00260
C         -2.03630        1.14430       -2.35560
F         -2.85930        1.09570       -3.39930
C         -3.40950       -1.87180       -2.09470
S         -3.34030       -3.58790       -2.45420
C         -4.86780       -3.57840       -3.28930
C         -5.42530       -2.30050       -3.23430
C         -4.59300       -1.34920       -2.57610
S         -5.37340        0.18690       -2.37750
C         -6.82620       -0.42640       -3.14790
C         -7.94740        0.51100       -3.21280
O         -7.86870        1.57990       -2.64580
C         -9.15450        0.10500       -4.02600
C         -8.83490        0.17290       -5.52090
C         -6.69080       -1.73310       -3.53050
F         -7.68390       -2.45310       -4.07670
C         -5.37110       -4.75120       -3.90980
S         -5.12180       -6.32380       -3.18850
C         -5.99470       -7.07690       -4.45680
C         -6.42670       -6.20210       -5.39800
C         -6.06380       -4.85870       -5.11440
N         -6.25150       -3.79790       -5.95090
C         -7.03190       -3.75150       -7.07990
C         -7.12100       -2.67810       -7.85790
H         11.33210        1.30230        7.46210
H          9.77250       -1.80930        4.59330
H          9.36130        0.60200        3.67580
H         10.93060        3.27000        5.82870
H          9.54620        4.46980        4.46100
H          7.78530        1.97040        4.52030
H          5.69280        6.43790        1.75110
H          4.19760        4.32020        2.00390
H          5.81260        1.58850        4.08910
H          3.67660        2.20240        2.14390
H          4.21740       -0.20100        3.98500
H         -0.15590       -6.65980        4.55810
H         -0.96230       -5.38750        3.61410
H          1.36620       -7.11170        2.62630
H          0.52320       -5.88700        1.67060
H         -0.32970       -7.34030        2.18650
H         -0.27680        5.40720       -2.82980
H          0.43060        4.27210       -1.65320
H         -2.34330        5.54910       -1.43460
H         -0.91820        6.04830       -0.51850
H         -1.62610        4.45420       -0.24820
H         -9.96010        0.80250       -3.79150
H         -9.46840       -0.90450       -3.75960
H         -8.08440       -0.56370       -5.79520
H         -9.73330       -0.02810       -6.09880
H         -8.46700        1.16220       -5.78340
H         -6.13420       -8.13940       -4.43770
H         -6.97170       -6.50430       -6.27270
H         -5.78490       -2.93710       -5.69910
H         -7.58690       -4.65110       -7.29410
H         -7.74780       -2.67360       -8.72820
H         -6.56950       -1.77700       -7.64940
