55

C          5.61630       -1.68120        6.88410
C          4.54270       -2.39830        6.44970
C          3.99980       -1.67410        5.36730
C          4.79250       -0.55980        5.22320
O          5.77850       -0.56740        6.15050
C          4.71680        0.52500        4.29100
C          5.50480        1.64630        4.13850
C          4.96230        2.36440        3.06210
C          3.87520        1.63810        2.62150
O          3.73130        0.52200        3.37200
C          2.95020        1.88060        1.56120
C          2.85880        2.91570        0.65100
C          1.75420        2.63060       -0.16320
C          1.23310        1.43730        0.29610
O          1.96220        0.98690        1.34220
C          0.12680        0.64990       -0.11870
S         -0.91030        1.07080       -1.44950
C         -1.90320       -0.34880       -1.24470
C         -1.43620       -1.11470       -0.17800
C         -0.29220       -0.53550        0.44270
S          0.31580       -1.46040        1.77250
C         -0.94810       -2.65530        1.51840
C         -0.93610       -3.77630        2.45710
O         -0.14380       -3.77710        3.37630
C         -1.89650       -4.91660        2.21210
C         -1.38810       -5.78490        1.05890
C         -1.77310       -2.32660        0.47450
F         -2.81860       -3.08010        0.10250
C         -2.98860       -0.53340       -2.13900
C         -3.96690       -1.50470       -2.26380
C         -4.75850       -1.12970       -3.35590
C         -4.22580        0.04780       -3.84200
O         -3.15690        0.40620       -3.10300
C         -4.63220        0.85900       -4.94820
C         -5.65980        0.68590       -5.84880
C         -5.59280        1.78240       -6.73190
C         -4.53970        2.53970       -6.31180
O         -3.95540        1.99210       -5.23840
H          6.31940       -1.85010        7.67550
H          4.18220       -3.32390        6.84850
H          3.14650       -1.92790        4.77300
H          6.35770        1.90330        4.73170
H          5.31500        3.29030        2.65780
H          3.50740        3.76430        0.58720
H          1.37690        3.21010       -0.98080
H         -2.89110       -4.53580        1.98100
H         -1.94470       -5.51330        3.12420
H         -1.35690       -5.22100        0.13010
H         -0.38740       -6.15100        1.27690
H         -2.04770       -6.63780        0.92060
H         -4.09650       -2.37020       -1.65060
H         -5.61070       -1.64920       -3.74160
H         -6.36240       -0.12060       -5.86900
H         -6.23660        1.97990       -7.56400
H         -4.12450        3.45590       -6.68170
