
  xtb     03012201483D
 energy: -413.213350259618 gnorm: 0.000303860094 xtb: 6.4.1 (unknown)
206229  0     0  0            999 V2000
    5.0532   -1.1392   18.0676 C   0  0  0  0  0  0  0  0  0  0  0  0
    4.7078   -2.2539   17.3927 C   0  0  0  0  0  0  0  0  0  0  0  0
    3.8759   -1.9838   16.2668 C   0  0  0  0  0  0  0  0  0  0  0  0
    3.3220   -2.8950   15.3534 C   0  0  0  0  0  0  0  0  0  0  0  0
    3.4906   -4.3296   15.5183 C   0  0  0  0  0  0  0  0  0  0  0  0
    4.1089   -5.3235   14.2333 S   0  0  0  0  0  0  0  0  0  0  0  0
    3.9911   -6.7630   15.1859 C   0  0  0  0  0  0  0  0  0  0  0  0
    4.4481   -8.0766   14.6551 C   0  0  0  0  0  0  0  0  0  0  0  0
    5.9587   -8.2446   14.8350 C   0  0  0  0  0  0  0  0  0  0  0  0
    3.5025   -6.4737   16.4251 C   0  0  0  0  0  0  0  0  0  0  0  0
    3.2426   -7.6470   17.6505 Cl  0  0  0  0  0  0  0  0  0  0  0  0
    3.2134   -5.0959   16.6162 C   0  0  0  0  0  0  0  0  0  0  0  0
    2.5108   -4.4908   18.0609 Cl  0  0  0  0  0  0  0  0  0  0  0  0
    2.6098   -2.3637   14.2859 C   0  0  0  0  0  0  0  0  0  0  0  0
    2.3947   -0.9740   14.1217 C   0  0  0  0  0  0  0  0  0  0  0  0
    2.8936   -0.0660   15.0711 C   0  0  0  0  0  0  0  0  0  0  0  0
    2.6283    1.3576   14.9513 C   0  0  0  0  0  0  0  0  0  0  0  0
    3.9108    2.5307   14.9898 S   0  0  0  0  0  0  0  0  0  0  0  0
    2.8141    3.8523   14.7826 C   0  0  0  0  0  0  0  0  0  0  0  0
    3.3014    5.2542   14.6655 C   0  0  0  0  0  0  0  0  0  0  0  0
    3.5900    5.6124   13.2055 C   0  0  0  0  0  0  0  0  0  0  0  0
    1.5330    3.3957   14.6883 C   0  0  0  0  0  0  0  0  0  0  0  0
    1.4228    1.9832   14.7843 C   0  0  0  0  0  0  0  0  0  0  0  0
   -0.0926    1.1748   14.7678 Cl  0  0  0  0  0  0  0  0  0  0  0  0
    0.1673    4.4156   14.4895 Cl  0  0  0  0  0  0  0  0  0  0  0  0
    3.6445   -0.5960   16.1127 C   0  0  0  0  0  0  0  0  0  0  0  0
    4.4058    0.3139   17.3873 S   0  0  0  0  0  0  0  0  0  0  0  0
    1.6856   -0.6868   12.9305 C   0  0  0  0  0  0  0  0  0  0  0  0
    1.3309   -1.8004   12.2262 C   0  0  0  0  0  0  0  0  0  0  0  0
    1.8692   -3.2745   13.0009 S   0  0  0  0  0  0  0  0  0  0  0  0
    0.6401   -1.8341   10.9770 C   0  0  0  0  0  0  0  0  0  0  0  0
    0.0945   -0.7700   10.3184 C   0  0  0  0  0  0  0  0  0  0  0  0
   -0.4515   -1.1034    9.0571 C   0  0  0  0  0  0  0  0  0  0  0  0
   -1.0706   -0.2448    8.1282 C   0  0  0  0  0  0  0  0  0  0  0  0
   -1.2470    1.1709    8.4033 C   0  0  0  0  0  0  0  0  0  0  0  0
    0.0792    2.1740    8.9157 S   0  0  0  0  0  0  0  0  0  0  0  0
   -0.9159    3.5880    9.0038 C   0  0  0  0  0  0  0  0  0  0  0  0
   -0.3606    4.8865    9.4740 C   0  0  0  0  0  0  0  0  0  0  0  0
   -0.1212    4.8631   10.9850 C   0  0  0  0  0  0  0  0  0  0  0  0
   -2.1981    3.2838    8.6580 C   0  0  0  0  0  0  0  0  0  0  0  0
   -3.4823    4.4211    8.6354 Cl  0  0  0  0  0  0  0  0  0  0  0  0
   -2.3883    1.9186    8.3094 C   0  0  0  0  0  0  0  0  0  0  0  0
   -3.9273    1.2836    7.9070 Cl  0  0  0  0  0  0  0  0  0  0  0  0
   -1.4803   -0.8106    6.9283 C   0  0  0  0  0  0  0  0  0  0  0  0
   -1.3390   -2.1924    6.6468 C   0  0  0  0  0  0  0  0  0  0  0  0
   -0.7965   -3.0654    7.6084 C   0  0  0  0  0  0  0  0  0  0  0  0
   -0.7213   -4.4897    7.3440 C   0  0  0  0  0  0  0  0  0  0  0  0
    0.7465   -5.3895    7.5888 S   0  0  0  0  0  0  0  0  0  0  0  0
    0.0336   -6.8593    7.0204 C   0  0  0  0  0  0  0  0  0  0  0  0
    0.8292   -8.1124    6.9056 C   0  0  0  0  0  0  0  0  0  0  0  0
    1.4949   -8.2125    5.5309 C   0  0  0  0  0  0  0  0  0  0  0  0
   -1.2659   -6.6498    6.6650 C   0  0  0  0  0  0  0  0  0  0  0  0
   -1.7016   -5.3124    6.8552 C   0  0  0  0  0  0  0  0  0  0  0  0
   -3.3265   -4.8332    6.5774 Cl  0  0  0  0  0  0  0  0  0  0  0  0
   -2.2956   -7.8712    6.0406 Cl  0  0  0  0  0  0  0  0  0  0  0  0
   -0.3271   -2.4880    8.7801 C   0  0  0  0  0  0  0  0  0  0  0  0
    0.4600   -3.3279   10.0845 S   0  0  0  0  0  0  0  0  0  0  0  0
   -1.7148   -2.5038    5.3225 C   0  0  0  0  0  0  0  0  0  0  0  0
   -2.1436   -1.4196    4.6078 C   0  0  0  0  0  0  0  0  0  0  0  0
   -2.1101    0.0525    5.5525 S   0  0  0  0  0  0  0  0  0  0  0  0
   -2.5464   -1.4296    3.2471 C   0  0  0  0  0  0  0  0  0  0  0  0
   -2.7808    0.0282    2.3197 S   0  0  0  0  0  0  0  0  0  0  0  0
   -3.1055   -0.8456    0.8428 C   0  0  0  0  0  0  0  0  0  0  0  0
   -3.0819   -2.2209    1.0882 C   0  0  0  0  0  0  0  0  0  0  0  0
   -2.7580   -2.5259    2.4376 C   0  0  0  0  0  0  0  0  0  0  0  0
   -2.7377   -4.2308    2.7432 S   0  0  0  0  0  0  0  0  0  0  0  0
   -3.1959   -4.5667    1.0836 C   0  0  0  0  0  0  0  0  0  0  0  0
   -3.4081   -5.9444    0.6148 C   0  0  0  0  0  0  0  0  0  0  0  0
   -3.7212   -6.1875   -0.5264 O   0  0  0  0  0  0  0  0  0  0  0  0
   -3.2033   -7.0029    1.6765 C   0  0  0  0  0  0  0  0  0  0  0  0
   -3.4627   -8.4029    1.1403 C   0  0  0  0  0  0  0  0  0  0  0  0
   -3.3291   -3.4125    0.3560 C   0  0  0  0  0  0  0  0  0  0  0  0
   -3.6903   -3.4057   -0.9245 F   0  0  0  0  0  0  0  0  0  0  0  0
   -3.2546   -0.1308   -0.3642 C   0  0  0  0  0  0  0  0  0  0  0  0
   -3.1742   -0.8814   -1.9399 S   0  0  0  0  0  0  0  0  0  0  0  0
   -3.2470    0.6335   -2.7837 C   0  0  0  0  0  0  0  0  0  0  0  0
   -3.3906    1.6851   -1.8738 C   0  0  0  0  0  0  0  0  0  0  0  0
   -3.3698    1.2414   -0.5232 C   0  0  0  0  0  0  0  0  0  0  0  0
   -3.5000    2.5342    0.6192 S   0  0  0  0  0  0  0  0  0  0  0  0
   -3.6267    3.6940   -0.6919 C   0  0  0  0  0  0  0  0  0  0  0  0
   -3.7968    5.0883   -0.2772 C   0  0  0  0  0  0  0  0  0  0  0  0
   -3.8744    5.3517    0.9033 O   0  0  0  0  0  0  0  0  0  0  0  0
   -3.8369    6.1455   -1.3554 C   0  0  0  0  0  0  0  0  0  0  0  0
   -2.4289    6.4146   -1.8924 C   0  0  0  0  0  0  0  0  0  0  0  0
   -3.5623    3.0921   -1.9197 C   0  0  0  0  0  0  0  0  0  0  0  0
   -3.6863    3.7750   -3.0644 F   0  0  0  0  0  0  0  0  0  0  0  0
   -3.0401    0.6479   -4.1874 C   0  0  0  0  0  0  0  0  0  0  0  0
   -2.6995    1.7057   -4.9881 C   0  0  0  0  0  0  0  0  0  0  0  0
   -2.4037    1.3377   -6.3176 C   0  0  0  0  0  0  0  0  0  0  0  0
   -2.0241    2.1856   -7.3771 C   0  0  0  0  0  0  0  0  0  0  0  0
   -1.8991    3.6211   -7.1900 C   0  0  0  0  0  0  0  0  0  0  0  0
   -0.9428    4.2908   -5.8988 S   0  0  0  0  0  0  0  0  0  0  0  0
   -1.2943    5.9169   -6.3688 C   0  0  0  0  0  0  0  0  0  0  0  0
   -0.7017    7.0774   -5.6487 C   0  0  0  0  0  0  0  0  0  0  0  0
    0.6312    7.4887   -6.2790 C   0  0  0  0  0  0  0  0  0  0  0  0
   -2.0985    5.9260   -7.4689 C   0  0  0  0  0  0  0  0  0  0  0  0
   -2.6614    7.3586   -8.2263 Cl  0  0  0  0  0  0  0  0  0  0  0  0
   -2.4460    4.6297   -7.9358 C   0  0  0  0  0  0  0  0  0  0  0  0
   -3.5212    4.3913   -9.2479 Cl  0  0  0  0  0  0  0  0  0  0  0  0
   -1.7645    1.5798   -8.5993 C   0  0  0  0  0  0  0  0  0  0  0  0
   -1.8980    0.1835   -8.8038 C   0  0  0  0  0  0  0  0  0  0  0  0
   -2.3137   -0.6587   -7.7562 C   0  0  0  0  0  0  0  0  0  0  0  0
   -2.4805   -2.0841   -7.9856 C   0  0  0  0  0  0  0  0  0  0  0  0
   -3.4610   -2.6525   -9.3066 S   0  0  0  0  0  0  0  0  0  0  0  0
   -3.1261   -4.3118   -8.9483 C   0  0  0  0  0  0  0  0  0  0  0  0
   -3.6552   -5.3981   -9.8177 C   0  0  0  0  0  0  0  0  0  0  0  0
   -2.9686   -5.3881  -11.1856 C   0  0  0  0  0  0  0  0  0  0  0  0
   -2.3070   -4.4038   -7.8630 C   0  0  0  0  0  0  0  0  0  0  0  0
   -1.9440   -3.1447   -7.3103 C   0  0  0  0  0  0  0  0  0  0  0  0
   -0.8602   -3.0044   -5.9916 Cl  0  0  0  0  0  0  0  0  0  0  0  0
   -1.7441   -5.8856   -7.2058 Cl  0  0  0  0  0  0  0  0  0  0  0  0
   -2.5430   -0.0591   -6.5265 C   0  0  0  0  0  0  0  0  0  0  0  0
   -3.0488   -0.8672   -5.0735 S   0  0  0  0  0  0  0  0  0  0  0  0
   -1.5035   -0.1968  -10.1061 C   0  0  0  0  0  0  0  0  0  0  0  0
   -1.0862    0.8466  -10.8787 C   0  0  0  0  0  0  0  0  0  0  0  0
   -1.1659    2.3735  -10.0301 S   0  0  0  0  0  0  0  0  0  0  0  0
   -0.6434    0.7638  -12.2303 C   0  0  0  0  0  0  0  0  0  0  0  0
   -0.2530    1.7652  -13.0674 C   0  0  0  0  0  0  0  0  0  0  0  0
    0.0897    1.3113  -14.3665 C   0  0  0  0  0  0  0  0  0  0  0  0
    0.5572    2.0642  -15.4565 C   0  0  0  0  0  0  0  0  0  0  0  0
    0.6459    3.5122  -15.3835 C   0  0  0  0  0  0  0  0  0  0  0  0
    2.1112    4.3560  -15.7876 S   0  0  0  0  0  0  0  0  0  0  0  0
    1.4067    5.8999  -15.4520 C   0  0  0  0  0  0  0  0  0  0  0  0
    2.2066    7.1514  -15.5513 C   0  0  0  0  0  0  0  0  0  0  0  0
    2.9706    7.4158  -14.2514 C   0  0  0  0  0  0  0  0  0  0  0  0
    0.1125    5.7537  -15.0491 C   0  0  0  0  0  0  0  0  0  0  0  0
   -0.9134    7.0641  -14.6303 Cl  0  0  0  0  0  0  0  0  0  0  0  0
   -0.3242    4.4026  -15.0121 C   0  0  0  0  0  0  0  0  0  0  0  0
   -1.9368    3.9658  -14.6167 Cl  0  0  0  0  0  0  0  0  0  0  0  0
    0.9243    1.3595  -16.5973 C   0  0  0  0  0  0  0  0  0  0  0  0
    0.8130   -0.0467  -16.7079 C   0  0  0  0  0  0  0  0  0  0  0  0
    0.3095   -0.7967  -15.6334 C   0  0  0  0  0  0  0  0  0  0  0  0
    0.1885   -2.2449  -15.6859 C   0  0  0  0  0  0  0  0  0  0  0  0
    1.5518   -3.2442  -16.0992 S   0  0  0  0  0  0  0  0  0  0  0  0
    0.6647   -4.7063  -15.8338 C   0  0  0  0  0  0  0  0  0  0  0  0
    1.2821   -6.0399  -16.0723 C   0  0  0  0  0  0  0  0  0  0  0  0
    1.1842   -6.4323  -17.5484 C   0  0  0  0  0  0  0  0  0  0  0  0
   -0.6147   -4.4203  -15.4626 C   0  0  0  0  0  0  0  0  0  0  0  0
   -0.8880   -3.0286  -15.3731 C   0  0  0  0  0  0  0  0  0  0  0  0
   -2.4491   -2.4303  -14.9960 Cl  0  0  0  0  0  0  0  0  0  0  0  0
   -1.7988   -5.6113  -15.1126 Cl  0  0  0  0  0  0  0  0  0  0  0  0
   -0.0359   -0.0950  -14.4846 C   0  0  0  0  0  0  0  0  0  0  0  0
   -0.5895   -0.8083  -13.0006 S   0  0  0  0  0  0  0  0  0  0  0  0
    1.2196   -0.5056  -17.9946 C   0  0  0  0  0  0  0  0  0  0  0  0
    1.6180    0.4959  -18.8050 C   0  0  0  0  0  0  0  0  0  0  0  0
    1.5256    2.0602  -18.0737 S   0  0  0  0  0  0  0  0  0  0  0  0
    5.6665   -1.0635   18.9441 H   0  0  0  0  0  0  0  0  0  0  0  0
    5.0354   -3.2402   17.6641 H   0  0  0  0  0  0  0  0  0  0  0  0
    3.9253   -8.8716   15.1897 H   0  0  0  0  0  0  0  0  0  0  0  0
    4.1992   -8.1438   13.5947 H   0  0  0  0  0  0  0  0  0  0  0  0
    6.4906   -7.4553   14.3092 H   0  0  0  0  0  0  0  0  0  0  0  0
    6.2202   -8.1986   15.8890 H   0  0  0  0  0  0  0  0  0  0  0  0
    6.2773   -9.2049   14.4388 H   0  0  0  0  0  0  0  0  0  0  0  0
    2.5367    5.9261   15.0601 H   0  0  0  0  0  0  0  0  0  0  0  0
    4.2107    5.3714   15.2565 H   0  0  0  0  0  0  0  0  0  0  0  0
    2.6883    5.5087   12.6078 H   0  0  0  0  0  0  0  0  0  0  0  0
    3.9396    6.6388   13.1356 H   0  0  0  0  0  0  0  0  0  0  0  0
    4.3543    4.9542   12.7997 H   0  0  0  0  0  0  0  0  0  0  0  0
    1.4749    0.3113   12.5965 H   0  0  0  0  0  0  0  0  0  0  0  0
    0.0845    0.2240   10.7227 H   0  0  0  0  0  0  0  0  0  0  0  0
    0.5827    5.0878    8.9618 H   0  0  0  0  0  0  0  0  0  0  0  0
   -1.0693    5.6773    9.2241 H   0  0  0  0  0  0  0  0  0  0  0  0
    0.5951    4.0856   11.2420 H   0  0  0  0  0  0  0  0  0  0  0  0
   -1.0509    4.6653   11.5122 H   0  0  0  0  0  0  0  0  0  0  0  0
    0.2672    5.8222   11.3175 H   0  0  0  0  0  0  0  0  0  0  0  0
    0.1645   -8.9662    7.0506 H   0  0  0  0  0  0  0  0  0  0  0  0
    1.5941   -8.1262    7.6833 H   0  0  0  0  0  0  0  0  0  0  0  0
    2.1583   -7.3660    5.3707 H   0  0  0  0  0  0  0  0  0  0  0  0
    0.7414   -8.2178    4.7476 H   0  0  0  0  0  0  0  0  0  0  0  0
    2.0747   -9.1289    5.4629 H   0  0  0  0  0  0  0  0  0  0  0  0
   -1.6209   -3.4834    4.8946 H   0  0  0  0  0  0  0  0  0  0  0  0
   -2.1787   -6.9166    2.0494 H   0  0  0  0  0  0  0  0  0  0  0  0
   -3.8700   -6.7825    2.5146 H   0  0  0  0  0  0  0  0  0  0  0  0
   -2.7995   -8.6137    0.3053 H   0  0  0  0  0  0  0  0  0  0  0  0
   -3.2995   -9.1438    1.9186 H   0  0  0  0  0  0  0  0  0  0  0  0
   -4.4867   -8.4841    0.7845 H   0  0  0  0  0  0  0  0  0  0  0  0
   -4.2347    7.0576   -0.9080 H   0  0  0  0  0  0  0  0  0  0  0  0
   -4.4906    5.8328   -2.1696 H   0  0  0  0  0  0  0  0  0  0  0  0
   -2.4663    7.2164   -2.6255 H   0  0  0  0  0  0  0  0  0  0  0  0
   -2.0146    5.5307   -2.3710 H   0  0  0  0  0  0  0  0  0  0  0  0
   -1.7680    6.7138   -1.0820 H   0  0  0  0  0  0  0  0  0  0  0  0
   -2.6289    2.7154   -4.6404 H   0  0  0  0  0  0  0  0  0  0  0  0
   -1.4006    7.9147   -5.6984 H   0  0  0  0  0  0  0  0  0  0  0  0
   -0.5435    6.8118   -4.6024 H   0  0  0  0  0  0  0  0  0  0  0  0
    1.3375    6.6628   -6.2409 H   0  0  0  0  0  0  0  0  0  0  0  0
    0.4841    7.7729   -7.3176 H   0  0  0  0  0  0  0  0  0  0  0  0
    1.0526    8.3340   -5.7420 H   0  0  0  0  0  0  0  0  0  0  0  0
   -4.7307   -5.2651   -9.9544 H   0  0  0  0  0  0  0  0  0  0  0  0
   -3.4833   -6.3547   -9.3221 H   0  0  0  0  0  0  0  0  0  0  0  0
   -1.8967   -5.5321  -11.0730 H   0  0  0  0  0  0  0  0  0  0  0  0
   -3.1399   -4.4389  -11.6884 H   0  0  0  0  0  0  0  0  0  0  0  0
   -3.3630   -6.1871  -11.8075 H   0  0  0  0  0  0  0  0  0  0  0  0
   -1.5108   -1.2095  -10.4655 H   0  0  0  0  0  0  0  0  0  0  0  0
   -0.2025    2.7925  -12.7559 H   0  0  0  0  0  0  0  0  0  0  0  0
    2.9138    7.0645  -16.3776 H   0  0  0  0  0  0  0  0  0  0  0  0
    1.5305    7.9842  -15.7533 H   0  0  0  0  0  0  0  0  0  0  0  0
    3.5478    8.3323  -14.3374 H   0  0  0  0  0  0  0  0  0  0  0  0
    2.2767    7.5173  -13.4209 H   0  0  0  0  0  0  0  0  0  0  0  0
    3.6494    6.5932  -14.0393 H   0  0  0  0  0  0  0  0  0  0  0  0
    2.3310   -6.0135  -15.7723 H   0  0  0  0  0  0  0  0  0  0  0  0
    0.7610   -6.7797  -15.4620 H   0  0  0  0  0  0  0  0  0  0  0  0
    1.6311   -7.4102  -17.7048 H   0  0  0  0  0  0  0  0  0  0  0  0
    0.1434   -6.4709  -17.8597 H   0  0  0  0  0  0  0  0  0  0  0  0
    1.7066   -5.7066  -18.1673 H   0  0  0  0  0  0  0  0  0  0  0  0
    1.2044   -1.5393  -18.2867 H   0  0  0  0  0  0  0  0  0  0  0  0
    1.9694    0.4242  -19.8157 H   0  0  0  0  0  0  0  0  0  0  0  0
  1  2  2  0  0  0  0
  2  3  1  0  0  0  0
  3  4  2  0  0  0  0
  4  5  1  0  0  0  0
  5  6  1  0  0  0  0
  6  7  1  0  0  0  0
  7  8  1  0  0  0  0
  8  9  1  0  0  0  0
  7 10  2  0  0  0  0
 10 11  1  0  0  0  0
 10 12  1  0  0  0  0
 12 13  1  0  0  0  0
  4 14  1  0  0  0  0
 14 15  2  0  0  0  0
 15 16  1  0  0  0  0
 16 17  1  0  0  0  0
 17 18  1  0  0  0  0
 18 19  1  0  0  0  0
 19 20  1  0  0  0  0
 20 21  1  0  0  0  0
 19 22  2  0  0  0  0
 22 23  1  0  0  0  0
 23 24  1  0  0  0  0
 22 25  1  0  0  0  0
 16 26  2  0  0  0  0
 26 27  1  0  0  0  0
 15 28  1  0  0  0  0
 28 29  2  0  0  0  0
 29 30  1  0  0  0  0
 29 31  1  0  0  0  0
 31 32  2  0  0  0  0
 32 33  1  0  0  0  0
 33 34  2  0  0  0  0
 34 35  1  0  0  0  0
 35 36  1  0  0  0  0
 36 37  1  0  0  0  0
 37 38  1  0  0  0  0
 38 39  1  0  0  0  0
 37 40  2  0  0  0  0
 40 41  1  0  0  0  0
 40 42  1  0  0  0  0
 42 43  1  0  0  0  0
 34 44  1  0  0  0  0
 44 45  2  0  0  0  0
 45 46  1  0  0  0  0
 46 47  1  0  0  0  0
 47 48  1  0  0  0  0
 48 49  1  0  0  0  0
 49 50  1  0  0  0  0
 50 51  1  0  0  0  0
 49 52  2  0  0  0  0
 52 53  1  0  0  0  0
 53 54  1  0  0  0  0
 52 55  1  0  0  0  0
 46 56  2  0  0  0  0
 56 57  1  0  0  0  0
 45 58  1  0  0  0  0
 58 59  2  0  0  0  0
 59 60  1  0  0  0  0
 59 61  1  0  0  0  0
 61 62  1  0  0  0  0
 62 63  1  0  0  0  0
 63 64  2  0  0  0  0
 64 65  1  0  0  0  0
 65 66  1  0  0  0  0
 66 67  1  0  0  0  0
 67 68  1  0  0  0  0
 68 69  2  0  0  0  0
 68 70  1  0  0  0  0
 70 71  1  0  0  0  0
 67 72  2  0  0  0  0
 72 73  1  0  0  0  0
 63 74  1  0  0  0  0
 74 75  1  0  0  0  0
 75 76  1  0  0  0  0
 76 77  2  0  0  0  0
 77 78  1  0  0  0  0
 78 79  1  0  0  0  0
 79 80  1  0  0  0  0
 80 81  1  0  0  0  0
 81 82  2  0  0  0  0
 81 83  1  0  0  0  0
 83 84  1  0  0  0  0
 80 85  2  0  0  0  0
 85 86  1  0  0  0  0
 76 87  1  0  0  0  0
 87 88  2  0  0  0  0
 88 89  1  0  0  0  0
 89 90  2  0  0  0  0
 90 91  1  0  0  0  0
 91 92  1  0  0  0  0
 92 93  1  0  0  0  0
 93 94  1  0  0  0  0
 94 95  1  0  0  0  0
 93 96  2  0  0  0  0
 96 97  1  0  0  0  0
 96 98  1  0  0  0  0
 98 99  1  0  0  0  0
 90100  1  0  0  0  0
100101  2  0  0  0  0
101102  1  0  0  0  0
102103  1  0  0  0  0
103104  1  0  0  0  0
104105  1  0  0  0  0
105106  1  0  0  0  0
106107  1  0  0  0  0
105108  2  0  0  0  0
108109  1  0  0  0  0
109110  1  0  0  0  0
108111  1  0  0  0  0
102112  2  0  0  0  0
112113  1  0  0  0  0
101114  1  0  0  0  0
114115  2  0  0  0  0
115116  1  0  0  0  0
115117  1  0  0  0  0
117118  2  0  0  0  0
118119  1  0  0  0  0
119120  2  0  0  0  0
120121  1  0  0  0  0
121122  1  0  0  0  0
122123  1  0  0  0  0
123124  1  0  0  0  0
124125  1  0  0  0  0
123126  2  0  0  0  0
126127  1  0  0  0  0
126128  1  0  0  0  0
128129  1  0  0  0  0
120130  1  0  0  0  0
130131  2  0  0  0  0
131132  1  0  0  0  0
132133  1  0  0  0  0
133134  1  0  0  0  0
134135  1  0  0  0  0
135136  1  0  0  0  0
136137  1  0  0  0  0
135138  2  0  0  0  0
138139  1  0  0  0  0
139140  1  0  0  0  0
138141  1  0  0  0  0
132142  2  0  0  0  0
142143  1  0  0  0  0
131144  1  0  0  0  0
144145  2  0  0  0  0
145146  1  0  0  0  0
 27  1  1  0  0  0  0
 57 31  1  0  0  0  0
 65 61  2  0  0  0  0
 78 74  2  0  0  0  0
113 87  1  0  0  0  0
143117  1  0  0  0  0
 26  3  1  0  0  0  0
 56 33  1  0  0  0  0
 72 64  1  0  0  0  0
 85 77  1  0  0  0  0
112 89  1  0  0  0  0
142119  1  0  0  0  0
 12  5  2  0  0  0  0
 30 14  1  0  0  0  0
 42 35  2  0  0  0  0
 60 44  1  0  0  0  0
 98 91  2  0  0  0  0
116100  1  0  0  0  0
128121  2  0  0  0  0
146130  1  0  0  0  0
 23 17  2  0  0  0  0
 53 47  2  0  0  0  0
109103  2  0  0  0  0
139133  2  0  0  0  0
  1147  1  0  0  0  0
  2148  1  0  0  0  0
  8149  1  0  0  0  0
  8150  1  0  0  0  0
  9151  1  0  0  0  0
  9152  1  0  0  0  0
  9153  1  0  0  0  0
 20154  1  0  0  0  0
 20155  1  0  0  0  0
 21156  1  0  0  0  0
 21157  1  0  0  0  0
 21158  1  0  0  0  0
 28159  1  0  0  0  0
 32160  1  0  0  0  0
 38161  1  0  0  0  0
 38162  1  0  0  0  0
 39163  1  0  0  0  0
 39164  1  0  0  0  0
 39165  1  0  0  0  0
 50166  1  0  0  0  0
 50167  1  0  0  0  0
 51168  1  0  0  0  0
 51169  1  0  0  0  0
 51170  1  0  0  0  0
 58171  1  0  0  0  0
 70172  1  0  0  0  0
 70173  1  0  0  0  0
 71174  1  0  0  0  0
 71175  1  0  0  0  0
 71176  1  0  0  0  0
 83177  1  0  0  0  0
 83178  1  0  0  0  0
 84179  1  0  0  0  0
 84180  1  0  0  0  0
 84181  1  0  0  0  0
 88182  1  0  0  0  0
 94183  1  0  0  0  0
 94184  1  0  0  0  0
 95185  1  0  0  0  0
 95186  1  0  0  0  0
 95187  1  0  0  0  0
106188  1  0  0  0  0
106189  1  0  0  0  0
107190  1  0  0  0  0
107191  1  0  0  0  0
107192  1  0  0  0  0
114193  1  0  0  0  0
118194  1  0  0  0  0
124195  1  0  0  0  0
124196  1  0  0  0  0
125197  1  0  0  0  0
125198  1  0  0  0  0
125199  1  0  0  0  0
136200  1  0  0  0  0
136201  1  0  0  0  0
137202  1  0  0  0  0
137203  1  0  0  0  0
137204  1  0  0  0  0
144205  1  0  0  0  0
145206  1  0  0  0  0
M  END
