182

C          5.14690      -12.67360       10.81330
C          5.92910      -11.68130       10.34070
C          5.28940      -10.90790        9.32930
C          5.78840       -9.79260        8.63800
C          7.11400       -9.25400        8.90010
S          7.60360       -8.80240       10.50680
C          9.14800       -8.23980        9.96550
C         10.16350       -7.72690       10.92560
C         10.95810       -8.87820       11.54690
C          9.26660       -8.41060        8.61880
Cl        10.66200       -7.97930        7.71870
C          8.11450       -8.97770        8.01010
Cl         8.05100       -9.34570        6.33800
C          4.94460       -9.19790        7.70890
C          3.63800       -9.67380        7.43480
C          3.15120      -10.81030        8.10350
C          1.82370      -11.33470        7.82900
S          0.41240      -10.32150        7.92260
C         -0.64780      -11.62090        7.49490
C         -2.10860      -11.39520        7.31960
C         -2.39890      -10.77890        5.94890
C          0.06500      -12.76340        7.28740
C          1.46440      -12.60760        7.48210
Cl         2.57390      -13.88340        7.20650
Cl        -0.63710      -14.26180        6.83450
C          3.99050      -11.39520        9.04470
S          3.59430      -12.75200       10.05950
C          2.98200       -8.88210        6.46350
C          3.73260       -7.82750        6.02560
S          5.30820       -7.76750        6.78550
C          3.35900       -6.84530        5.07360
S          1.73570       -6.77640        4.43280
C          2.07840       -5.38410        3.43360
C          3.41420       -5.00610        3.59180
C          4.10870       -5.83360        4.51790
S          5.76490       -5.37170        4.72140
C          5.56450       -4.06280        3.56890
C          6.67800       -3.16840        3.21680
O          6.53720       -2.25330        2.44040
C          7.98530       -3.49630        3.90280
C          9.09320       -2.53440        3.49930
C          4.28560       -4.01070        3.07700
F          3.89850       -3.10400        2.18310
C          1.04210       -4.82530        2.65770
S          1.23750       -3.41770        1.64060
C         -0.42640       -3.40810        1.14640
C         -1.11380       -4.47290        1.73740
C         -0.27470       -5.25080        2.58010
S         -1.10700       -6.57200        3.32270
C         -2.59770       -6.12400        2.51200
C         -3.84790       -6.87300        2.68400
O         -4.82740       -6.62930        2.01630
C         -3.83320       -7.92260        3.77090
C         -4.00550       -7.24780        5.13380
C         -2.42500       -5.01700        1.72120
F         -3.42490       -4.50440        1.00970
C         -0.86950       -2.37730        0.27930
C         -2.14630       -2.03000       -0.07330
C         -2.21230       -0.91420       -0.93510
C         -3.37230       -0.31790       -1.47230
C         -4.67900       -0.90260       -1.22480
S         -4.96870       -2.59070       -1.53850
C         -6.60410       -2.49530       -0.99310
C         -7.46320       -3.70790       -0.92170
C         -7.26580       -4.43400        0.41230
C         -6.89680       -1.22360       -0.59570
Cl        -8.42600       -0.74210        0.01600
C         -5.81280       -0.31620       -0.73160
Cl        -5.91680        1.31640       -0.22230
C         -3.18860        0.82520       -2.23750
C         -1.90290        1.36780       -2.49200
C         -0.74160        0.73660       -2.01110
C          0.56970        1.25760       -2.35540
S          1.77340        1.58620       -1.14480
C          2.89330        2.19650       -2.31220
C          4.21180        2.75560       -1.90660
C          4.11970        4.27050       -1.70490
C          2.35460        2.13960       -3.56380
C          1.04150        1.60250       -3.59400
Cl         0.19260        1.34420       -5.06490
Cl         3.16750        2.66550       -4.98000
C         -0.92820       -0.38200       -1.21460
S          0.32550       -1.31260       -0.45110
C         -1.97360        2.56260       -3.23760
C         -3.24350        2.90260       -3.60840
S         -4.43100        1.76780       -3.01540
C         -3.56640        4.06880       -4.36560
C         -2.65910        4.79640       -5.08040
C         -3.19200        5.98280       -5.62940
C         -2.51050        6.96500       -6.36920
C         -1.07610        6.87650       -6.57790
S         -0.37800        7.05620       -8.15980
C          1.22790        6.80000       -7.56740
C          2.40330        6.88190       -8.47680
C          2.78740        8.34100       -8.73390
C          1.20990        6.60310       -6.21880
Cl         2.60970        6.31460       -5.27150
C         -0.09260        6.64430       -5.65390
Cl        -0.35210        6.51120       -3.96090
C         -3.27140        8.01800       -6.85460
C         -4.66110        8.14600       -6.60590
C         -5.33780        7.16470       -5.85710
C         -6.76810        7.24860       -5.61980
S         -7.43040        7.09950       -4.01960
C         -9.05300        7.28300       -4.58970
C        -10.20920        7.19330       -3.65670
C        -10.58790        5.73200       -3.40250
C         -9.06600        7.43610       -5.94440
C         -7.77290        7.42310       -6.53180
Cl        -7.53140        7.52700       -8.22830
Cl       -10.49580        7.63340       -6.87290
C         -4.57690        6.11260       -5.36420
S         -5.16270        4.78240       -4.40210
C         -5.17970        9.35090       -7.13800
C         -4.24560       10.10440       -7.78830
S         -2.65570        9.36830       -7.76400
C         -4.43400       11.35340       -8.44070
S         -6.00760       12.10760       -8.54940
C         -5.40230       13.45680       -9.41370
C         -4.05120       13.34950       -9.62110
C         -3.50730       12.15230       -9.06760
S         -1.79910       12.02680       -9.33160
C         -1.78580       13.57120      -10.18240
C         -0.53730       14.13110      -10.72640
O         -0.51860       15.18440      -11.31660
C          0.68970       13.28210      -10.47880
C          1.94490       13.91570      -11.06030
C         -3.03310       14.12630      -10.24690
F         -3.30770       15.28790      -10.83100
H          5.38390      -13.39270       11.57300
H          6.92730      -11.49240       10.68940
H          9.66500       -7.16220       11.71520
H         10.84280       -7.05980       10.39210
H         11.46890       -9.44460       10.77220
H         10.29270       -9.54770       12.08690
H         11.69900       -8.48910       12.23970
H         -2.47130      -10.72690        8.10260
H         -2.62360      -12.35290        7.40950
H         -3.46810      -10.62980        5.82510
H         -1.89440       -9.81990        5.85460
H         -2.04690      -11.43720        5.15870
H          1.99260       -9.07710        6.09210
H          7.82120       -3.46520        4.98350
H          8.25570       -4.52470        3.64760
H         10.02210       -2.79170        4.00130
H          8.81920       -1.51590        3.76210
H          9.24950       -2.57310        2.42430
H         -4.66330       -8.60740        3.59410
H         -2.89380       -8.47710        3.74550
H         -4.93010       -6.67550        5.15380
H         -4.04560       -7.99830        5.91860
H         -3.17550       -6.57660        5.34190
H         -3.02070       -2.52910        0.28990
H         -7.21030       -4.38150       -1.74190
H         -8.50760       -3.40550       -1.02350
H         -7.91180       -5.30610        0.45840
H         -6.23660       -4.76380        0.52590
H         -7.51390       -3.77400        1.23980
H          4.53700        2.28020       -0.98040
H          4.94280        2.53780       -2.68830
H          3.40030        4.50520       -0.92410
H          3.80380        4.75540       -2.62510
H          5.08940        4.66770       -1.41750
H         -1.11880        3.17460       -3.45180
H         -1.64620        4.47780       -5.23340
H          2.16390        6.39790       -9.42530
H          3.24110        6.35510       -8.01670
H          3.64150        8.38990       -9.40360
H          1.95460        8.87440       -9.18650
H          3.04790        8.83240       -7.79980
H        -11.05730        7.72190       -4.09540
H         -9.94940        7.67030       -2.71010
H         -9.74700        5.19430       -2.97120
H        -11.42740        5.67850       -2.71470
H        -10.86890        5.24790       -4.33420
H         -6.20220        9.66380       -7.03150
H         -6.06130       14.24430       -9.71800
H          0.79310       13.14060       -9.39950
H          0.51530       12.29590      -10.91800
H          2.81270       13.29210      -10.86210
H          1.83790       14.04230      -12.13450
H          2.10660       14.89690      -10.62140
