
  xtb     02282223113D
 energy: -365.838772319954 gnorm: 0.000211283622 xtb: 6.4.1 (unknown)
182202  0     0  0            999 V2000
    1.4956  -12.9277   11.6122 C   0  0  0  0  0  0  0  0  0  0  0  0
    1.3166  -11.6268   11.9218 C   0  0  0  0  0  0  0  0  0  0  0  0
    1.0659  -10.8161   10.7773 C   0  0  0  0  0  0  0  0  0  0  0  0
    0.7780   -9.4421   10.7344 C   0  0  0  0  0  0  0  0  0  0  0  0
    0.7887   -8.6204   11.9345 C   0  0  0  0  0  0  0  0  0  0  0  0
    2.1881   -8.5609   12.9660 S   0  0  0  0  0  0  0  0  0  0  0  0
    1.4578   -7.4039   14.0254 C   0  0  0  0  0  0  0  0  0  0  0  0
    2.2006   -6.8408   15.1863 C   0  0  0  0  0  0  0  0  0  0  0  0
    3.0234   -5.6198   14.7676 C   0  0  0  0  0  0  0  0  0  0  0  0
    0.2061   -7.0886   13.5888 C   0  0  0  0  0  0  0  0  0  0  0  0
   -0.8302   -5.9751   14.3822 Cl  0  0  0  0  0  0  0  0  0  0  0  0
   -0.1782   -7.7770   12.4065 C   0  0  0  0  0  0  0  0  0  0  0  0
   -1.7362   -7.6093   11.7137 Cl  0  0  0  0  0  0  0  0  0  0  0  0
    0.5032   -8.8946    9.4880 C   0  0  0  0  0  0  0  0  0  0  0  0
    0.5222   -9.6582    8.2945 C   0  0  0  0  0  0  0  0  0  0  0  0
    0.8194  -11.0324    8.3344 C   0  0  0  0  0  0  0  0  0  0  0  0
    0.8582  -11.8096    7.1076 C   0  0  0  0  0  0  0  0  0  0  0  0
   -0.4619  -11.7568    5.9735 S   0  0  0  0  0  0  0  0  0  0  0  0
    0.3525  -12.7876    4.8482 C   0  0  0  0  0  0  0  0  0  0  0  0
   -0.2376  -13.0647    3.5106 C   0  0  0  0  0  0  0  0  0  0  0  0
   -0.0713  -11.8467    2.5976 C   0  0  0  0  0  0  0  0  0  0  0  0
    1.5679  -13.1557    5.3429 C   0  0  0  0  0  0  0  0  0  0  0  0
    1.8560  -12.6102    6.6238 C   0  0  0  0  0  0  0  0  0  0  0  0
    3.3601  -12.8601    7.4047 Cl  0  0  0  0  0  0  0  0  0  0  0  0
    2.6732  -14.1720    4.5119 Cl  0  0  0  0  0  0  0  0  0  0  0  0
    1.0750  -11.5814    9.5852 C   0  0  0  0  0  0  0  0  0  0  0  0
    1.3818  -13.2606    9.9209 S   0  0  0  0  0  0  0  0  0  0  0  0
    0.2695   -8.8597    7.1569 C   0  0  0  0  0  0  0  0  0  0  0  0
    0.0490   -7.5439    7.4506 C   0  0  0  0  0  0  0  0  0  0  0  0
    0.1630   -7.2155    9.1654 S   0  0  0  0  0  0  0  0  0  0  0  0
   -0.2499   -6.5238    6.5129 C   0  0  0  0  0  0  0  0  0  0  0  0
   -0.3456   -6.9015    4.8097 S   0  0  0  0  0  0  0  0  0  0  0  0
   -0.7032   -5.2533    4.3608 C   0  0  0  0  0  0  0  0  0  0  0  0
   -0.7664   -4.4527    5.5044 C   0  0  0  0  0  0  0  0  0  0  0  0
   -0.5053   -5.1843    6.6972 C   0  0  0  0  0  0  0  0  0  0  0  0
   -0.5816   -4.1989    8.1189 S   0  0  0  0  0  0  0  0  0  0  0  0
   -0.9815   -2.7909    7.1491 C   0  0  0  0  0  0  0  0  0  0  0  0
   -1.2209   -1.4754    7.7613 C   0  0  0  0  0  0  0  0  0  0  0  0
   -1.5325   -0.5131    7.0998 O   0  0  0  0  0  0  0  0  0  0  0  0
   -1.0448   -1.4431    9.2630 C   0  0  0  0  0  0  0  0  0  0  0  0
   -1.3002   -0.0563    9.8347 C   0  0  0  0  0  0  0  0  0  0  0  0
   -1.0382   -3.0946    5.8129 C   0  0  0  0  0  0  0  0  0  0  0  0
   -1.3369   -2.1887    4.8841 F   0  0  0  0  0  0  0  0  0  0  0  0
   -0.8300   -4.9338    2.9939 C   0  0  0  0  0  0  0  0  0  0  0  0
   -0.9872   -3.3016    2.3965 S   0  0  0  0  0  0  0  0  0  0  0  0
   -0.9818   -3.7952    0.7273 C   0  0  0  0  0  0  0  0  0  0  0  0
   -0.8823   -5.1846    0.6410 C   0  0  0  0  0  0  0  0  0  0  0  0
   -0.7945   -5.8063    1.9170 C   0  0  0  0  0  0  0  0  0  0  0  0
   -0.6671   -7.5292    1.8243 S   0  0  0  0  0  0  0  0  0  0  0  0
   -0.7440   -7.4516    0.0726 C   0  0  0  0  0  0  0  0  0  0  0  0
   -0.6889   -8.7400   -0.6245 C   0  0  0  0  0  0  0  0  0  0  0  0
   -0.6195   -9.7665    0.0154 O   0  0  0  0  0  0  0  0  0  0  0  0
   -0.7236   -8.6928   -2.1331 C   0  0  0  0  0  0  0  0  0  0  0  0
   -0.6330  -10.0861   -2.7385 C   0  0  0  0  0  0  0  0  0  0  0  0
   -0.8531   -6.1658   -0.3838 C   0  0  0  0  0  0  0  0  0  0  0  0
   -0.9426   -5.8675   -1.6844 F   0  0  0  0  0  0  0  0  0  0  0  0
   -1.0095   -2.7788   -0.2594 C   0  0  0  0  0  0  0  0  0  0  0  0
   -1.1852   -1.4434    0.0048 C   0  0  0  0  0  0  0  0  0  0  0  0
   -1.0447   -0.6172   -1.1267 C   0  0  0  0  0  0  0  0  0  0  0  0
   -1.1411    0.7875   -1.1875 C   0  0  0  0  0  0  0  0  0  0  0  0
   -1.3329    1.5768    0.0160 C   0  0  0  0  0  0  0  0  0  0  0  0
   -2.5863    2.7753    0.1333 S   0  0  0  0  0  0  0  0  0  0  0  0
   -2.1350    3.2009    1.7477 C   0  0  0  0  0  0  0  0  0  0  0  0
   -2.9041    4.2084    2.5277 C   0  0  0  0  0  0  0  0  0  0  0  0
   -4.0404    3.5424    3.3080 C   0  0  0  0  0  0  0  0  0  0  0  0
   -1.0722    2.4516    2.1597 C   0  0  0  0  0  0  0  0  0  0  0  0
   -0.3451    2.5876    3.7072 Cl  0  0  0  0  0  0  0  0  0  0  0  0
   -0.6118    1.5338    1.1788 C   0  0  0  0  0  0  0  0  0  0  0  0
    0.7713    0.5490    1.4232 Cl  0  0  0  0  0  0  0  0  0  0  0  0
   -0.9994    1.3692   -2.4371 C   0  0  0  0  0  0  0  0  0  0  0  0
   -0.7275    0.6196   -3.6096 C   0  0  0  0  0  0  0  0  0  0  0  0
   -0.6518   -0.7858   -3.5526 C   0  0  0  0  0  0  0  0  0  0  0  0
   -0.4321   -1.5661   -4.7565 C   0  0  0  0  0  0  0  0  0  0  0  0
    0.7877   -2.8032   -4.8281 S   0  0  0  0  0  0  0  0  0  0  0  0
    0.4291   -3.1723   -6.4794 C   0  0  0  0  0  0  0  0  0  0  0  0
    1.2125   -4.1908   -7.2311 C   0  0  0  0  0  0  0  0  0  0  0  0
    2.4808   -3.5752   -7.8270 C   0  0  0  0  0  0  0  0  0  0  0  0
   -0.5774   -2.3741   -6.9357 C   0  0  0  0  0  0  0  0  0  0  0  0
   -1.0755   -1.4696   -5.9614 C   0  0  0  0  0  0  0  0  0  0  0  0
   -2.4147   -0.4409   -6.2709 Cl  0  0  0  0  0  0  0  0  0  0  0  0
   -1.2014   -2.4383   -8.5326 Cl  0  0  0  0  0  0  0  0  0  0  0  0
   -0.7911   -1.3698   -2.3016 C   0  0  0  0  0  0  0  0  0  0  0  0
   -0.7143   -3.0734   -1.9623 S   0  0  0  0  0  0  0  0  0  0  0  0
   -0.4985    1.4524   -4.7263 C   0  0  0  0  0  0  0  0  0  0  0  0
   -0.6323    2.7852   -4.4486 C   0  0  0  0  0  0  0  0  0  0  0  0
   -1.0289    3.0784   -2.7685 S   0  0  0  0  0  0  0  0  0  0  0  0
   -0.4693    3.8595   -5.3614 C   0  0  0  0  0  0  0  0  0  0  0  0
   -0.6580    5.5235   -4.8849 S   0  0  0  0  0  0  0  0  0  0  0  0
   -0.2953    6.1319   -6.4777 C   0  0  0  0  0  0  0  0  0  0  0  0
   -0.0398    5.0712   -7.3433 C   0  0  0  0  0  0  0  0  0  0  0  0
   -0.1479    3.8054   -6.7007 C   0  0  0  0  0  0  0  0  0  0  0  0
    0.1458    2.4852   -7.7827 S   0  0  0  0  0  0  0  0  0  0  0  0
    0.4101    3.5956   -9.1157 C   0  0  0  0  0  0  0  0  0  0  0  0
    0.7238    3.1051  -10.4666 C   0  0  0  0  0  0  0  0  0  0  0  0
    0.9395    3.8608  -11.3840 O   0  0  0  0  0  0  0  0  0  0  0  0
    0.7483    1.5975  -10.5935 C   0  0  0  0  0  0  0  0  0  0  0  0
    1.0857    1.1526  -12.0087 C   0  0  0  0  0  0  0  0  0  0  0  0
    0.2774    4.9004   -8.7201 C   0  0  0  0  0  0  0  0  0  0  0  0
    0.4179    5.9205   -9.5593 F   0  0  0  0  0  0  0  0  0  0  0  0
   -0.2785    7.5392   -6.6721 C   0  0  0  0  0  0  0  0  0  0  0  0
   -0.7616    8.4614   -5.7810 C   0  0  0  0  0  0  0  0  0  0  0  0
   -0.5538    9.7989   -6.1819 C   0  0  0  0  0  0  0  0  0  0  0  0
   -0.9359   10.9768   -5.5141 C   0  0  0  0  0  0  0  0  0  0  0  0
   -1.5713   10.9270   -4.2090 C   0  0  0  0  0  0  0  0  0  0  0  0
   -3.0640   11.7613   -3.8967 S   0  0  0  0  0  0  0  0  0  0  0  0
   -3.1179   11.2132   -2.2569 C   0  0  0  0  0  0  0  0  0  0  0  0
   -4.2078   11.6420   -1.3381 C   0  0  0  0  0  0  0  0  0  0  0  0
   -3.9070   13.0207   -0.7453 C   0  0  0  0  0  0  0  0  0  0  0  0
   -2.0291   10.4417   -1.9783 C   0  0  0  0  0  0  0  0  0  0  0  0
   -1.7289    9.7240   -0.4485 Cl  0  0  0  0  0  0  0  0  0  0  0  0
   -1.1526   10.2722   -3.0830 C   0  0  0  0  0  0  0  0  0  0  0  0
    0.3220    9.4005   -2.9618 Cl  0  0  0  0  0  0  0  0  0  0  0  0
   -0.6625   12.1778   -6.1551 C   0  0  0  0  0  0  0  0  0  0  0  0
   -0.0075   12.2540   -7.4083 C   0  0  0  0  0  0  0  0  0  0  0  0
    0.3646   11.0780   -8.0788 C   0  0  0  0  0  0  0  0  0  0  0  0
    0.9913   11.1110   -9.3898 C   0  0  0  0  0  0  0  0  0  0  0  0
    2.4636   10.2447   -9.7112 S   0  0  0  0  0  0  0  0  0  0  0  0
    2.4917   10.7498  -11.3651 C   0  0  0  0  0  0  0  0  0  0  0  0
    3.6067   10.3552  -12.2687 C   0  0  0  0  0  0  0  0  0  0  0  0
    4.8446   11.2226  -12.0293 C   0  0  0  0  0  0  0  0  0  0  0  0
    1.4191   11.5461  -11.6363 C   0  0  0  0  0  0  0  0  0  0  0  0
    0.5631   11.7493  -10.5209 C   0  0  0  0  0  0  0  0  0  0  0  0
   -0.9009   12.6385  -10.6315 Cl  0  0  0  0  0  0  0  0  0  0  0  0
    1.1037   12.2406  -13.1738 Cl  0  0  0  0  0  0  0  0  0  0  0  0
    0.0957    9.8747   -7.4385 C   0  0  0  0  0  0  0  0  0  0  0  0
    0.4412    8.2960   -8.0780 S   0  0  0  0  0  0  0  0  0  0  0  0
    0.2257   13.6058   -7.7954 C   0  0  0  0  0  0  0  0  0  0  0  0
   -0.2451   14.4959   -6.8985 C   0  0  0  0  0  0  0  0  0  0  0  0
   -0.9932   13.7657   -5.5207 S   0  0  0  0  0  0  0  0  0  0  0  0
    1.6941  -13.7414   12.2821 H   0  0  0  0  0  0  0  0  0  0  0  0
    1.3484  -11.2430   12.9247 H   0  0  0  0  0  0  0  0  0  0  0  0
    2.8646   -7.6034   15.5965 H   0  0  0  0  0  0  0  0  0  0  0  0
    1.4820   -6.5501   15.9549 H   0  0  0  0  0  0  0  0  0  0  0  0
    3.5583   -5.2189   15.6242 H   0  0  0  0  0  0  0  0  0  0  0  0
    2.3722   -4.8460   14.3692 H   0  0  0  0  0  0  0  0  0  0  0  0
    3.7450   -5.8953   14.0022 H   0  0  0  0  0  0  0  0  0  0  0  0
   -1.2991  -13.2955    3.6181 H   0  0  0  0  0  0  0  0  0  0  0  0
    0.2670  -13.9282    3.0748 H   0  0  0  0  0  0  0  0  0  0  0  0
   -0.5006  -12.0378    1.6193 H   0  0  0  0  0  0  0  0  0  0  0  0
   -0.5697  -10.9796    3.0240 H   0  0  0  0  0  0  0  0  0  0  0  0
    0.9816  -11.6100    2.4699 H   0  0  0  0  0  0  0  0  0  0  0  0
    0.2534   -9.2294    6.1482 H   0  0  0  0  0  0  0  0  0  0  0  0
   -1.7301   -2.1736    9.7018 H   0  0  0  0  0  0  0  0  0  0  0  0
   -0.0290   -1.7750    9.4943 H   0  0  0  0  0  0  0  0  0  0  0  0
   -0.6133    0.6625    9.3951 H   0  0  0  0  0  0  0  0  0  0  0  0
   -1.1666   -0.0590   10.9132 H   0  0  0  0  0  0  0  0  0  0  0  0
   -2.3133    0.2633    9.6046 H   0  0  0  0  0  0  0  0  0  0  0  0
    0.1025   -8.0666   -2.4792 H   0  0  0  0  0  0  0  0  0  0  0  0
   -1.6491   -8.1993   -2.4404 H   0  0  0  0  0  0  0  0  0  0  0  0
    0.2963  -10.5655   -2.4415 H   0  0  0  0  0  0  0  0  0  0  0  0
   -0.6713  -10.0309   -3.8231 H   0  0  0  0  0  0  0  0  0  0  0  0
   -1.4564  -10.7025   -2.3868 H   0  0  0  0  0  0  0  0  0  0  0  0
   -1.4154   -1.0777    0.9888 H   0  0  0  0  0  0  0  0  0  0  0  0
   -3.3152    4.9565    1.8481 H   0  0  0  0  0  0  0  0  0  0  0  0
   -2.2251    4.7022    3.2255 H   0  0  0  0  0  0  0  0  0  0  0  0
   -4.5831    4.2870    3.8840 H   0  0  0  0  0  0  0  0  0  0  0  0
   -4.7328    3.0555    2.6253 H   0  0  0  0  0  0  0  0  0  0  0  0
   -3.6417    2.7963    3.9904 H   0  0  0  0  0  0  0  0  0  0  0  0
    1.4850   -5.0054   -6.5583 H   0  0  0  0  0  0  0  0  0  0  0  0
    0.5893   -4.5910   -8.0330 H   0  0  0  0  0  0  0  0  0  0  0  0
    2.2232   -2.7699   -8.5103 H   0  0  0  0  0  0  0  0  0  0  0  0
    3.1115   -3.1739   -7.0375 H   0  0  0  0  0  0  0  0  0  0  0  0
    3.0408   -4.3296   -8.3726 H   0  0  0  0  0  0  0  0  0  0  0  0
   -0.2184    1.0841   -5.6946 H   0  0  0  0  0  0  0  0  0  0  0  0
   -0.2309    1.2142  -10.2930 H   0  0  0  0  0  0  0  0  0  0  0  0
    1.4801    1.2067   -9.8809 H   0  0  0  0  0  0  0  0  0  0  0  0
    1.0880    0.0678  -12.0760 H   0  0  0  0  0  0  0  0  0  0  0  0
    0.3553    1.5487  -12.7095 H   0  0  0  0  0  0  0  0  0  0  0  0
    2.0647    1.5274  -12.2966 H   0  0  0  0  0  0  0  0  0  0  0  0
   -1.2682    8.1785   -4.8763 H   0  0  0  0  0  0  0  0  0  0  0  0
   -4.2989   10.9085   -0.5350 H   0  0  0  0  0  0  0  0  0  0  0  0
   -5.1505   11.6812   -1.8866 H   0  0  0  0  0  0  0  0  0  0  0  0
   -2.9789   12.9932   -0.1801 H   0  0  0  0  0  0  0  0  0  0  0  0
   -3.8095   13.7582   -1.5383 H   0  0  0  0  0  0  0  0  0  0  0  0
   -4.7111   13.3249   -0.0809 H   0  0  0  0  0  0  0  0  0  0  0  0
    3.2741   10.4664  -13.3021 H   0  0  0  0  0  0  0  0  0  0  0  0
    3.8585    9.3077  -12.0936 H   0  0  0  0  0  0  0  0  0  0  0  0
    4.6152   12.2685  -12.2172 H   0  0  0  0  0  0  0  0  0  0  0  0
    5.1837   11.1197  -11.0012 H   0  0  0  0  0  0  0  0  0  0  0  0
    5.6478   10.9174  -12.6943 H   0  0  0  0  0  0  0  0  0  0  0  0
    0.7362   13.8837   -8.6984 H   0  0  0  0  0  0  0  0  0  0  0  0
   -0.2010   15.5663   -6.9487 H   0  0  0  0  0  0  0  0  0  0  0  0
  1  2  2  0  0  0  0
  2  3  1  0  0  0  0
  3  4  2  0  0  0  0
  4  5  1  0  0  0  0
  5  6  1  0  0  0  0
  6  7  1  0  0  0  0
  7  8  1  0  0  0  0
  8  9  1  0  0  0  0
  7 10  2  0  0  0  0
 10 11  1  0  0  0  0
 10 12  1  0  0  0  0
 12 13  1  0  0  0  0
  4 14  1  0  0  0  0
 14 15  2  0  0  0  0
 15 16  1  0  0  0  0
 16 17  1  0  0  0  0
 17 18  1  0  0  0  0
 18 19  1  0  0  0  0
 19 20  1  0  0  0  0
 20 21  1  0  0  0  0
 19 22  2  0  0  0  0
 22 23  1  0  0  0  0
 23 24  1  0  0  0  0
 22 25  1  0  0  0  0
 16 26  2  0  0  0  0
 26 27  1  0  0  0  0
 15 28  1  0  0  0  0
 28 29  2  0  0  0  0
 29 30  1  0  0  0  0
 29 31  1  0  0  0  0
 31 32  1  0  0  0  0
 32 33  1  0  0  0  0
 33 34  2  0  0  0  0
 34 35  1  0  0  0  0
 35 36  1  0  0  0  0
 36 37  1  0  0  0  0
 37 38  1  0  0  0  0
 38 39  2  0  0  0  0
 38 40  1  0  0  0  0
 40 41  1  0  0  0  0
 37 42  2  0  0  0  0
 42 43  1  0  0  0  0
 33 44  1  0  0  0  0
 44 45  1  0  0  0  0
 45 46  1  0  0  0  0
 46 47  2  0  0  0  0
 47 48  1  0  0  0  0
 48 49  1  0  0  0  0
 49 50  1  0  0  0  0
 50 51  1  0  0  0  0
 51 52  2  0  0  0  0
 51 53  1  0  0  0  0
 53 54  1  0  0  0  0
 50 55  2  0  0  0  0
 55 56  1  0  0  0  0
 46 57  1  0  0  0  0
 57 58  2  0  0  0  0
 58 59  1  0  0  0  0
 59 60  2  0  0  0  0
 60 61  1  0  0  0  0
 61 62  1  0  0  0  0
 62 63  1  0  0  0  0
 63 64  1  0  0  0  0
 64 65  1  0  0  0  0
 63 66  2  0  0  0  0
 66 67  1  0  0  0  0
 66 68  1  0  0  0  0
 68 69  1  0  0  0  0
 60 70  1  0  0  0  0
 70 71  2  0  0  0  0
 71 72  1  0  0  0  0
 72 73  1  0  0  0  0
 73 74  1  0  0  0  0
 74 75  1  0  0  0  0
 75 76  1  0  0  0  0
 76 77  1  0  0  0  0
 75 78  2  0  0  0  0
 78 79  1  0  0  0  0
 79 80  1  0  0  0  0
 78 81  1  0  0  0  0
 72 82  2  0  0  0  0
 82 83  1  0  0  0  0
 71 84  1  0  0  0  0
 84 85  2  0  0  0  0
 85 86  1  0  0  0  0
 85 87  1  0  0  0  0
 87 88  1  0  0  0  0
 88 89  1  0  0  0  0
 89 90  2  0  0  0  0
 90 91  1  0  0  0  0
 91 92  1  0  0  0  0
 92 93  1  0  0  0  0
 93 94  1  0  0  0  0
 94 95  2  0  0  0  0
 94 96  1  0  0  0  0
 96 97  1  0  0  0  0
 93 98  2  0  0  0  0
 98 99  1  0  0  0  0
 89100  1  0  0  0  0
100101  2  0  0  0  0
101102  1  0  0  0  0
102103  2  0  0  0  0
103104  1  0  0  0  0
104105  1  0  0  0  0
105106  1  0  0  0  0
106107  1  0  0  0  0
107108  1  0  0  0  0
106109  2  0  0  0  0
109110  1  0  0  0  0
109111  1  0  0  0  0
111112  1  0  0  0  0
103113  1  0  0  0  0
113114  2  0  0  0  0
114115  1  0  0  0  0
115116  1  0  0  0  0
116117  1  0  0  0  0
117118  1  0  0  0  0
118119  1  0  0  0  0
119120  1  0  0  0  0
118121  2  0  0  0  0
121122  1  0  0  0  0
122123  1  0  0  0  0
121124  1  0  0  0  0
115125  2  0  0  0  0
125126  1  0  0  0  0
114127  1  0  0  0  0
127128  2  0  0  0  0
128129  1  0  0  0  0
 27  1  1  0  0  0  0
 35 31  2  0  0  0  0
 48 44  2  0  0  0  0
 83 57  1  0  0  0  0
 91 87  2  0  0  0  0
126100  1  0  0  0  0
 26  3  1  0  0  0  0
 42 34  1  0  0  0  0
 55 47  1  0  0  0  0
 82 59  1  0  0  0  0
 98 90  1  0  0  0  0
125102  1  0  0  0  0
 12  5  2  0  0  0  0
 30 14  1  0  0  0  0
 68 61  2  0  0  0  0
 86 70  1  0  0  0  0
111104  2  0  0  0  0
129113  1  0  0  0  0
 23 17  2  0  0  0  0
 79 73  2  0  0  0  0
122116  2  0  0  0  0
  1130  1  0  0  0  0
  2131  1  0  0  0  0
  8132  1  0  0  0  0
  8133  1  0  0  0  0
  9134  1  0  0  0  0
  9135  1  0  0  0  0
  9136  1  0  0  0  0
 20137  1  0  0  0  0
 20138  1  0  0  0  0
 21139  1  0  0  0  0
 21140  1  0  0  0  0
 21141  1  0  0  0  0
 28142  1  0  0  0  0
 40143  1  0  0  0  0
 40144  1  0  0  0  0
 41145  1  0  0  0  0
 41146  1  0  0  0  0
 41147  1  0  0  0  0
 53148  1  0  0  0  0
 53149  1  0  0  0  0
 54150  1  0  0  0  0
 54151  1  0  0  0  0
 54152  1  0  0  0  0
 58153  1  0  0  0  0
 64154  1  0  0  0  0
 64155  1  0  0  0  0
 65156  1  0  0  0  0
 65157  1  0  0  0  0
 65158  1  0  0  0  0
 76159  1  0  0  0  0
 76160  1  0  0  0  0
 77161  1  0  0  0  0
 77162  1  0  0  0  0
 77163  1  0  0  0  0
 84164  1  0  0  0  0
 96165  1  0  0  0  0
 96166  1  0  0  0  0
 97167  1  0  0  0  0
 97168  1  0  0  0  0
 97169  1  0  0  0  0
101170  1  0  0  0  0
107171  1  0  0  0  0
107172  1  0  0  0  0
108173  1  0  0  0  0
108174  1  0  0  0  0
108175  1  0  0  0  0
119176  1  0  0  0  0
119177  1  0  0  0  0
120178  1  0  0  0  0
120179  1  0  0  0  0
120180  1  0  0  0  0
127181  1  0  0  0  0
128182  1  0  0  0  0
M  END
