
  xtb     03012202523D
 energy: -152.130791526980 gnorm: 0.000355668157 xtb: 6.4.1 (unknown)
 78 85  0     0  0            999 V2000
    6.6607   -1.6273    3.1732 C   0  0  0  0  0  0  0  0  0  0  0  0
    5.6541   -0.7423    3.0501 O   0  0  0  0  0  0  0  0  0  0  0  0
    6.2453    0.4730    3.0345 C   0  0  0  0  0  0  0  0  0  0  0  0
    7.5490    0.3950    3.1438 N   0  0  0  0  0  0  0  0  0  0  0  0
    7.8289   -0.9271    3.2314 C   0  0  0  0  0  0  0  0  0  0  0  0
    5.5318    1.7010    2.9117 C   0  0  0  0  0  0  0  0  0  0  0  0
    4.2062    1.9211    2.7686 C   0  0  0  0  0  0  0  0  0  0  0  0
    3.0957    1.0385    2.6899 C   0  0  0  0  0  0  0  0  0  0  0  0
    3.0915   -0.7077    2.7808 S   0  0  0  0  0  0  0  0  0  0  0  0
    1.3764   -0.8162    2.5594 C   0  0  0  0  0  0  0  0  0  0  0  0
    0.8116    0.4518    2.4516 C   0  0  0  0  0  0  0  0  0  0  0  0
    1.7942    1.4748    2.5085 C   0  0  0  0  0  0  0  0  0  0  0  0
    1.1135    3.0573    2.3058 S   0  0  0  0  0  0  0  0  0  0  0  0
   -0.4990    2.3699    2.2060 C   0  0  0  0  0  0  0  0  0  0  0  0
   -1.5931    3.3263    2.0119 C   0  0  0  0  0  0  0  0  0  0  0  0
   -1.3406    4.4977    1.8344 O   0  0  0  0  0  0  0  0  0  0  0  0
   -2.9944    2.7658    2.0499 C   0  0  0  0  0  0  0  0  0  0  0  0
   -4.0382    3.8531    1.8408 C   0  0  0  0  0  0  0  0  0  0  0  0
   -0.4857    1.0054    2.3093 C   0  0  0  0  0  0  0  0  0  0  0  0
   -1.5989    0.2661    2.3018 F   0  0  0  0  0  0  0  0  0  0  0  0
    0.7461   -2.0755    2.4114 C   0  0  0  0  0  0  0  0  0  0  0  0
   -0.5175   -2.1731    1.9365 O   0  0  0  0  0  0  0  0  0  0  0  0
   -0.7896   -3.4903    1.8964 C   0  0  0  0  0  0  0  0  0  0  0  0
    0.2167   -4.2288    2.3212 N   0  0  0  0  0  0  0  0  0  0  0  0
    1.1939   -3.3667    2.6389 C   0  0  0  0  0  0  0  0  0  0  0  0
   -2.0474   -4.0314    1.5046 C   0  0  0  0  0  0  0  0  0  0  0  0
   -3.0560   -3.4369    0.8266 C   0  0  0  0  0  0  0  0  0  0  0  0
   -3.1080   -2.1624    0.2011 C   0  0  0  0  0  0  0  0  0  0  0  0
   -2.0530   -1.3326    0.0221 O   0  0  0  0  0  0  0  0  0  0  0  0
   -2.5456   -0.2441   -0.5997 C   0  0  0  0  0  0  0  0  0  0  0  0
   -3.8410   -0.3362   -0.8351 N   0  0  0  0  0  0  0  0  0  0  0  0
   -4.2110   -1.5304   -0.3600 C   0  0  0  0  0  0  0  0  0  0  0  0
   -1.8135    0.9381   -0.9048 C   0  0  0  0  0  0  0  0  0  0  0  0
   -0.4819    1.1748   -0.8579 C   0  0  0  0  0  0  0  0  0  0  0  0
    0.5821    0.2540   -0.6722 C   0  0  0  0  0  0  0  0  0  0  0  0
    0.4336   -1.0939   -0.6853 O   0  0  0  0  0  0  0  0  0  0  0  0
    1.6746   -1.6004   -0.5539 C   0  0  0  0  0  0  0  0  0  0  0  0
    2.5959   -0.6629   -0.4373 N   0  0  0  0  0  0  0  0  0  0  0  0
    1.9391    0.5020   -0.5267 C   0  0  0  0  0  0  0  0  0  0  0  0
    1.9626   -2.9903   -0.4808 C   0  0  0  0  0  0  0  0  0  0  0  0
    1.1664   -4.0532   -0.7373 C   0  0  0  0  0  0  0  0  0  0  0  0
   -0.1352   -4.1265   -1.3105 C   0  0  0  0  0  0  0  0  0  0  0  0
   -1.0369   -5.6014   -0.9955 S   0  0  0  0  0  0  0  0  0  0  0  0
   -2.3670   -5.1152   -1.9445 C   0  0  0  0  0  0  0  0  0  0  0  0
   -2.1392   -3.8909   -2.5211 C   0  0  0  0  0  0  0  0  0  0  0  0
   -0.8717   -3.3332   -2.1670 C   0  0  0  0  0  0  0  0  0  0  0  0
   -0.5656   -1.8748   -3.0538 S   0  0  0  0  0  0  0  0  0  0  0  0
   -2.1193   -1.9795   -3.8746 C   0  0  0  0  0  0  0  0  0  0  0  0
   -2.5324   -1.0249   -4.9160 C   0  0  0  0  0  0  0  0  0  0  0  0
   -3.6521   -1.0405   -5.3690 O   0  0  0  0  0  0  0  0  0  0  0  0
   -1.4762   -0.0471   -5.3801 C   0  0  0  0  0  0  0  0  0  0  0  0
   -1.5239    1.2109   -4.5109 C   0  0  0  0  0  0  0  0  0  0  0  0
   -2.8277   -3.0720   -3.4597 C   0  0  0  0  0  0  0  0  0  0  0  0
   -4.0325   -3.4071   -3.9100 F   0  0  0  0  0  0  0  0  0  0  0  0
    6.4178   -2.6687    3.2059 H   0  0  0  0  0  0  0  0  0  0  0  0
    8.8339   -1.2813    3.3291 H   0  0  0  0  0  0  0  0  0  0  0  0
    6.1915    2.5554    2.9355 H   0  0  0  0  0  0  0  0  0  0  0  0
    3.8966    2.9576    2.6883 H   0  0  0  0  0  0  0  0  0  0  0  0
   -3.0840    1.9963    1.2787 H   0  0  0  0  0  0  0  0  0  0  0  0
   -3.1399    2.2714    3.0142 H   0  0  0  0  0  0  0  0  0  0  0  0
   -5.0375    3.4282    1.8740 H   0  0  0  0  0  0  0  0  0  0  0  0
   -3.8912    4.3337    0.8771 H   0  0  0  0  0  0  0  0  0  0  0  0
   -3.9497    4.6135    2.6126 H   0  0  0  0  0  0  0  0  0  0  0  0
    2.1436   -3.6880    3.0130 H   0  0  0  0  0  0  0  0  0  0  0  0
   -2.1705   -5.0561    1.8236 H   0  0  0  0  0  0  0  0  0  0  0  0
   -3.9729   -3.9977    0.7028 H   0  0  0  0  0  0  0  0  0  0  0  0
   -5.2218   -1.8768   -0.4256 H   0  0  0  0  0  0  0  0  0  0  0  0
   -2.4679    1.7513   -1.1861 H   0  0  0  0  0  0  0  0  0  0  0  0
   -0.1445    2.1890   -1.0238 H   0  0  0  0  0  0  0  0  0  0  0  0
    2.4473    1.4434   -0.4775 H   0  0  0  0  0  0  0  0  0  0  0  0
    2.9664   -3.1779   -0.1283 H   0  0  0  0  0  0  0  0  0  0  0  0
    1.5618   -5.0224   -0.4600 H   0  0  0  0  0  0  0  0  0  0  0  0
   -3.2295   -5.7419   -2.0491 H   0  0  0  0  0  0  0  0  0  0  0  0
   -1.7001    0.2206   -6.4138 H   0  0  0  0  0  0  0  0  0  0  0  0
   -0.4844   -0.4985   -5.3289 H   0  0  0  0  0  0  0  0  0  0  0  0
   -1.2774    0.9735   -3.4790 H   0  0  0  0  0  0  0  0  0  0  0  0
   -0.8096    1.9430   -4.8791 H   0  0  0  0  0  0  0  0  0  0  0  0
   -2.5191    1.6476   -4.5396 H   0  0  0  0  0  0  0  0  0  0  0  0
  1  2  1  0  0  0  0
  2  3  1  0  0  0  0
  3  4  2  0  0  0  0
  4  5  1  0  0  0  0
  3  6  1  0  0  0  0
  6  7  2  0  0  0  0
  7  8  1  0  0  0  0
  8  9  1  0  0  0  0
  9 10  1  0  0  0  0
 10 11  2  0  0  0  0
 11 12  1  0  0  0  0
 12 13  1  0  0  0  0
 13 14  1  0  0  0  0
 14 15  1  0  0  0  0
 15 16  2  0  0  0  0
 15 17  1  0  0  0  0
 17 18  1  0  0  0  0
 14 19  2  0  0  0  0
 19 20  1  0  0  0  0
 10 21  1  0  0  0  0
 21 22  1  0  0  0  0
 22 23  1  0  0  0  0
 23 24  2  0  0  0  0
 24 25  1  0  0  0  0
 23 26  1  0  0  0  0
 26 27  2  0  0  0  0
 27 28  1  0  0  0  0
 28 29  1  0  0  0  0
 29 30  1  0  0  0  0
 30 31  2  0  0  0  0
 31 32  1  0  0  0  0
 30 33  1  0  0  0  0
 33 34  2  0  0  0  0
 34 35  1  0  0  0  0
 35 36  1  0  0  0  0
 36 37  1  0  0  0  0
 37 38  2  0  0  0  0
 38 39  1  0  0  0  0
 37 40  1  0  0  0  0
 40 41  2  0  0  0  0
 41 42  1  0  0  0  0
 42 43  1  0  0  0  0
 43 44  1  0  0  0  0
 44 45  2  0  0  0  0
 45 46  1  0  0  0  0
 46 47  1  0  0  0  0
 47 48  1  0  0  0  0
 48 49  1  0  0  0  0
 49 50  2  0  0  0  0
 49 51  1  0  0  0  0
 51 52  1  0  0  0  0
 48 53  2  0  0  0  0
 53 54  1  0  0  0  0
  5  1  2  0  0  0  0
 12  8  2  0  0  0  0
 25 21  2  0  0  0  0
 32 28  2  0  0  0  0
 39 35  2  0  0  0  0
 46 42  2  0  0  0  0
 19 11  1  0  0  0  0
 53 45  1  0  0  0  0
  1 55  1  0  0  0  0
  5 56  1  0  0  0  0
  6 57  1  0  0  0  0
  7 58  1  0  0  0  0
 17 59  1  0  0  0  0
 17 60  1  0  0  0  0
 18 61  1  0  0  0  0
 18 62  1  0  0  0  0
 18 63  1  0  0  0  0
 25 64  1  0  0  0  0
 26 65  1  0  0  0  0
 27 66  1  0  0  0  0
 32 67  1  0  0  0  0
 33 68  1  0  0  0  0
 34 69  1  0  0  0  0
 39 70  1  0  0  0  0
 40 71  1  0  0  0  0
 41 72  1  0  0  0  0
 44 73  1  0  0  0  0
 51 74  1  0  0  0  0
 51 75  1  0  0  0  0
 52 76  1  0  0  0  0
 52 77  1  0  0  0  0
 52 78  1  0  0  0  0
M  END
