182

C          1.49560      -12.92770       11.61220
C          1.31660      -11.62680       11.92180
C          1.06590      -10.81610       10.77730
C          0.77800       -9.44210       10.73440
C          0.78870       -8.62040       11.93450
S          2.18810       -8.56090       12.96600
C          1.45780       -7.40390       14.02540
C          2.20060       -6.84080       15.18630
C          3.02340       -5.61980       14.76760
C          0.20610       -7.08860       13.58880
Cl        -0.83020       -5.97510       14.38220
C         -0.17820       -7.77700       12.40650
Cl        -1.73620       -7.60930       11.71370
C          0.50320       -8.89460        9.48800
C          0.52220       -9.65820        8.29450
C          0.81940      -11.03240        8.33440
C          0.85820      -11.80960        7.10760
S         -0.46190      -11.75680        5.97350
C          0.35250      -12.78760        4.84820
C         -0.23760      -13.06470        3.51060
C         -0.07130      -11.84670        2.59760
C          1.56790      -13.15570        5.34290
C          1.85600      -12.61020        6.62380
Cl         3.36010      -12.86010        7.40470
Cl         2.67320      -14.17200        4.51190
C          1.07500      -11.58140        9.58520
S          1.38180      -13.26060        9.92090
C          0.26950       -8.85970        7.15690
C          0.04900       -7.54390        7.45060
S          0.16300       -7.21550        9.16540
C         -0.24990       -6.52380        6.51290
S         -0.34560       -6.90150        4.80970
C         -0.70320       -5.25330        4.36080
C         -0.76640       -4.45270        5.50440
C         -0.50530       -5.18430        6.69720
S         -0.58160       -4.19890        8.11890
C         -0.98150       -2.79090        7.14910
C         -1.22090       -1.47540        7.76130
O         -1.53250       -0.51310        7.09980
C         -1.04480       -1.44310        9.26300
C         -1.30020       -0.05630        9.83470
C         -1.03820       -3.09460        5.81290
F         -1.33690       -2.18870        4.88410
C         -0.83000       -4.93380        2.99390
S         -0.98720       -3.30160        2.39650
C         -0.98180       -3.79520        0.72730
C         -0.88230       -5.18460        0.64100
C         -0.79450       -5.80630        1.91700
S         -0.66710       -7.52920        1.82430
C         -0.74400       -7.45160        0.07260
C         -0.68890       -8.74000       -0.62450
O         -0.61950       -9.76650        0.01540
C         -0.72360       -8.69280       -2.13310
C         -0.63300      -10.08610       -2.73850
C         -0.85310       -6.16580       -0.38380
F         -0.94260       -5.86750       -1.68440
C         -1.00950       -2.77880       -0.25940
C         -1.18520       -1.44340        0.00480
C         -1.04470       -0.61720       -1.12670
C         -1.14110        0.78750       -1.18750
C         -1.33290        1.57680        0.01600
S         -2.58630        2.77530        0.13330
C         -2.13500        3.20090        1.74770
C         -2.90410        4.20840        2.52770
C         -4.04040        3.54240        3.30800
C         -1.07220        2.45160        2.15970
Cl        -0.34510        2.58760        3.70720
C         -0.61180        1.53380        1.17880
Cl         0.77130        0.54900        1.42320
C         -0.99940        1.36920       -2.43710
C         -0.72750        0.61960       -3.60960
C         -0.65180       -0.78580       -3.55260
C         -0.43210       -1.56610       -4.75650
S          0.78770       -2.80320       -4.82810
C          0.42910       -3.17230       -6.47940
C          1.21250       -4.19080       -7.23110
C          2.48080       -3.57520       -7.82700
C         -0.57740       -2.37410       -6.93570
C         -1.07550       -1.46960       -5.96140
Cl        -2.41470       -0.44090       -6.27090
Cl        -1.20140       -2.43830       -8.53260
C         -0.79110       -1.36980       -2.30160
S         -0.71430       -3.07340       -1.96230
C         -0.49850        1.45240       -4.72630
C         -0.63230        2.78520       -4.44860
S         -1.02890        3.07840       -2.76850
C         -0.46930        3.85950       -5.36140
S         -0.65800        5.52350       -4.88490
C         -0.29530        6.13190       -6.47770
C         -0.03980        5.07120       -7.34330
C         -0.14790        3.80540       -6.70070
S          0.14580        2.48520       -7.78270
C          0.41010        3.59560       -9.11570
C          0.72380        3.10510      -10.46660
O          0.93950        3.86080      -11.38400
C          0.74830        1.59750      -10.59350
C          1.08570        1.15260      -12.00870
C          0.27740        4.90040       -8.72010
F          0.41790        5.92050       -9.55930
C         -0.27850        7.53920       -6.67210
C         -0.76160        8.46140       -5.78100
C         -0.55380        9.79890       -6.18190
C         -0.93590       10.97680       -5.51410
C         -1.57130       10.92700       -4.20900
S         -3.06400       11.76130       -3.89670
C         -3.11790       11.21320       -2.25690
C         -4.20780       11.64200       -1.33810
C         -3.90700       13.02070       -0.74530
C         -2.02910       10.44170       -1.97830
Cl        -1.72890        9.72400       -0.44850
C         -1.15260       10.27220       -3.08300
Cl         0.32200        9.40050       -2.96180
C         -0.66250       12.17780       -6.15510
C         -0.00750       12.25400       -7.40830
C          0.36460       11.07800       -8.07880
C          0.99130       11.11100       -9.38980
S          2.46360       10.24470       -9.71120
C          2.49170       10.74980      -11.36510
C          3.60670       10.35520      -12.26870
C          4.84460       11.22260      -12.02930
C          1.41910       11.54610      -11.63630
C          0.56310       11.74930      -10.52090
Cl        -0.90090       12.63850      -10.63150
Cl         1.10370       12.24060      -13.17380
C          0.09570        9.87470       -7.43850
S          0.44120        8.29600       -8.07800
C          0.22570       13.60580       -7.79540
C         -0.24510       14.49590       -6.89850
S         -0.99320       13.76570       -5.52070
H          1.69410      -13.74140       12.28210
H          1.34840      -11.24300       12.92470
H          2.86460       -7.60340       15.59650
H          1.48200       -6.55010       15.95490
H          3.55830       -5.21890       15.62420
H          2.37220       -4.84600       14.36920
H          3.74500       -5.89530       14.00220
H         -1.29910      -13.29550        3.61810
H          0.26700      -13.92820        3.07480
H         -0.50060      -12.03780        1.61930
H         -0.56970      -10.97960        3.02400
H          0.98160      -11.61000        2.46990
H          0.25340       -9.22940        6.14820
H         -1.73010       -2.17360        9.70180
H         -0.02900       -1.77500        9.49430
H         -0.61330        0.66250        9.39510
H         -1.16660       -0.05900       10.91320
H         -2.31330        0.26330        9.60460
H          0.10250       -8.06660       -2.47920
H         -1.64910       -8.19930       -2.44040
H          0.29630      -10.56550       -2.44150
H         -0.67130      -10.03090       -3.82310
H         -1.45640      -10.70250       -2.38680
H         -1.41540       -1.07770        0.98880
H         -3.31520        4.95650        1.84810
H         -2.22510        4.70220        3.22550
H         -4.58310        4.28700        3.88400
H         -4.73280        3.05550        2.62530
H         -3.64170        2.79630        3.99040
H          1.48500       -5.00540       -6.55830
H          0.58930       -4.59100       -8.03300
H          2.22320       -2.76990       -8.51030
H          3.11150       -3.17390       -7.03750
H          3.04080       -4.32960       -8.37260
H         -0.21840        1.08410       -5.69460
H         -0.23090        1.21420      -10.29300
H          1.48010        1.20670       -9.88090
H          1.08800        0.06780      -12.07600
H          0.35530        1.54870      -12.70950
H          2.06470        1.52740      -12.29660
H         -1.26820        8.17850       -4.87630
H         -4.29890       10.90850       -0.53500
H         -5.15050       11.68120       -1.88660
H         -2.97890       12.99320       -0.18010
H         -3.80950       13.75820       -1.53830
H         -4.71110       13.32490       -0.08090
H          3.27410       10.46640      -13.30210
H          3.85850        9.30770      -12.09360
H          4.61520       12.26850      -12.21720
H          5.18370       11.11970      -11.00120
H          5.64780       10.91740      -12.69430
H          0.73620       13.88370       -8.69840
H         -0.20100       15.56630       -6.94870
