
  xtb     03012219583D
 energy: -228.278696127333 gnorm: 0.000272762353 xtb: 6.4.1 (unknown)
102113  0     0  0            999 V2000
    6.6528   -0.3311    5.5522 C   0  0  0  0  0  0  0  0  0  0  0  0
    5.3875   -1.1292    4.7425 S   0  0  0  0  0  0  0  0  0  0  0  0
    4.1803   -0.1252    5.4641 C   0  0  0  0  0  0  0  0  0  0  0  0
    4.7625    0.8344    6.2856 C   0  0  0  0  0  0  0  0  0  0  0  0
    6.1912    0.6982    6.3417 C   0  0  0  0  0  0  0  0  0  0  0  0
    6.9277    1.6101    7.1467 C   0  0  0  0  0  0  0  0  0  0  0  0
    8.4153    1.4527    7.2188 C   0  0  0  0  0  0  0  0  0  0  0  0
    8.7873    0.2422    7.6778 F   0  0  0  0  0  0  0  0  0  0  0  0
    9.0070    2.3540    8.0131 F   0  0  0  0  0  0  0  0  0  0  0  0
    9.0022    1.5771    6.0092 F   0  0  0  0  0  0  0  0  0  0  0  0
    6.2788    2.6072    7.8163 C   0  0  0  0  0  0  0  0  0  0  0  0
    4.8787    2.7567    7.7128 C   0  0  0  0  0  0  0  0  0  0  0  0
    4.1297    1.8975    6.9670 C   0  0  0  0  0  0  0  0  0  0  0  0
    2.7892   -0.2644    5.1380 C   0  0  0  0  0  0  0  0  0  0  0  0
    2.3318   -0.1162    3.4757 S   0  0  0  0  0  0  0  0  0  0  0  0
    0.6430   -0.1227    3.8381 C   0  0  0  0  0  0  0  0  0  0  0  0
    0.4350   -0.2844    5.2110 C   0  0  0  0  0  0  0  0  0  0  0  0
    1.6655   -0.3970    5.9534 C   0  0  0  0  0  0  0  0  0  0  0  0
    1.5722   -0.7150    7.3402 C   0  0  0  0  0  0  0  0  0  0  0  0
    2.7585   -1.1039    8.1805 C   0  0  0  0  0  0  0  0  0  0  0  0
    2.3967   -1.8950    9.2060 F   0  0  0  0  0  0  0  0  0  0  0  0
    3.6897   -1.7997    7.5101 F   0  0  0  0  0  0  0  0  0  0  0  0
    3.3928   -0.0603    8.7490 F   0  0  0  0  0  0  0  0  0  0  0  0
    0.3424   -0.7745    7.9437 C   0  0  0  0  0  0  0  0  0  0  0  0
   -0.8458   -0.5953    7.2148 C   0  0  0  0  0  0  0  0  0  0  0  0
   -0.8062   -0.4003    5.8666 C   0  0  0  0  0  0  0  0  0  0  0  0
   -0.2811    0.0284    2.7662 C   0  0  0  0  0  0  0  0  0  0  0  0
    0.1888   -0.5305    1.1732 S   0  0  0  0  0  0  0  0  0  0  0  0
   -1.2873    0.0054    0.4286 C   0  0  0  0  0  0  0  0  0  0  0  0
   -2.0915    0.6269    1.3769 C   0  0  0  0  0  0  0  0  0  0  0  0
   -1.5260    0.6189    2.6871 C   0  0  0  0  0  0  0  0  0  0  0  0
   -2.5080    1.4973    3.8234 S   0  0  0  0  0  0  0  0  0  0  0  0
   -3.6476    1.9154    2.5567 C   0  0  0  0  0  0  0  0  0  0  0  0
   -4.7860    2.7425    2.9695 C   0  0  0  0  0  0  0  0  0  0  0  0
   -4.9000    3.0713    4.1294 O   0  0  0  0  0  0  0  0  0  0  0  0
   -5.7603    3.1303    1.8834 C   0  0  0  0  0  0  0  0  0  0  0  0
   -6.9055    3.9698    2.4304 C   0  0  0  0  0  0  0  0  0  0  0  0
   -3.2868    1.3902    1.3482 C   0  0  0  0  0  0  0  0  0  0  0  0
   -3.9637    1.6237    0.2184 F   0  0  0  0  0  0  0  0  0  0  0  0
   -1.5155   -0.2380   -0.9522 C   0  0  0  0  0  0  0  0  0  0  0  0
   -0.1759   -0.2049   -2.0767 S   0  0  0  0  0  0  0  0  0  0  0  0
   -1.1828   -0.5733   -3.4414 C   0  0  0  0  0  0  0  0  0  0  0  0
   -2.4897   -0.7726   -3.0226 C   0  0  0  0  0  0  0  0  0  0  0  0
   -2.6724   -0.5647   -1.6273 C   0  0  0  0  0  0  0  0  0  0  0  0
   -4.3061   -0.8755   -1.1404 S   0  0  0  0  0  0  0  0  0  0  0  0
   -4.7760   -1.2296   -2.7952 C   0  0  0  0  0  0  0  0  0  0  0  0
   -6.1610   -1.5808   -3.1462 C   0  0  0  0  0  0  0  0  0  0  0  0
   -6.4736   -1.8721   -4.2761 O   0  0  0  0  0  0  0  0  0  0  0  0
   -7.1317   -1.5433   -1.9871 C   0  0  0  0  0  0  0  0  0  0  0  0
   -8.5456   -1.9014   -2.4207 C   0  0  0  0  0  0  0  0  0  0  0  0
   -3.7145   -1.1231   -3.6521 C   0  0  0  0  0  0  0  0  0  0  0  0
   -3.8001   -1.3246   -4.9644 F   0  0  0  0  0  0  0  0  0  0  0  0
   -0.6516   -0.7894   -4.7549 C   0  0  0  0  0  0  0  0  0  0  0  0
   -0.9908   -2.3244   -5.4805 S   0  0  0  0  0  0  0  0  0  0  0  0
    0.0491   -2.0254   -6.8117 C   0  0  0  0  0  0  0  0  0  0  0  0
    0.6088   -0.7524   -6.7311 C   0  0  0  0  0  0  0  0  0  0  0  0
    0.2003   -0.0298   -5.5569 C   0  0  0  0  0  0  0  0  0  0  0  0
    0.6403    1.3196   -5.4411 C   0  0  0  0  0  0  0  0  0  0  0  0
    0.1299    2.2684   -4.3935 C   0  0  0  0  0  0  0  0  0  0  0  0
   -1.1510    2.0600   -4.0463 F   0  0  0  0  0  0  0  0  0  0  0  0
    0.8453    2.2386   -3.2498 F   0  0  0  0  0  0  0  0  0  0  0  0
    0.1818    3.5449   -4.8090 F   0  0  0  0  0  0  0  0  0  0  0  0
    1.5295    1.8279   -6.3532 C   0  0  0  0  0  0  0  0  0  0  0  0
    2.0018    1.0636   -7.4350 C   0  0  0  0  0  0  0  0  0  0  0  0
    1.5294   -0.1966   -7.6431 C   0  0  0  0  0  0  0  0  0  0  0  0
    0.1671   -2.9497   -7.9091 C   0  0  0  0  0  0  0  0  0  0  0  0
   -0.3629   -2.3891   -9.4653 S   0  0  0  0  0  0  0  0  0  0  0  0
   -0.1276   -3.9067  -10.1847 C   0  0  0  0  0  0  0  0  0  0  0  0
    0.3495   -4.8381   -9.2892 C   0  0  0  0  0  0  0  0  0  0  0  0
    0.5455   -4.2868   -7.9692 C   0  0  0  0  0  0  0  0  0  0  0  0
    1.1445   -5.1386   -6.9945 C   0  0  0  0  0  0  0  0  0  0  0  0
    1.5681   -4.6508   -5.6381 C   0  0  0  0  0  0  0  0  0  0  0  0
    2.5247   -5.4235   -5.0998 F   0  0  0  0  0  0  0  0  0  0  0  0
    2.0770   -3.4063   -5.6473 F   0  0  0  0  0  0  0  0  0  0  0  0
    0.5650   -4.6446   -4.7355 F   0  0  0  0  0  0  0  0  0  0  0  0
    1.4020   -6.4486   -7.2996 C   0  0  0  0  0  0  0  0  0  0  0  0
    1.1257   -6.9878   -8.5727 C   0  0  0  0  0  0  0  0  0  0  0  0
    0.6343   -6.1959   -9.5625 C   0  0  0  0  0  0  0  0  0  0  0  0
    7.6631   -0.6570    5.4088 H   0  0  0  0  0  0  0  0  0  0  0  0
    6.8386    3.2991    8.4265 H   0  0  0  0  0  0  0  0  0  0  0  0
    4.4073    3.5706    8.2401 H   0  0  0  0  0  0  0  0  0  0  0  0
    3.0593    2.0132    6.8884 H   0  0  0  0  0  0  0  0  0  0  0  0
    0.2764   -1.0090    8.9948 H   0  0  0  0  0  0  0  0  0  0  0  0
   -1.7900   -0.6645    7.7299 H   0  0  0  0  0  0  0  0  0  0  0  0
   -1.7149   -0.3503    5.2923 H   0  0  0  0  0  0  0  0  0  0  0  0
   -6.1388    2.2173    1.4168 H   0  0  0  0  0  0  0  0  0  0  0  0
   -5.2135    3.6805    1.1133 H   0  0  0  0  0  0  0  0  0  0  0  0
   -7.5860    4.2490    1.6304 H   0  0  0  0  0  0  0  0  0  0  0  0
   -6.5195    4.8723    2.8972 H   0  0  0  0  0  0  0  0  0  0  0  0
   -7.4552    3.4110    3.1835 H   0  0  0  0  0  0  0  0  0  0  0  0
   -6.7742   -2.2389   -1.2227 H   0  0  0  0  0  0  0  0  0  0  0  0
   -7.1030   -0.5409   -1.5515 H   0  0  0  0  0  0  0  0  0  0  0  0
   -9.2223   -1.8784   -1.5706 H   0  0  0  0  0  0  0  0  0  0  0  0
   -8.5623   -2.8958   -2.8593 H   0  0  0  0  0  0  0  0  0  0  0  0
   -8.8967   -1.1978   -3.1711 H   0  0  0  0  0  0  0  0  0  0  0  0
    1.8634    2.8493   -6.2548 H   0  0  0  0  0  0  0  0  0  0  0  0
    2.7160    1.5039   -8.1120 H   0  0  0  0  0  0  0  0  0  0  0  0
    1.8468   -0.7809   -8.4925 H   0  0  0  0  0  0  0  0  0  0  0  0
   -0.3517   -4.0558  -11.2218 H   0  0  0  0  0  0  0  0  0  0  0  0
    1.8521   -7.0879   -6.5560 H   0  0  0  0  0  0  0  0  0  0  0  0
    1.3413   -8.0288   -8.7525 H   0  0  0  0  0  0  0  0  0  0  0  0
    0.4574   -6.5748  -10.5570 H   0  0  0  0  0  0  0  0  0  0  0  0
  1  2  1  0  0  0  0
  2  3  1  0  0  0  0
  3  4  2  0  0  0  0
  4  5  1  0  0  0  0
  5  6  1  0  0  0  0
  6  7  1  0  0  0  0
  7  8  1  0  0  0  0
  7  9  1  0  0  0  0
  7 10  1  0  0  0  0
  6 11  2  0  0  0  0
 11 12  1  0  0  0  0
 12 13  2  0  0  0  0
  3 14  1  0  0  0  0
 14 15  1  0  0  0  0
 15 16  1  0  0  0  0
 16 17  2  0  0  0  0
 17 18  1  0  0  0  0
 18 19  1  0  0  0  0
 19 20  1  0  0  0  0
 20 21  1  0  0  0  0
 20 22  1  0  0  0  0
 20 23  1  0  0  0  0
 19 24  2  0  0  0  0
 24 25  1  0  0  0  0
 25 26  2  0  0  0  0
 16 27  1  0  0  0  0
 27 28  1  0  0  0  0
 28 29  1  0  0  0  0
 29 30  2  0  0  0  0
 30 31  1  0  0  0  0
 31 32  1  0  0  0  0
 32 33  1  0  0  0  0
 33 34  1  0  0  0  0
 34 35  2  0  0  0  0
 34 36  1  0  0  0  0
 36 37  1  0  0  0  0
 33 38  2  0  0  0  0
 38 39  1  0  0  0  0
 29 40  1  0  0  0  0
 40 41  1  0  0  0  0
 41 42  1  0  0  0  0
 42 43  2  0  0  0  0
 43 44  1  0  0  0  0
 44 45  1  0  0  0  0
 45 46  1  0  0  0  0
 46 47  1  0  0  0  0
 47 48  2  0  0  0  0
 47 49  1  0  0  0  0
 49 50  1  0  0  0  0
 46 51  2  0  0  0  0
 51 52  1  0  0  0  0
 42 53  1  0  0  0  0
 53 54  1  0  0  0  0
 54 55  1  0  0  0  0
 55 56  2  0  0  0  0
 56 57  1  0  0  0  0
 57 58  1  0  0  0  0
 58 59  1  0  0  0  0
 59 60  1  0  0  0  0
 59 61  1  0  0  0  0
 59 62  1  0  0  0  0
 58 63  2  0  0  0  0
 63 64  1  0  0  0  0
 64 65  2  0  0  0  0
 55 66  1  0  0  0  0
 66 67  1  0  0  0  0
 67 68  1  0  0  0  0
 68 69  2  0  0  0  0
 69 70  1  0  0  0  0
 70 71  1  0  0  0  0
 71 72  1  0  0  0  0
 72 73  1  0  0  0  0
 72 74  1  0  0  0  0
 72 75  1  0  0  0  0
 71 76  2  0  0  0  0
 76 77  1  0  0  0  0
 77 78  2  0  0  0  0
  5  1  2  0  0  0  0
 18 14  2  0  0  0  0
 31 27  2  0  0  0  0
 44 40  2  0  0  0  0
 57 53  2  0  0  0  0
 70 66  2  0  0  0  0
 13  4  1  0  0  0  0
 26 17  1  0  0  0  0
 38 30  1  0  0  0  0
 51 43  1  0  0  0  0
 65 56  1  0  0  0  0
 78 69  1  0  0  0  0
  1 79  1  0  0  0  0
 11 80  1  0  0  0  0
 12 81  1  0  0  0  0
 13 82  1  0  0  0  0
 24 83  1  0  0  0  0
 25 84  1  0  0  0  0
 26 85  1  0  0  0  0
 36 86  1  0  0  0  0
 36 87  1  0  0  0  0
 37 88  1  0  0  0  0
 37 89  1  0  0  0  0
 37 90  1  0  0  0  0
 49 91  1  0  0  0  0
 49 92  1  0  0  0  0
 50 93  1  0  0  0  0
 50 94  1  0  0  0  0
 50 95  1  0  0  0  0
 63 96  1  0  0  0  0
 64 97  1  0  0  0  0
 65 98  1  0  0  0  0
 68 99  1  0  0  0  0
 76100  1  0  0  0  0
 77101  1  0  0  0  0
 78102  1  0  0  0  0
M  END
