
  xtb     03012203433D
 energy: -413.210236992545 gnorm: 0.000212121422 xtb: 6.4.1 (unknown)
206229  0     0  0            999 V2000
   10.4630  -14.1529    4.5307 C   0  0  0  0  0  0  0  0  0  0  0  0
    9.4713  -13.8845    5.4046 C   0  0  0  0  0  0  0  0  0  0  0  0
    8.3459  -13.2647    4.7886 C   0  0  0  0  0  0  0  0  0  0  0  0
    7.1632  -12.8108    5.3925 C   0  0  0  0  0  0  0  0  0  0  0  0
    6.8774  -13.0395    6.7989 C   0  0  0  0  0  0  0  0  0  0  0  0
    6.3988  -11.7341    7.8421 S   0  0  0  0  0  0  0  0  0  0  0  0
    6.2066  -12.7876    9.2020 C   0  0  0  0  0  0  0  0  0  0  0  0
    5.7182  -12.2631   10.5067 C   0  0  0  0  0  0  0  0  0  0  0  0
    4.2376  -11.8863   10.4208 C   0  0  0  0  0  0  0  0  0  0  0  0
    6.4977  -14.0718    8.8512 C   0  0  0  0  0  0  0  0  0  0  0  0
    6.4128  -15.4057    9.9279 Cl  0  0  0  0  0  0  0  0  0  0  0  0
    6.8837  -14.2184    7.4908 C   0  0  0  0  0  0  0  0  0  0  0  0
    7.2312  -15.7455    6.7889 Cl  0  0  0  0  0  0  0  0  0  0  0  0
    6.2674  -12.1252    4.5833 C   0  0  0  0  0  0  0  0  0  0  0  0
    6.4803  -11.9078    3.2006 C   0  0  0  0  0  0  0  0  0  0  0  0
    7.6359  -12.4175    2.5822 C   0  0  0  0  0  0  0  0  0  0  0  0
    7.8611  -12.2600    1.1554 C   0  0  0  0  0  0  0  0  0  0  0  0
    7.7818  -10.7013    0.3857 S   0  0  0  0  0  0  0  0  0  0  0  0
    8.1451  -11.3607   -1.1716 C   0  0  0  0  0  0  0  0  0  0  0  0
    8.1687  -10.5046   -2.3889 C   0  0  0  0  0  0  0  0  0  0  0  0
    6.7713  -10.4008   -3.0050 C   0  0  0  0  0  0  0  0  0  0  0  0
    8.3073  -12.7112   -1.0861 C   0  0  0  0  0  0  0  0  0  0  0  0
    8.1537  -13.2240    0.2300 C   0  0  0  0  0  0  0  0  0  0  0  0
    8.2358  -14.9002    0.5740 Cl  0  0  0  0  0  0  0  0  0  0  0  0
    8.6660  -13.7167   -2.4290 Cl  0  0  0  0  0  0  0  0  0  0  0  0
    8.5497  -13.0733    3.4000 C   0  0  0  0  0  0  0  0  0  0  0  0
   10.1050  -13.6791    2.9078 S   0  0  0  0  0  0  0  0  0  0  0  0
    5.4106  -11.1933    2.6103 C   0  0  0  0  0  0  0  0  0  0  0  0
    4.4180  -10.8756    3.4924 C   0  0  0  0  0  0  0  0  0  0  0  0
    4.7444  -11.4639    5.1094 S   0  0  0  0  0  0  0  0  0  0  0  0
    3.2398  -10.1286    3.2301 C   0  0  0  0  0  0  0  0  0  0  0  0
    3.0183   -9.2828    1.7214 S   0  0  0  0  0  0  0  0  0  0  0  0
    1.4785   -8.6166    2.2008 C   0  0  0  0  0  0  0  0  0  0  0  0
    1.1456   -9.0634    3.4768 C   0  0  0  0  0  0  0  0  0  0  0  0
    2.1537   -9.8974    4.0414 C   0  0  0  0  0  0  0  0  0  0  0  0
    1.7737  -10.4208    5.6481 S   0  0  0  0  0  0  0  0  0  0  0  0
    0.2567   -9.5374    5.5992 C   0  0  0  0  0  0  0  0  0  0  0  0
   -0.6639   -9.5298    6.7468 C   0  0  0  0  0  0  0  0  0  0  0  0
   -1.7331   -8.9691    6.7021 O   0  0  0  0  0  0  0  0  0  0  0  0
   -0.1536  -10.2729    7.9618 C   0  0  0  0  0  0  0  0  0  0  0  0
   -1.1359  -10.2056    9.1218 C   0  0  0  0  0  0  0  0  0  0  0  0
    0.0815   -8.8890    4.4047 C   0  0  0  0  0  0  0  0  0  0  0  0
   -0.9935   -8.1517    4.1454 F   0  0  0  0  0  0  0  0  0  0  0  0
    0.8270   -7.7176    1.3158 C   0  0  0  0  0  0  0  0  0  0  0  0
    1.4063   -7.1261    0.2219 C   0  0  0  0  0  0  0  0  0  0  0  0
    0.5536   -6.2294   -0.4553 C   0  0  0  0  0  0  0  0  0  0  0  0
    0.8632   -5.3826   -1.5389 C   0  0  0  0  0  0  0  0  0  0  0  0
    2.1539   -5.4340   -2.2013 C   0  0  0  0  0  0  0  0  0  0  0  0
    3.0712   -3.9830   -2.4804 S   0  0  0  0  0  0  0  0  0  0  0  0
    4.3431   -4.8444   -3.2783 C   0  0  0  0  0  0  0  0  0  0  0  0
    5.5243   -4.1243   -3.8294 C   0  0  0  0  0  0  0  0  0  0  0  0
    5.1053   -3.0497   -4.8327 C   0  0  0  0  0  0  0  0  0  0  0  0
    4.0585   -6.1765   -3.3161 C   0  0  0  0  0  0  0  0  0  0  0  0
    5.0744   -7.3550   -4.0367 Cl  0  0  0  0  0  0  0  0  0  0  0  0
    2.8221   -6.5169   -2.7033 C   0  0  0  0  0  0  0  0  0  0  0  0
    2.2156   -8.1235   -2.6936 Cl  0  0  0  0  0  0  0  0  0  0  0  0
   -0.1097   -4.4672   -1.9142 C   0  0  0  0  0  0  0  0  0  0  0  0
   -1.3874   -4.4024   -1.3029 C   0  0  0  0  0  0  0  0  0  0  0  0
   -1.7005   -5.2522   -0.2290 C   0  0  0  0  0  0  0  0  0  0  0  0
   -2.9636   -5.1498    0.4818 C   0  0  0  0  0  0  0  0  0  0  0  0
   -3.9340   -6.5591    0.7890 S   0  0  0  0  0  0  0  0  0  0  0  0
   -5.1352   -5.6463    1.6314 C   0  0  0  0  0  0  0  0  0  0  0  0
   -6.3053   -6.3132    2.2645 C   0  0  0  0  0  0  0  0  0  0  0  0
   -5.9596   -6.7668    3.6856 C   0  0  0  0  0  0  0  0  0  0  0  0
   -4.7861   -4.3291    1.6734 C   0  0  0  0  0  0  0  0  0  0  0  0
   -3.5565   -4.0413    1.0239 C   0  0  0  0  0  0  0  0  0  0  0  0
   -2.8697   -2.4663    1.0308 Cl  0  0  0  0  0  0  0  0  0  0  0  0
   -5.7325   -3.1132    2.4269 Cl  0  0  0  0  0  0  0  0  0  0  0  0
   -0.7190   -6.1516    0.1644 C   0  0  0  0  0  0  0  0  0  0  0  0
   -0.8303   -7.2041    1.5411 S   0  0  0  0  0  0  0  0  0  0  0  0
   -2.1891   -3.3821   -1.8632 C   0  0  0  0  0  0  0  0  0  0  0  0
   -1.5452   -2.6413   -2.8100 C   0  0  0  0  0  0  0  0  0  0  0  0
    0.0630   -3.2481   -3.1480 S   0  0  0  0  0  0  0  0  0  0  0  0
   -1.9757   -1.3884   -3.3323 C   0  0  0  0  0  0  0  0  0  0  0  0
   -1.2819   -0.5223   -4.1253 C   0  0  0  0  0  0  0  0  0  0  0  0
   -1.8676    0.7654   -4.2017 C   0  0  0  0  0  0  0  0  0  0  0  0
   -1.3783    1.9126   -4.8562 C   0  0  0  0  0  0  0  0  0  0  0  0
   -0.1784    1.8746   -5.6741 C   0  0  0  0  0  0  0  0  0  0  0  0
    1.3053    1.1695   -5.0985 S   0  0  0  0  0  0  0  0  0  0  0  0
    2.1468    1.5373   -6.5647 C   0  0  0  0  0  0  0  0  0  0  0  0
    3.5871    1.2001   -6.7320 C   0  0  0  0  0  0  0  0  0  0  0  0
    4.4798    2.2685   -6.0968 C   0  0  0  0  0  0  0  0  0  0  0  0
    1.3185    2.1803   -7.4347 C   0  0  0  0  0  0  0  0  0  0  0  0
    1.7936    2.7038   -8.9979 Cl  0  0  0  0  0  0  0  0  0  0  0  0
    0.0015    2.3723   -6.9361 C   0  0  0  0  0  0  0  0  0  0  0  0
   -1.2399    3.0772   -7.8834 Cl  0  0  0  0  0  0  0  0  0  0  0  0
   -2.0680    3.1006   -4.6370 C   0  0  0  0  0  0  0  0  0  0  0  0
   -3.2405    3.1726   -3.8445 C   0  0  0  0  0  0  0  0  0  0  0  0
   -3.7943    2.0075   -3.2850 C   0  0  0  0  0  0  0  0  0  0  0  0
   -5.0228    2.0523   -2.5145 C   0  0  0  0  0  0  0  0  0  0  0  0
   -5.1383    1.2922   -0.9538 S   0  0  0  0  0  0  0  0  0  0  0  0
   -6.7821    1.7917   -0.7434 C   0  0  0  0  0  0  0  0  0  0  0  0
   -7.5420    1.4079    0.4778 C   0  0  0  0  0  0  0  0  0  0  0  0
   -7.6760   -0.1111    0.5921 C   0  0  0  0  0  0  0  0  0  0  0  0
   -7.2046    2.4997   -1.8290 C   0  0  0  0  0  0  0  0  0  0  0  0
   -6.2110    2.6523   -2.8337 C   0  0  0  0  0  0  0  0  0  0  0  0
   -6.5310    3.4390   -4.3260 Cl  0  0  0  0  0  0  0  0  0  0  0  0
   -8.7778    3.1670   -1.9925 Cl  0  0  0  0  0  0  0  0  0  0  0  0
   -3.0667    0.8380   -3.4491 C   0  0  0  0  0  0  0  0  0  0  0  0
   -3.4565   -0.6873   -2.7136 S   0  0  0  0  0  0  0  0  0  0  0  0
   -3.6459    4.5061   -3.6168 C   0  0  0  0  0  0  0  0  0  0  0  0
   -2.8358    5.4322   -4.2083 C   0  0  0  0  0  0  0  0  0  0  0  0
   -1.5462    4.6890   -5.1257 S   0  0  0  0  0  0  0  0  0  0  0  0
   -2.9516    6.8477   -4.0627 C   0  0  0  0  0  0  0  0  0  0  0  0
   -3.7485    7.4853   -3.1555 C   0  0  0  0  0  0  0  0  0  0  0  0
   -3.6414    8.8928   -3.1984 C   0  0  0  0  0  0  0  0  0  0  0  0
   -4.2768    9.8261   -2.3603 C   0  0  0  0  0  0  0  0  0  0  0  0
   -5.2885    9.4146   -1.4050 C   0  0  0  0  0  0  0  0  0  0  0  0
   -5.2416    9.9547    0.2476 S   0  0  0  0  0  0  0  0  0  0  0  0
   -6.6814    9.0848    0.6569 C   0  0  0  0  0  0  0  0  0  0  0  0
   -7.2570    9.1673    2.0271 C   0  0  0  0  0  0  0  0  0  0  0  0
   -7.8156   10.5649    2.3019 C   0  0  0  0  0  0  0  0  0  0  0  0
   -7.1619    8.4247   -0.4344 C   0  0  0  0  0  0  0  0  0  0  0  0
   -8.5735    7.4476   -0.4268 Cl  0  0  0  0  0  0  0  0  0  0  0  0
   -6.3759    8.6071   -1.6047 C   0  0  0  0  0  0  0  0  0  0  0  0
   -6.8326    7.9412   -3.1206 Cl  0  0  0  0  0  0  0  0  0  0  0  0
   -3.8750   11.1484   -2.4854 C   0  0  0  0  0  0  0  0  0  0  0  0
   -2.9300   11.5848   -3.4467 C   0  0  0  0  0  0  0  0  0  0  0  0
   -2.3461   10.6569   -4.3298 C   0  0  0  0  0  0  0  0  0  0  0  0
   -1.3800   11.0657   -5.3349 C   0  0  0  0  0  0  0  0  0  0  0  0
    0.0292   11.9941   -4.9111 S   0  0  0  0  0  0  0  0  0  0  0  0
    0.6161   11.9976   -6.5395 C   0  0  0  0  0  0  0  0  0  0  0  0
    1.8648   12.7208   -6.9048 C   0  0  0  0  0  0  0  0  0  0  0  0
    1.6092   14.2241   -7.0359 C   0  0  0  0  0  0  0  0  0  0  0  0
   -0.2460   11.3258   -7.3532 C   0  0  0  0  0  0  0  0  0  0  0  0
   -1.3734   10.7887   -6.6740 C   0  0  0  0  0  0  0  0  0  0  0  0
   -2.6273    9.9574   -7.4935 Cl  0  0  0  0  0  0  0  0  0  0  0  0
   -0.0123   11.1272   -9.0411 Cl  0  0  0  0  0  0  0  0  0  0  0  0
   -2.7058    9.3239   -4.1714 C   0  0  0  0  0  0  0  0  0  0  0  0
   -2.0199    7.9701   -5.0253 S   0  0  0  0  0  0  0  0  0  0  0  0
   -2.7166   12.9830   -3.3754 C   0  0  0  0  0  0  0  0  0  0  0  0
   -3.4415   13.5927   -2.3926 C   0  0  0  0  0  0  0  0  0  0  0  0
   -4.4637   12.4703   -1.5193 S   0  0  0  0  0  0  0  0  0  0  0  0
   -3.4283   14.9622   -2.0106 C   0  0  0  0  0  0  0  0  0  0  0  0
   -2.5167   16.1654   -2.8920 S   0  0  0  0  0  0  0  0  0  0  0  0
   -2.9790   17.4271   -1.8287 C   0  0  0  0  0  0  0  0  0  0  0  0
   -3.7973   16.9624   -0.8316 C   0  0  0  0  0  0  0  0  0  0  0  0
   -4.0510   15.5628   -0.9422 C   0  0  0  0  0  0  0  0  0  0  0  0
   -5.0697   14.9794    0.3327 S   0  0  0  0  0  0  0  0  0  0  0  0
   -5.1670   16.5937    1.0352 C   0  0  0  0  0  0  0  0  0  0  0  0
   -5.9335   16.8420    2.2681 C   0  0  0  0  0  0  0  0  0  0  0  0
   -6.0248   17.9467    2.7470 O   0  0  0  0  0  0  0  0  0  0  0  0
   -6.5755   15.6090    2.8643 C   0  0  0  0  0  0  0  0  0  0  0  0
   -7.3305   15.9257    4.1469 C   0  0  0  0  0  0  0  0  0  0  0  0
   -4.4565   17.5077    0.3087 C   0  0  0  0  0  0  0  0  0  0  0  0
   -4.3585   18.7971    0.6153 F   0  0  0  0  0  0  0  0  0  0  0  0
   11.4115  -14.6112    4.7322 H   0  0  0  0  0  0  0  0  0  0  0  0
    9.5286  -14.0966    6.4560 H   0  0  0  0  0  0  0  0  0  0  0  0
    6.2987  -11.3811   10.7855 H   0  0  0  0  0  0  0  0  0  0  0  0
    5.8633  -13.0308   11.2682 H   0  0  0  0  0  0  0  0  0  0  0  0
    4.0884  -11.1220    9.6615 H   0  0  0  0  0  0  0  0  0  0  0  0
    3.6414  -12.7565   10.1581 H   0  0  0  0  0  0  0  0  0  0  0  0
    3.8933  -11.5033   11.3776 H   0  0  0  0  0  0  0  0  0  0  0  0
    8.5260   -9.5075   -2.1269 H   0  0  0  0  0  0  0  0  0  0  0  0
    8.8548  -10.9451   -3.1146 H   0  0  0  0  0  0  0  0  0  0  0  0
    6.8041   -9.7857   -3.9000 H   0  0  0  0  0  0  0  0  0  0  0  0
    6.0778   -9.9507   -2.2985 H   0  0  0  0  0  0  0  0  0  0  0  0
    6.4031  -11.3874   -3.2743 H   0  0  0  0  0  0  0  0  0  0  0  0
    5.3668  -10.9212    1.5716 H   0  0  0  0  0  0  0  0  0  0  0  0
    0.8102   -9.8420    8.2463 H   0  0  0  0  0  0  0  0  0  0  0  0
    0.0304  -11.3110    7.6718 H   0  0  0  0  0  0  0  0  0  0  0  0
   -1.3032   -9.1714    9.4117 H   0  0  0  0  0  0  0  0  0  0  0  0
   -0.7523  -10.7550    9.9775 H   0  0  0  0  0  0  0  0  0  0  0  0
   -2.0922  -10.6304    8.8280 H   0  0  0  0  0  0  0  0  0  0  0  0
    2.4310   -7.3010   -0.0512 H   0  0  0  0  0  0  0  0  0  0  0  0
    6.1798   -4.8525   -4.3096 H   0  0  0  0  0  0  0  0  0  0  0  0
    6.0761   -3.6543   -3.0110 H   0  0  0  0  0  0  0  0  0  0  0  0
    5.9825   -2.5381   -5.2197 H   0  0  0  0  0  0  0  0  0  0  0  0
    4.5676   -3.4977   -5.6646 H   0  0  0  0  0  0  0  0  0  0  0  0
    4.4563   -2.3208   -4.3526 H   0  0  0  0  0  0  0  0  0  0  0  0
   -6.5969   -7.1781    1.6665 H   0  0  0  0  0  0  0  0  0  0  0  0
   -7.1399   -5.6101    2.2963 H   0  0  0  0  0  0  0  0  0  0  0  0
   -6.8140   -7.2641    4.1364 H   0  0  0  0  0  0  0  0  0  0  0  0
   -5.6904   -5.9112    4.2995 H   0  0  0  0  0  0  0  0  0  0  0  0
   -5.1200   -7.4572    3.6702 H   0  0  0  0  0  0  0  0  0  0  0  0
   -3.1978   -3.1749   -1.5575 H   0  0  0  0  0  0  0  0  0  0  0  0
   -0.3535   -0.7931   -4.5937 H   0  0  0  0  0  0  0  0  0  0  0  0
    3.7894    0.2338   -6.2660 H   0  0  0  0  0  0  0  0  0  0  0  0
    3.8056    1.1277   -7.7989 H   0  0  0  0  0  0  0  0  0  0  0  0
    5.5263    2.0102   -6.2342 H   0  0  0  0  0  0  0  0  0  0  0  0
    4.2752    2.3464   -5.0317 H   0  0  0  0  0  0  0  0  0  0  0  0
    4.2960    3.2354   -6.5579 H   0  0  0  0  0  0  0  0  0  0  0  0
   -7.0250    1.7890    1.3621 H   0  0  0  0  0  0  0  0  0  0  0  0
   -8.5296    1.8695    0.4302 H   0  0  0  0  0  0  0  0  0  0  0  0
   -8.2369   -0.3708    1.4858 H   0  0  0  0  0  0  0  0  0  0  0  0
   -6.6933   -0.5728    0.6512 H   0  0  0  0  0  0  0  0  0  0  0  0
   -8.1960   -0.5122   -0.2744 H   0  0  0  0  0  0  0  0  0  0  0  0
   -4.4899    4.7677   -3.0081 H   0  0  0  0  0  0  0  0  0  0  0  0
   -4.3592    6.9640   -2.4439 H   0  0  0  0  0  0  0  0  0  0  0  0
   -6.4822    8.9387    2.7623 H   0  0  0  0  0  0  0  0  0  0  0  0
   -8.0510    8.4243    2.1160 H   0  0  0  0  0  0  0  0  0  0  0  0
   -7.0272   11.3087    2.2118 H   0  0  0  0  0  0  0  0  0  0  0  0
   -8.2297   10.6110    3.3054 H   0  0  0  0  0  0  0  0  0  0  0  0
   -8.6010   10.8041    1.5894 H   0  0  0  0  0  0  0  0  0  0  0  0
    2.2305   12.3257   -7.8539 H   0  0  0  0  0  0  0  0  0  0  0  0
    2.6224   12.5482   -6.1381 H   0  0  0  0  0  0  0  0  0  0  0  0
    0.8650   14.4143   -7.8050 H   0  0  0  0  0  0  0  0  0  0  0  0
    1.2478   14.6288   -6.0934 H   0  0  0  0  0  0  0  0  0  0  0  0
    2.5284   14.7363   -7.3065 H   0  0  0  0  0  0  0  0  0  0  0  0
   -2.0439   13.5224   -4.0170 H   0  0  0  0  0  0  0  0  0  0  0  0
   -2.6282   18.4260   -1.9899 H   0  0  0  0  0  0  0  0  0  0  0  0
   -5.7897   14.8718    3.0508 H   0  0  0  0  0  0  0  0  0  0  0  0
   -7.2482   15.1810    2.1159 H   0  0  0  0  0  0  0  0  0  0  0  0
   -7.7870   15.0262    4.5516 H   0  0  0  0  0  0  0  0  0  0  0  0
   -8.1076   16.6603    3.9528 H   0  0  0  0  0  0  0  0  0  0  0  0
   -6.6527   16.3423    4.8876 H   0  0  0  0  0  0  0  0  0  0  0  0
  1  2  2  0  0  0  0
  2  3  1  0  0  0  0
  3  4  2  0  0  0  0
  4  5  1  0  0  0  0
  5  6  1  0  0  0  0
  6  7  1  0  0  0  0
  7  8  1  0  0  0  0
  8  9  1  0  0  0  0
  7 10  2  0  0  0  0
 10 11  1  0  0  0  0
 10 12  1  0  0  0  0
 12 13  1  0  0  0  0
  4 14  1  0  0  0  0
 14 15  2  0  0  0  0
 15 16  1  0  0  0  0
 16 17  1  0  0  0  0
 17 18  1  0  0  0  0
 18 19  1  0  0  0  0
 19 20  1  0  0  0  0
 20 21  1  0  0  0  0
 19 22  2  0  0  0  0
 22 23  1  0  0  0  0
 23 24  1  0  0  0  0
 22 25  1  0  0  0  0
 16 26  2  0  0  0  0
 26 27  1  0  0  0  0
 15 28  1  0  0  0  0
 28 29  2  0  0  0  0
 29 30  1  0  0  0  0
 29 31  1  0  0  0  0
 31 32  1  0  0  0  0
 32 33  1  0  0  0  0
 33 34  2  0  0  0  0
 34 35  1  0  0  0  0
 35 36  1  0  0  0  0
 36 37  1  0  0  0  0
 37 38  1  0  0  0  0
 38 39  2  0  0  0  0
 38 40  1  0  0  0  0
 40 41  1  0  0  0  0
 37 42  2  0  0  0  0
 42 43  1  0  0  0  0
 33 44  1  0  0  0  0
 44 45  2  0  0  0  0
 45 46  1  0  0  0  0
 46 47  2  0  0  0  0
 47 48  1  0  0  0  0
 48 49  1  0  0  0  0
 49 50  1  0  0  0  0
 50 51  1  0  0  0  0
 51 52  1  0  0  0  0
 50 53  2  0  0  0  0
 53 54  1  0  0  0  0
 53 55  1  0  0  0  0
 55 56  1  0  0  0  0
 47 57  1  0  0  0  0
 57 58  2  0  0  0  0
 58 59  1  0  0  0  0
 59 60  1  0  0  0  0
 60 61  1  0  0  0  0
 61 62  1  0  0  0  0
 62 63  1  0  0  0  0
 63 64  1  0  0  0  0
 62 65  2  0  0  0  0
 65 66  1  0  0  0  0
 66 67  1  0  0  0  0
 65 68  1  0  0  0  0
 59 69  2  0  0  0  0
 69 70  1  0  0  0  0
 58 71  1  0  0  0  0
 71 72  2  0  0  0  0
 72 73  1  0  0  0  0
 72 74  1  0  0  0  0
 74 75  2  0  0  0  0
 75 76  1  0  0  0  0
 76 77  2  0  0  0  0
 77 78  1  0  0  0  0
 78 79  1  0  0  0  0
 79 80  1  0  0  0  0
 80 81  1  0  0  0  0
 81 82  1  0  0  0  0
 80 83  2  0  0  0  0
 83 84  1  0  0  0  0
 83 85  1  0  0  0  0
 85 86  1  0  0  0  0
 77 87  1  0  0  0  0
 87 88  2  0  0  0  0
 88 89  1  0  0  0  0
 89 90  1  0  0  0  0
 90 91  1  0  0  0  0
 91 92  1  0  0  0  0
 92 93  1  0  0  0  0
 93 94  1  0  0  0  0
 92 95  2  0  0  0  0
 95 96  1  0  0  0  0
 96 97  1  0  0  0  0
 95 98  1  0  0  0  0
 89 99  2  0  0  0  0
 99100  1  0  0  0  0
 88101  1  0  0  0  0
101102  2  0  0  0  0
102103  1  0  0  0  0
102104  1  0  0  0  0
104105  2  0  0  0  0
105106  1  0  0  0  0
106107  2  0  0  0  0
107108  1  0  0  0  0
108109  1  0  0  0  0
109110  1  0  0  0  0
110111  1  0  0  0  0
111112  1  0  0  0  0
110113  2  0  0  0  0
113114  1  0  0  0  0
113115  1  0  0  0  0
115116  1  0  0  0  0
107117  1  0  0  0  0
117118  2  0  0  0  0
118119  1  0  0  0  0
119120  1  0  0  0  0
120121  1  0  0  0  0
121122  1  0  0  0  0
122123  1  0  0  0  0
123124  1  0  0  0  0
122125  2  0  0  0  0
125126  1  0  0  0  0
126127  1  0  0  0  0
125128  1  0  0  0  0
119129  2  0  0  0  0
129130  1  0  0  0  0
118131  1  0  0  0  0
131132  2  0  0  0  0
132133  1  0  0  0  0
132134  1  0  0  0  0
134135  1  0  0  0  0
135136  1  0  0  0  0
136137  2  0  0  0  0
137138  1  0  0  0  0
138139  1  0  0  0  0
139140  1  0  0  0  0
140141  1  0  0  0  0
141142  2  0  0  0  0
141143  1  0  0  0  0
143144  1  0  0  0  0
140145  2  0  0  0  0
145146  1  0  0  0  0
 27  1  1  0  0  0  0
 35 31  2  0  0  0  0
 70 44  1  0  0  0  0
100 74  1  0  0  0  0
130104  1  0  0  0  0
138134  2  0  0  0  0
 26  3  1  0  0  0  0
 42 34  1  0  0  0  0
 69 46  1  0  0  0  0
 99 76  1  0  0  0  0
129106  1  0  0  0  0
145137  1  0  0  0  0
 12  5  2  0  0  0  0
 30 14  1  0  0  0  0
 55 48  2  0  0  0  0
 73 57  1  0  0  0  0
 85 78  2  0  0  0  0
103 87  1  0  0  0  0
115108  2  0  0  0  0
133117  1  0  0  0  0
 23 17  2  0  0  0  0
 66 60  2  0  0  0  0
 96 90  2  0  0  0  0
126120  2  0  0  0  0
  1147  1  0  0  0  0
  2148  1  0  0  0  0
  8149  1  0  0  0  0
  8150  1  0  0  0  0
  9151  1  0  0  0  0
  9152  1  0  0  0  0
  9153  1  0  0  0  0
 20154  1  0  0  0  0
 20155  1  0  0  0  0
 21156  1  0  0  0  0
 21157  1  0  0  0  0
 21158  1  0  0  0  0
 28159  1  0  0  0  0
 40160  1  0  0  0  0
 40161  1  0  0  0  0
 41162  1  0  0  0  0
 41163  1  0  0  0  0
 41164  1  0  0  0  0
 45165  1  0  0  0  0
 51166  1  0  0  0  0
 51167  1  0  0  0  0
 52168  1  0  0  0  0
 52169  1  0  0  0  0
 52170  1  0  0  0  0
 63171  1  0  0  0  0
 63172  1  0  0  0  0
 64173  1  0  0  0  0
 64174  1  0  0  0  0
 64175  1  0  0  0  0
 71176  1  0  0  0  0
 75177  1  0  0  0  0
 81178  1  0  0  0  0
 81179  1  0  0  0  0
 82180  1  0  0  0  0
 82181  1  0  0  0  0
 82182  1  0  0  0  0
 93183  1  0  0  0  0
 93184  1  0  0  0  0
 94185  1  0  0  0  0
 94186  1  0  0  0  0
 94187  1  0  0  0  0
101188  1  0  0  0  0
105189  1  0  0  0  0
111190  1  0  0  0  0
111191  1  0  0  0  0
112192  1  0  0  0  0
112193  1  0  0  0  0
112194  1  0  0  0  0
123195  1  0  0  0  0
123196  1  0  0  0  0
124197  1  0  0  0  0
124198  1  0  0  0  0
124199  1  0  0  0  0
131200  1  0  0  0  0
136201  1  0  0  0  0
143202  1  0  0  0  0
143203  1  0  0  0  0
144204  1  0  0  0  0
144205  1  0  0  0  0
144206  1  0  0  0  0
M  END
