78

C          6.66070       -1.62730        3.17320
O          5.65410       -0.74230        3.05010
C          6.24530        0.47300        3.03450
N          7.54900        0.39500        3.14380
C          7.82890       -0.92710        3.23140
C          5.53180        1.70100        2.91170
C          4.20620        1.92110        2.76860
C          3.09570        1.03850        2.68990
S          3.09150       -0.70770        2.78080
C          1.37640       -0.81620        2.55940
C          0.81160        0.45180        2.45160
C          1.79420        1.47480        2.50850
S          1.11350        3.05730        2.30580
C         -0.49900        2.36990        2.20600
C         -1.59310        3.32630        2.01190
O         -1.34060        4.49770        1.83440
C         -2.99440        2.76580        2.04990
C         -4.03820        3.85310        1.84080
C         -0.48570        1.00540        2.30930
F         -1.59890        0.26610        2.30180
C          0.74610       -2.07550        2.41140
O         -0.51750       -2.17310        1.93650
C         -0.78960       -3.49030        1.89640
N          0.21670       -4.22880        2.32120
C          1.19390       -3.36670        2.63890
C         -2.04740       -4.03140        1.50460
C         -3.05600       -3.43690        0.82660
C         -3.10800       -2.16240        0.20110
O         -2.05300       -1.33260        0.02210
C         -2.54560       -0.24410       -0.59970
N         -3.84100       -0.33620       -0.83510
C         -4.21100       -1.53040       -0.36000
C         -1.81350        0.93810       -0.90480
C         -0.48190        1.17480       -0.85790
C          0.58210        0.25400       -0.67220
O          0.43360       -1.09390       -0.68530
C          1.67460       -1.60040       -0.55390
N          2.59590       -0.66290       -0.43730
C          1.93910        0.50200       -0.52670
C          1.96260       -2.99030       -0.48080
C          1.16640       -4.05320       -0.73730
C         -0.13520       -4.12650       -1.31050
S         -1.03690       -5.60140       -0.99550
C         -2.36700       -5.11520       -1.94450
C         -2.13920       -3.89090       -2.52110
C         -0.87170       -3.33320       -2.16700
S         -0.56560       -1.87480       -3.05380
C         -2.11930       -1.97950       -3.87460
C         -2.53240       -1.02490       -4.91600
O         -3.65210       -1.04050       -5.36900
C         -1.47620       -0.04710       -5.38010
C         -1.52390        1.21090       -4.51090
C         -2.82770       -3.07200       -3.45970
F         -4.03250       -3.40710       -3.91000
H          6.41780       -2.66870        3.20590
H          8.83390       -1.28130        3.32910
H          6.19150        2.55540        2.93550
H          3.89660        2.95760        2.68830
H         -3.08400        1.99630        1.27870
H         -3.13990        2.27140        3.01420
H         -5.03750        3.42820        1.87400
H         -3.89120        4.33370        0.87710
H         -3.94970        4.61350        2.61260
H          2.14360       -3.68800        3.01300
H         -2.17050       -5.05610        1.82360
H         -3.97290       -3.99770        0.70280
H         -5.22180       -1.87680       -0.42560
H         -2.46790        1.75130       -1.18610
H         -0.14450        2.18900       -1.02380
H          2.44730        1.44340       -0.47750
H          2.96640       -3.17790       -0.12830
H          1.56180       -5.02240       -0.46000
H         -3.22950       -5.74190       -2.04910
H         -1.70010        0.22060       -6.41380
H         -0.48440       -0.49850       -5.32890
H         -1.27740        0.97350       -3.47900
H         -0.80960        1.94300       -4.87910
H         -2.51910        1.64760       -4.53960
