
  xtb     03012212403D
 energy: -266.927087039824 gnorm: 0.000290681503 xtb: 6.4.1 (unknown)
166181  0     0  0            999 V2000
    2.8737    5.9566    4.1493 C   0  0  0  0  0  0  0  0  0  0  0  0
    2.6960    4.3803    3.4665 S   0  0  0  0  0  0  0  0  0  0  0  0
    1.6972    6.5554    4.4324 C   0  0  0  0  0  0  0  0  0  0  0  0
    0.5656    5.7493    4.1093 C   0  0  0  0  0  0  0  0  0  0  0  0
   -0.8068    6.0458    4.3001 C   0  0  0  0  0  0  0  0  0  0  0  0
   -1.1479    7.4261    4.7942 C   0  0  0  0  0  0  0  0  0  0  0  0
   -0.9910    8.4503    3.6670 C   0  0  0  0  0  0  0  0  0  0  0  0
   -1.7578    5.0958    3.9870 C   0  0  0  0  0  0  0  0  0  0  0  0
   -3.2307    5.2941    4.2299 C   0  0  0  0  0  0  0  0  0  0  0  0
   -3.9297    5.9284    3.0274 C   0  0  0  0  0  0  0  0  0  0  0  0
    0.9671    4.5216    3.5582 C   0  0  0  0  0  0  0  0  0  0  0  0
    0.0113    3.5990    3.1621 C   0  0  0  0  0  0  0  0  0  0  0  0
    0.2585    2.0835    2.3560 S   0  0  0  0  0  0  0  0  0  0  0  0
   -1.3510    3.8760    3.3878 C   0  0  0  0  0  0  0  0  0  0  0  0
   -2.1657    2.8324    2.8863 C   0  0  0  0  0  0  0  0  0  0  0  0
   -1.4698    1.8193    2.2836 C   0  0  0  0  0  0  0  0  0  0  0  0
   -2.0309    0.6956    1.6135 C   0  0  0  0  0  0  0  0  0  0  0  0
   -1.3131   -0.2610    0.9907 C   0  0  0  0  0  0  0  0  0  0  0  0
   -1.8748   -1.3508    0.2625 C   0  0  0  0  0  0  0  0  0  0  0  0
   -0.7935   -2.5523   -0.4133 S   0  0  0  0  0  0  0  0  0  0  0  0
   -3.1807   -1.6171   -0.0537 C   0  0  0  0  0  0  0  0  0  0  0  0
   -3.3623   -2.7712   -0.8582 C   0  0  0  0  0  0  0  0  0  0  0  0
   -4.5637   -3.2893   -1.4141 C   0  0  0  0  0  0  0  0  0  0  0  0
   -5.8381   -2.5879   -1.0274 C   0  0  0  0  0  0  0  0  0  0  0  0
   -6.2975   -3.0109    0.3692 C   0  0  0  0  0  0  0  0  0  0  0  0
   -4.5157   -4.3876   -2.2503 C   0  0  0  0  0  0  0  0  0  0  0  0
   -5.7322   -4.9995   -2.8926 C   0  0  0  0  0  0  0  0  0  0  0  0
   -6.2223   -6.2125   -2.0995 C   0  0  0  0  0  0  0  0  0  0  0  0
   -2.1312   -3.3962   -1.1240 C   0  0  0  0  0  0  0  0  0  0  0  0
   -2.0931   -4.5280   -1.9172 C   0  0  0  0  0  0  0  0  0  0  0  0
   -0.6990   -5.4595   -2.3367 S   0  0  0  0  0  0  0  0  0  0  0  0
   -3.2685   -5.0149   -2.5142 C   0  0  0  0  0  0  0  0  0  0  0  0
   -2.9792   -6.1204   -3.3562 C   0  0  0  0  0  0  0  0  0  0  0  0
   -1.6600   -6.4837   -3.3873 C   0  0  0  0  0  0  0  0  0  0  0  0
   -1.0938   -7.5142   -4.2139 C   0  0  0  0  0  0  0  0  0  0  0  0
    0.1532   -8.0072   -4.1752 C   0  0  0  0  0  0  0  0  0  0  0  0
    1.1052   -7.6073   -3.1469 C   0  0  0  0  0  0  0  0  0  0  0  0
    2.1441   -6.2049   -3.3026 S   0  0  0  0  0  0  0  0  0  0  0  0
    2.5314   -6.1975   -1.5997 C   0  0  0  0  0  0  0  0  0  0  0  0
    2.0231   -7.3390   -0.9978 C   0  0  0  0  0  0  0  0  0  0  0  0
    1.2076   -8.1052   -1.8821 C   0  0  0  0  0  0  0  0  0  0  0  0
    0.4946   -9.4773   -1.0835 S   0  0  0  0  0  0  0  0  0  0  0  0
    1.3410   -9.0848    0.4110 C   0  0  0  0  0  0  0  0  0  0  0  0
    1.2081   -9.9145    1.6147 C   0  0  0  0  0  0  0  0  0  0  0  0
    1.7519   -9.6192    2.6537 O   0  0  0  0  0  0  0  0  0  0  0  0
    0.3422  -11.1434    1.4418 C   0  0  0  0  0  0  0  0  0  0  0  0
    0.2258  -11.9404    2.7327 C   0  0  0  0  0  0  0  0  0  0  0  0
    2.0927   -7.9469    0.2815 C   0  0  0  0  0  0  0  0  0  0  0  0
    2.8777   -7.4726    1.2458 F   0  0  0  0  0  0  0  0  0  0  0  0
    2.9087   -5.0028   -0.9281 C   0  0  0  0  0  0  0  0  0  0  0  0
    3.9527   -3.7672   -1.5782 S   0  0  0  0  0  0  0  0  0  0  0  0
    3.5159   -2.6106   -0.3473 C   0  0  0  0  0  0  0  0  0  0  0  0
    2.6230   -3.1853    0.5525 C   0  0  0  0  0  0  0  0  0  0  0  0
    2.2949   -4.5269    0.2112 C   0  0  0  0  0  0  0  0  0  0  0  0
    1.0578   -5.1876    1.2232 S   0  0  0  0  0  0  0  0  0  0  0  0
    0.9945   -3.7103    2.1622 C   0  0  0  0  0  0  0  0  0  0  0  0
    0.0462   -3.5454    3.2704 C   0  0  0  0  0  0  0  0  0  0  0  0
   -0.1647   -2.4647    3.7722 O   0  0  0  0  0  0  0  0  0  0  0  0
   -0.6304   -4.8151    3.7354 C   0  0  0  0  0  0  0  0  0  0  0  0
    0.3448   -5.6673    4.5510 C   0  0  0  0  0  0  0  0  0  0  0  0
    1.8785   -2.7746    1.6938 C   0  0  0  0  0  0  0  0  0  0  0  0
    2.0438   -1.5970    2.2873 F   0  0  0  0  0  0  0  0  0  0  0  0
    3.9526   -1.2625   -0.4536 C   0  0  0  0  0  0  0  0  0  0  0  0
    2.9838    0.0139    0.2504 S   0  0  0  0  0  0  0  0  0  0  0  0
    5.0231   -0.7740   -1.1606 C   0  0  0  0  0  0  0  0  0  0  0  0
    5.1062    0.6392   -1.1595 C   0  0  0  0  0  0  0  0  0  0  0  0
    6.0536    1.4971   -1.7799 C   0  0  0  0  0  0  0  0  0  0  0  0
    7.1877    0.8465   -2.5274 C   0  0  0  0  0  0  0  0  0  0  0  0
    6.7669    0.4924   -3.9557 C   0  0  0  0  0  0  0  0  0  0  0  0
    5.8843    2.8672   -1.7253 C   0  0  0  0  0  0  0  0  0  0  0  0
    6.8464    3.8280   -2.3728 C   0  0  0  0  0  0  0  0  0  0  0  0
    7.8877    4.3127   -1.3619 C   0  0  0  0  0  0  0  0  0  0  0  0
    4.0341    1.1936   -0.4388 C   0  0  0  0  0  0  0  0  0  0  0  0
    3.8760    2.5639   -0.3738 C   0  0  0  0  0  0  0  0  0  0  0  0
    2.5693    3.3993    0.3801 S   0  0  0  0  0  0  0  0  0  0  0  0
    4.7834    3.4188   -1.0184 C   0  0  0  0  0  0  0  0  0  0  0  0
    4.3802    4.7745   -0.8603 C   0  0  0  0  0  0  0  0  0  0  0  0
    3.2061    4.9271   -0.1811 C   0  0  0  0  0  0  0  0  0  0  0  0
    2.4996    6.1417    0.1553 C   0  0  0  0  0  0  0  0  0  0  0  0
    1.1627    6.2810    0.1827 C   0  0  0  0  0  0  0  0  0  0  0  0
    0.2166    5.3137   -0.3130 C   0  0  0  0  0  0  0  0  0  0  0  0
   -1.3682    5.1712    0.4141 S   0  0  0  0  0  0  0  0  0  0  0  0
    0.3657    4.4564   -1.3637 C   0  0  0  0  0  0  0  0  0  0  0  0
   -0.7536    3.6199   -1.6001 C   0  0  0  0  0  0  0  0  0  0  0  0
   -0.9099    2.6289   -2.6037 C   0  0  0  0  0  0  0  0  0  0  0  0
    0.2843    2.3458   -3.4742 C   0  0  0  0  0  0  0  0  0  0  0  0
    1.2807    1.4587   -2.7242 C   0  0  0  0  0  0  0  0  0  0  0  0
   -2.1026    1.9422   -2.7025 C   0  0  0  0  0  0  0  0  0  0  0  0
   -2.3935    0.9432   -3.7920 C   0  0  0  0  0  0  0  0  0  0  0  0
   -2.1124   -0.4928   -3.3518 C   0  0  0  0  0  0  0  0  0  0  0  0
   -1.7845    3.8916   -0.6833 C   0  0  0  0  0  0  0  0  0  0  0  0
   -2.9576    3.1571   -0.7455 C   0  0  0  0  0  0  0  0  0  0  0  0
   -4.3444    3.2719    0.2866 S   0  0  0  0  0  0  0  0  0  0  0  0
   -3.1251    2.1864   -1.7499 C   0  0  0  0  0  0  0  0  0  0  0  0
   -4.3913    1.5537   -1.6441 C   0  0  0  0  0  0  0  0  0  0  0  0
   -5.1605    2.0131   -0.6163 C   0  0  0  0  0  0  0  0  0  0  0  0
   -6.4831    1.6161   -0.2063 C   0  0  0  0  0  0  0  0  0  0  0  0
   -7.2954    0.8205   -0.8974 C   0  0  0  0  0  0  0  0  0  0  0  0
    3.8632    6.3419    4.3015 H   0  0  0  0  0  0  0  0  0  0  0  0
    1.6370    7.5345    4.8716 H   0  0  0  0  0  0  0  0  0  0  0  0
   -0.4876    7.6939    5.6219 H   0  0  0  0  0  0  0  0  0  0  0  0
   -2.1706    7.4675    5.1641 H   0  0  0  0  0  0  0  0  0  0  0  0
   -1.6256    8.1850    2.8244 H   0  0  0  0  0  0  0  0  0  0  0  0
    0.0374    8.4822    3.3152 H   0  0  0  0  0  0  0  0  0  0  0  0
   -1.2707    9.4427    4.0145 H   0  0  0  0  0  0  0  0  0  0  0  0
   -3.6867    4.3255    4.4383 H   0  0  0  0  0  0  0  0  0  0  0  0
   -3.3905    5.9161    5.1117 H   0  0  0  0  0  0  0  0  0  0  0  0
   -4.9995    6.0054    3.2089 H   0  0  0  0  0  0  0  0  0  0  0  0
   -3.5393    6.9243    2.8380 H   0  0  0  0  0  0  0  0  0  0  0  0
   -3.7707    5.3265    2.1363 H   0  0  0  0  0  0  0  0  0  0  0  0
   -3.2393    2.8317    2.9312 H   0  0  0  0  0  0  0  0  0  0  0  0
   -3.1122    0.6544    1.6109 H   0  0  0  0  0  0  0  0  0  0  0  0
   -0.2326   -0.2135    1.0289 H   0  0  0  0  0  0  0  0  0  0  0  0
   -3.9831   -0.9780    0.2658 H   0  0  0  0  0  0  0  0  0  0  0  0
   -6.6358   -2.7946   -1.7392 H   0  0  0  0  0  0  0  0  0  0  0  0
   -5.6689   -1.5096   -1.0303 H   0  0  0  0  0  0  0  0  0  0  0  0
   -5.5197   -2.8149    1.1034 H   0  0  0  0  0  0  0  0  0  0  0  0
   -7.1907   -2.4591    0.6535 H   0  0  0  0  0  0  0  0  0  0  0  0
   -6.5250   -4.0739    0.3915 H   0  0  0  0  0  0  0  0  0  0  0  0
   -6.5415   -4.2750   -2.9705 H   0  0  0  0  0  0  0  0  0  0  0  0
   -5.4808   -5.3108   -3.9083 H   0  0  0  0  0  0  0  0  0  0  0  0
   -7.0808   -6.6648   -2.5910 H   0  0  0  0  0  0  0  0  0  0  0  0
   -6.5161   -5.9159   -1.0958 H   0  0  0  0  0  0  0  0  0  0  0  0
   -5.4353   -6.9586   -2.0159 H   0  0  0  0  0  0  0  0  0  0  0  0
   -3.7187   -6.6442   -3.9353 H   0  0  0  0  0  0  0  0  0  0  0  0
   -1.7785   -7.9093   -4.9536 H   0  0  0  0  0  0  0  0  0  0  0  0
    0.4623   -8.7578   -4.8891 H   0  0  0  0  0  0  0  0  0  0  0  0
    0.7778  -11.7557    0.6476 H   0  0  0  0  0  0  0  0  0  0  0  0
   -0.6434  -10.8203    1.0960 H   0  0  0  0  0  0  0  0  0  0  0  0
   -0.2008  -11.3211    3.5176 H   0  0  0  0  0  0  0  0  0  0  0  0
   -0.4065  -12.8123    2.5868 H   0  0  0  0  0  0  0  0  0  0  0  0
    1.2090  -12.2674    3.0610 H   0  0  0  0  0  0  0  0  0  0  0  0
   -0.9840   -5.3832    2.8722 H   0  0  0  0  0  0  0  0  0  0  0  0
   -1.4834   -4.5360    4.3562 H   0  0  0  0  0  0  0  0  0  0  0  0
   -0.1657   -6.5465    4.9356 H   0  0  0  0  0  0  0  0  0  0  0  0
    1.1806   -6.0009    3.9408 H   0  0  0  0  0  0  0  0  0  0  0  0
    0.7314   -5.0955    5.3915 H   0  0  0  0  0  0  0  0  0  0  0  0
    5.7149   -1.4303   -1.6580 H   0  0  0  0  0  0  0  0  0  0  0  0
    7.4841   -0.0639   -2.0040 H   0  0  0  0  0  0  0  0  0  0  0  0
    8.0582    1.5005   -2.5544 H   0  0  0  0  0  0  0  0  0  0  0  0
    5.9119   -0.1796   -3.9441 H   0  0  0  0  0  0  0  0  0  0  0  0
    6.4851    1.3888   -4.5038 H   0  0  0  0  0  0  0  0  0  0  0  0
    7.5844    0.0060   -4.4831 H   0  0  0  0  0  0  0  0  0  0  0  0
    6.2923    4.6857   -2.7575 H   0  0  0  0  0  0  0  0  0  0  0  0
    7.3487    3.3629   -3.2197 H   0  0  0  0  0  0  0  0  0  0  0  0
    7.4010    4.8029   -0.5221 H   0  0  0  0  0  0  0  0  0  0  0  0
    8.4630    3.4739   -0.9763 H   0  0  0  0  0  0  0  0  0  0  0  0
    8.5720    5.0178   -1.8287 H   0  0  0  0  0  0  0  0  0  0  0  0
    4.9151    5.6153   -1.2652 H   0  0  0  0  0  0  0  0  0  0  0  0
    3.1198    6.9809    0.4440 H   0  0  0  0  0  0  0  0  0  0  0  0
    0.7371    7.1920    0.5825 H   0  0  0  0  0  0  0  0  0  0  0  0
    1.2570    4.4495   -1.9640 H   0  0  0  0  0  0  0  0  0  0  0  0
    0.7698    3.2852   -3.7452 H   0  0  0  0  0  0  0  0  0  0  0  0
   -0.0063    1.8507   -4.3994 H   0  0  0  0  0  0  0  0  0  0  0  0
    0.8472    0.4823   -2.5215 H   0  0  0  0  0  0  0  0  0  0  0  0
    2.1882    1.3207   -3.3089 H   0  0  0  0  0  0  0  0  0  0  0  0
    1.5439    1.9106   -1.7723 H   0  0  0  0  0  0  0  0  0  0  0  0
   -3.4441    1.0303   -4.0768 H   0  0  0  0  0  0  0  0  0  0  0  0
   -1.8049    1.1682   -4.6815 H   0  0  0  0  0  0  0  0  0  0  0  0
   -2.7082   -0.7433   -2.4785 H   0  0  0  0  0  0  0  0  0  0  0  0
   -2.3577   -1.1916   -4.1492 H   0  0  0  0  0  0  0  0  0  0  0  0
   -1.0638   -0.6181   -3.0954 H   0  0  0  0  0  0  0  0  0  0  0  0
   -4.7192    0.7673   -2.2988 H   0  0  0  0  0  0  0  0  0  0  0  0
   -6.8114    2.0292    0.7387 H   0  0  0  0  0  0  0  0  0  0  0  0
   -8.2725    0.5630   -0.5287 H   0  0  0  0  0  0  0  0  0  0  0  0
   -7.0215    0.4112   -1.8545 H   0  0  0  0  0  0  0  0  0  0  0  0
  1  2  1  0  0  0  0
  1  3  2  0  0  0  0
  3  4  1  0  0  0  0
  4  5  1  0  0  0  0
  5  6  1  0  0  0  0
  6  7  1  0  0  0  0
  5  8  2  0  0  0  0
  8  9  1  0  0  0  0
  9 10  1  0  0  0  0
  4 11  2  0  0  0  0
 11 12  1  0  0  0  0
 12 13  1  0  0  0  0
 12 14  2  0  0  0  0
 14 15  1  0  0  0  0
 15 16  2  0  0  0  0
 16 17  1  0  0  0  0
 17 18  2  0  0  0  0
 18 19  1  0  0  0  0
 19 20  1  0  0  0  0
 19 21  2  0  0  0  0
 21 22  1  0  0  0  0
 22 23  1  0  0  0  0
 23 24  1  0  0  0  0
 24 25  1  0  0  0  0
 23 26  2  0  0  0  0
 26 27  1  0  0  0  0
 27 28  1  0  0  0  0
 22 29  2  0  0  0  0
 29 30  1  0  0  0  0
 30 31  1  0  0  0  0
 30 32  2  0  0  0  0
 32 33  1  0  0  0  0
 33 34  2  0  0  0  0
 34 35  1  0  0  0  0
 35 36  2  0  0  0  0
 36 37  1  0  0  0  0
 37 38  1  0  0  0  0
 38 39  1  0  0  0  0
 39 40  2  0  0  0  0
 40 41  1  0  0  0  0
 41 42  1  0  0  0  0
 42 43  1  0  0  0  0
 43 44  1  0  0  0  0
 44 45  2  0  0  0  0
 44 46  1  0  0  0  0
 46 47  1  0  0  0  0
 43 48  2  0  0  0  0
 48 49  1  0  0  0  0
 39 50  1  0  0  0  0
 50 51  1  0  0  0  0
 51 52  1  0  0  0  0
 52 53  2  0  0  0  0
 53 54  1  0  0  0  0
 54 55  1  0  0  0  0
 55 56  1  0  0  0  0
 56 57  1  0  0  0  0
 57 58  2  0  0  0  0
 57 59  1  0  0  0  0
 59 60  1  0  0  0  0
 56 61  2  0  0  0  0
 61 62  1  0  0  0  0
 52 63  1  0  0  0  0
 63 64  1  0  0  0  0
 63 65  2  0  0  0  0
 65 66  1  0  0  0  0
 66 67  1  0  0  0  0
 67 68  1  0  0  0  0
 68 69  1  0  0  0  0
 67 70  2  0  0  0  0
 70 71  1  0  0  0  0
 71 72  1  0  0  0  0
 66 73  2  0  0  0  0
 73 74  1  0  0  0  0
 74 75  1  0  0  0  0
 74 76  2  0  0  0  0
 76 77  1  0  0  0  0
 77 78  2  0  0  0  0
 78 79  1  0  0  0  0
 79 80  2  0  0  0  0
 80 81  1  0  0  0  0
 81 82  1  0  0  0  0
 81 83  2  0  0  0  0
 83 84  1  0  0  0  0
 84 85  1  0  0  0  0
 85 86  1  0  0  0  0
 86 87  1  0  0  0  0
 85 88  2  0  0  0  0
 88 89  1  0  0  0  0
 89 90  1  0  0  0  0
 84 91  2  0  0  0  0
 91 92  1  0  0  0  0
 92 93  1  0  0  0  0
 92 94  2  0  0  0  0
 94 95  1  0  0  0  0
 95 96  2  0  0  0  0
 96 97  1  0  0  0  0
 97 98  2  0  0  0  0
 11  2  1  0  0  0  0
 29 20  1  0  0  0  0
 41 37  2  0  0  0  0
 54 50  2  0  0  0  0
 73 64  1  0  0  0  0
 91 82  1  0  0  0  0
 14  8  1  0  0  0  0
 32 26  1  0  0  0  0
 48 40  1  0  0  0  0
 61 53  1  0  0  0  0
 76 70  1  0  0  0  0
 94 88  1  0  0  0  0
 16 13  1  0  0  0  0
 34 31  1  0  0  0  0
 78 75  1  0  0  0  0
 96 93  1  0  0  0  0
  1 99  1  0  0  0  0
  3100  1  0  0  0  0
  6101  1  0  0  0  0
  6102  1  0  0  0  0
  7103  1  0  0  0  0
  7104  1  0  0  0  0
  7105  1  0  0  0  0
  9106  1  0  0  0  0
  9107  1  0  0  0  0
 10108  1  0  0  0  0
 10109  1  0  0  0  0
 10110  1  0  0  0  0
 15111  1  0  0  0  0
 17112  1  0  0  0  0
 18113  1  0  0  0  0
 21114  1  0  0  0  0
 24115  1  0  0  0  0
 24116  1  0  0  0  0
 25117  1  0  0  0  0
 25118  1  0  0  0  0
 25119  1  0  0  0  0
 27120  1  0  0  0  0
 27121  1  0  0  0  0
 28122  1  0  0  0  0
 28123  1  0  0  0  0
 28124  1  0  0  0  0
 33125  1  0  0  0  0
 35126  1  0  0  0  0
 36127  1  0  0  0  0
 46128  1  0  0  0  0
 46129  1  0  0  0  0
 47130  1  0  0  0  0
 47131  1  0  0  0  0
 47132  1  0  0  0  0
 59133  1  0  0  0  0
 59134  1  0  0  0  0
 60135  1  0  0  0  0
 60136  1  0  0  0  0
 60137  1  0  0  0  0
 65138  1  0  0  0  0
 68139  1  0  0  0  0
 68140  1  0  0  0  0
 69141  1  0  0  0  0
 69142  1  0  0  0  0
 69143  1  0  0  0  0
 71144  1  0  0  0  0
 71145  1  0  0  0  0
 72146  1  0  0  0  0
 72147  1  0  0  0  0
 72148  1  0  0  0  0
 77149  1  0  0  0  0
 79150  1  0  0  0  0
 80151  1  0  0  0  0
 83152  1  0  0  0  0
 86153  1  0  0  0  0
 86154  1  0  0  0  0
 87155  1  0  0  0  0
 87156  1  0  0  0  0
 87157  1  0  0  0  0
 89158  1  0  0  0  0
 89159  1  0  0  0  0
 90160  1  0  0  0  0
 90161  1  0  0  0  0
 90162  1  0  0  0  0
 95163  1  0  0  0  0
 97164  1  0  0  0  0
 98165  1  0  0  0  0
 98166  1  0  0  0  0
M  END
