
  xtb     03012201353D
 energy: -254.633286613792 gnorm: 0.000404762432 xtb: 6.4.1 (unknown)
122133  0     0  0            999 V2000
    0.0292    9.0591   -3.6565 C   0  0  0  0  0  0  0  0  0  0  0  0
    0.9476    7.6309   -3.4106 S   0  0  0  0  0  0  0  0  0  0  0  0
   -0.4002    6.8355   -2.6276 C   0  0  0  0  0  0  0  0  0  0  0  0
   -1.4909    7.6756   -2.5849 C   0  0  0  0  0  0  0  0  0  0  0  0
   -1.2363    8.9355   -3.1778 C   0  0  0  0  0  0  0  0  0  0  0  0
   -2.3361    9.9435   -3.1847 C   0  0  0  0  0  0  0  0  0  0  0  0
   -2.9387   10.0598   -1.7738 C   0  0  0  0  0  0  0  0  0  0  0  0
   -2.0058   10.8808   -0.8895 C   0  0  0  0  0  0  0  0  0  0  0  0
   -0.8132   10.2970   -0.6985 F   0  0  0  0  0  0  0  0  0  0  0  0
   -2.5246   11.0817    0.3319 F   0  0  0  0  0  0  0  0  0  0  0  0
   -1.7601   12.0934   -1.4034 F   0  0  0  0  0  0  0  0  0  0  0  0
   -3.1905    8.6849   -1.0978 C   0  0  0  0  0  0  0  0  0  0  0  0
   -4.5761    8.5892   -0.6934 C   0  0  0  0  0  0  0  0  0  0  0  0
   -5.6788    8.5150   -0.4069 N   0  0  0  0  0  0  0  0  0  0  0  0
   -2.8464    7.4749   -1.9970 C   0  0  0  0  0  0  0  0  0  0  0  0
   -0.2363    5.4950   -2.1775 C   0  0  0  0  0  0  0  0  0  0  0  0
   -1.5326    4.5439   -1.4962 S   0  0  0  0  0  0  0  0  0  0  0  0
   -0.5446    3.1220   -1.2757 C   0  0  0  0  0  0  0  0  0  0  0  0
    0.7463    3.3864   -1.7295 C   0  0  0  0  0  0  0  0  0  0  0  0
    0.8978    4.7140   -2.2248 C   0  0  0  0  0  0  0  0  0  0  0  0
    2.5003    5.0313   -2.8072 S   0  0  0  0  0  0  0  0  0  0  0  0
    2.9875    3.3863   -2.4374 C   0  0  0  0  0  0  0  0  0  0  0  0
    4.3478    2.8989   -2.7116 C   0  0  0  0  0  0  0  0  0  0  0  0
    4.6734    1.7587   -2.4739 O   0  0  0  0  0  0  0  0  0  0  0  0
    5.2789    3.9307   -3.3041 C   0  0  0  0  0  0  0  0  0  0  0  0
    6.6757    3.3707   -3.5296 C   0  0  0  0  0  0  0  0  0  0  0  0
    1.9610    2.6634   -1.8900 C   0  0  0  0  0  0  0  0  0  0  0  0
    2.0932    1.3788   -1.5723 F   0  0  0  0  0  0  0  0  0  0  0  0
   -1.0663    1.9510   -0.6620 C   0  0  0  0  0  0  0  0  0  0  0  0
    0.0093    0.8180    0.0980 S   0  0  0  0  0  0  0  0  0  0  0  0
   -1.3061   -0.2160    0.5458 C   0  0  0  0  0  0  0  0  0  0  0  0
   -2.5142    0.2975    0.1241 C   0  0  0  0  0  0  0  0  0  0  0  0
   -2.3835    1.5312   -0.5424 C   0  0  0  0  0  0  0  0  0  0  0  0
   -3.5604    2.2873   -1.0726 C   0  0  0  0  0  0  0  0  0  0  0  0
   -4.8076    1.4050   -1.1990 C   0  0  0  0  0  0  0  0  0  0  0  0
   -6.0102    2.3061   -1.4624 C   0  0  0  0  0  0  0  0  0  0  0  0
   -5.7613    3.1809   -2.4523 F   0  0  0  0  0  0  0  0  0  0  0  0
   -7.1033    1.6305   -1.8270 F   0  0  0  0  0  0  0  0  0  0  0  0
   -6.3381    3.0363   -0.3864 F   0  0  0  0  0  0  0  0  0  0  0  0
   -4.9937    0.5779    0.0831 C   0  0  0  0  0  0  0  0  0  0  0  0
   -6.2311   -0.1732    0.0903 C   0  0  0  0  0  0  0  0  0  0  0  0
   -7.1752   -0.8146    0.1198 N   0  0  0  0  0  0  0  0  0  0  0  0
   -3.8283   -0.4153    0.2082 C   0  0  0  0  0  0  0  0  0  0  0  0
   -0.9433   -1.4606    1.1614 C   0  0  0  0  0  0  0  0  0  0  0  0
    0.4594   -2.2558    0.4992 S   0  0  0  0  0  0  0  0  0  0  0  0
    0.3934   -3.5175    1.6979 C   0  0  0  0  0  0  0  0  0  0  0  0
   -0.6792   -3.3186    2.5420 C   0  0  0  0  0  0  0  0  0  0  0  0
   -1.4209   -2.1546    2.2452 C   0  0  0  0  0  0  0  0  0  0  0  0
   -2.4946   -1.7605    3.2067 C   0  0  0  0  0  0  0  0  0  0  0  0
   -1.9399   -1.8300    4.6419 C   0  0  0  0  0  0  0  0  0  0  0  0
   -0.9871   -0.6599    4.8713 C   0  0  0  0  0  0  0  0  0  0  0  0
   -0.5854   -0.5919    6.1492 F   0  0  0  0  0  0  0  0  0  0  0  0
   -1.5604    0.5191    4.5880 F   0  0  0  0  0  0  0  0  0  0  0  0
    0.1275   -0.7282    4.1301 F   0  0  0  0  0  0  0  0  0  0  0  0
   -1.2012   -3.1572    4.9567 C   0  0  0  0  0  0  0  0  0  0  0  0
   -1.8758   -3.8532    6.0298 C   0  0  0  0  0  0  0  0  0  0  0  0
   -2.4330   -4.4137    6.8539 N   0  0  0  0  0  0  0  0  0  0  0  0
   -1.0977   -4.1042    3.7378 C   0  0  0  0  0  0  0  0  0  0  0  0
    1.4140   -4.5048    1.6682 C   0  0  0  0  0  0  0  0  0  0  0  0
    1.4463   -5.9439    2.6540 S   0  0  0  0  0  0  0  0  0  0  0  0
    2.9750   -6.5011    2.0142 C   0  0  0  0  0  0  0  0  0  0  0  0
    3.4439   -5.5790    1.0794 C   0  0  0  0  0  0  0  0  0  0  0  0
    2.5509   -4.4868    0.8880 C   0  0  0  0  0  0  0  0  0  0  0  0
    3.1221   -3.3422   -0.2751 S   0  0  0  0  0  0  0  0  0  0  0  0
    4.6007   -4.2601   -0.4881 C   0  0  0  0  0  0  0  0  0  0  0  0
    5.6543   -3.8051   -1.4121 C   0  0  0  0  0  0  0  0  0  0  0  0
    6.6554   -4.4579   -1.5960 O   0  0  0  0  0  0  0  0  0  0  0  0
    5.3964   -2.4755   -2.0798 C   0  0  0  0  0  0  0  0  0  0  0  0
    5.7420   -1.3243   -1.1306 C   0  0  0  0  0  0  0  0  0  0  0  0
    4.6100   -5.3934    0.2815 C   0  0  0  0  0  0  0  0  0  0  0  0
    5.6440   -6.2287    0.3069 F   0  0  0  0  0  0  0  0  0  0  0  0
    3.5069   -7.7596    2.4083 C   0  0  0  0  0  0  0  0  0  0  0  0
    4.6994   -8.5613    1.4206 S   0  0  0  0  0  0  0  0  0  0  0  0
    4.7081   -9.9135    2.4576 C   0  0  0  0  0  0  0  0  0  0  0  0
    3.8579   -9.7759    3.5166 C   0  0  0  0  0  0  0  0  0  0  0  0
    3.1616   -8.5486    3.4960 C   0  0  0  0  0  0  0  0  0  0  0  0
    2.1547   -8.1790    4.5399 C   0  0  0  0  0  0  0  0  0  0  0  0
    2.2445   -9.0768    5.7793 C   0  0  0  0  0  0  0  0  0  0  0  0
    3.3788   -8.6117    6.6889 C   0  0  0  0  0  0  0  0  0  0  0  0
    4.5440   -8.4061    6.0649 F   0  0  0  0  0  0  0  0  0  0  0  0
    3.0626   -7.4488    7.2802 F   0  0  0  0  0  0  0  0  0  0  0  0
    3.6262   -9.4880    7.6764 F   0  0  0  0  0  0  0  0  0  0  0  0
    2.3998  -10.5575    5.3873 C   0  0  0  0  0  0  0  0  0  0  0  0
    1.2630  -10.9404    4.5763 C   0  0  0  0  0  0  0  0  0  0  0  0
    0.3778  -11.2383    3.9194 N   0  0  0  0  0  0  0  0  0  0  0  0
    3.6933  -10.7999    4.5966 C   0  0  0  0  0  0  0  0  0  0  0  0
    0.4794    9.9022   -4.1402 H   0  0  0  0  0  0  0  0  0  0  0  0
   -1.9788   10.9179   -3.5195 H   0  0  0  0  0  0  0  0  0  0  0  0
   -3.1232    9.6173   -3.8701 H   0  0  0  0  0  0  0  0  0  0  0  0
   -3.8735   10.6295   -1.8259 H   0  0  0  0  0  0  0  0  0  0  0  0
   -2.5754    8.6127   -0.1922 H   0  0  0  0  0  0  0  0  0  0  0  0
   -3.5859    7.3996   -2.8005 H   0  0  0  0  0  0  0  0  0  0  0  0
   -2.9098    6.5669   -1.3996 H   0  0  0  0  0  0  0  0  0  0  0  0
    5.3111    4.7909   -2.6298 H   0  0  0  0  0  0  0  0  0  0  0  0
    4.8448    4.2766   -4.2465 H   0  0  0  0  0  0  0  0  0  0  0  0
    7.1055    3.0431   -2.5863 H   0  0  0  0  0  0  0  0  0  0  0  0
    6.6327    2.5126   -4.1954 H   0  0  0  0  0  0  0  0  0  0  0  0
    7.3219    4.1262   -3.9682 H   0  0  0  0  0  0  0  0  0  0  0  0
   -3.7825    3.1221   -0.3969 H   0  0  0  0  0  0  0  0  0  0  0  0
   -3.3225    2.7185   -2.0484 H   0  0  0  0  0  0  0  0  0  0  0  0
   -4.7170    0.7333   -2.0596 H   0  0  0  0  0  0  0  0  0  0  0  0
   -5.0026    1.2553    0.9465 H   0  0  0  0  0  0  0  0  0  0  0  0
   -3.9181   -0.9745    1.1377 H   0  0  0  0  0  0  0  0  0  0  0  0
   -3.8895   -1.1423   -0.6095 H   0  0  0  0  0  0  0  0  0  0  0  0
   -2.8469   -0.7465    3.0149 H   0  0  0  0  0  0  0  0  0  0  0  0
   -3.3424   -2.4476    3.1320 H   0  0  0  0  0  0  0  0  0  0  0  0
   -2.7626   -1.6819    5.3509 H   0  0  0  0  0  0  0  0  0  0  0  0
   -0.1838   -2.9297    5.2978 H   0  0  0  0  0  0  0  0  0  0  0  0
   -2.0766   -4.5567    3.5514 H   0  0  0  0  0  0  0  0  0  0  0  0
   -0.3964   -4.9048    3.9666 H   0  0  0  0  0  0  0  0  0  0  0  0
    4.3486   -2.3991   -2.3758 H   0  0  0  0  0  0  0  0  0  0  0  0
    6.0267   -2.4123   -2.9676 H   0  0  0  0  0  0  0  0  0  0  0  0
    5.5271   -0.3756   -1.6148 H   0  0  0  0  0  0  0  0  0  0  0  0
    6.7966   -1.3582   -0.8672 H   0  0  0  0  0  0  0  0  0  0  0  0
    5.1525   -1.3817   -0.2185 H   0  0  0  0  0  0  0  0  0  0  0  0
    5.3488  -10.7447    2.2401 H   0  0  0  0  0  0  0  0  0  0  0  0
    2.2829   -7.1348    4.8405 H   0  0  0  0  0  0  0  0  0  0  0  0
    1.1490   -8.2754    4.1166 H   0  0  0  0  0  0  0  0  0  0  0  0
    1.3329   -8.9569    6.3767 H   0  0  0  0  0  0  0  0  0  0  0  0
    2.3954  -11.1827    6.2883 H   0  0  0  0  0  0  0  0  0  0  0  0
    4.5490  -10.7572    5.2766 H   0  0  0  0  0  0  0  0  0  0  0  0
    3.6753  -11.8011    4.1596 H   0  0  0  0  0  0  0  0  0  0  0  0
  1  2  1  0  0  0  0
  2  3  1  0  0  0  0
  3  4  2  0  0  0  0
  4  5  1  0  0  0  0
  5  6  1  0  0  0  0
  6  7  1  0  0  0  0
  7  8  1  0  0  0  0
  8  9  1  0  0  0  0
  8 10  1  0  0  0  0
  8 11  1  0  0  0  0
  7 12  1  0  0  0  0
 12 13  1  0  0  0  0
 13 14  3  0  0  0  0
 12 15  1  0  0  0  0
  3 16  1  0  0  0  0
 16 17  1  0  0  0  0
 17 18  1  0  0  0  0
 18 19  2  0  0  0  0
 19 20  1  0  0  0  0
 20 21  1  0  0  0  0
 21 22  1  0  0  0  0
 22 23  1  0  0  0  0
 23 24  2  0  0  0  0
 23 25  1  0  0  0  0
 25 26  1  0  0  0  0
 22 27  2  0  0  0  0
 27 28  1  0  0  0  0
 18 29  1  0  0  0  0
 29 30  1  0  0  0  0
 30 31  1  0  0  0  0
 31 32  2  0  0  0  0
 32 33  1  0  0  0  0
 33 34  1  0  0  0  0
 34 35  1  0  0  0  0
 35 36  1  0  0  0  0
 36 37  1  0  0  0  0
 36 38  1  0  0  0  0
 36 39  1  0  0  0  0
 35 40  1  0  0  0  0
 40 41  1  0  0  0  0
 41 42  3  0  0  0  0
 40 43  1  0  0  0  0
 31 44  1  0  0  0  0
 44 45  1  0  0  0  0
 45 46  1  0  0  0  0
 46 47  2  0  0  0  0
 47 48  1  0  0  0  0
 48 49  1  0  0  0  0
 49 50  1  0  0  0  0
 50 51  1  0  0  0  0
 51 52  1  0  0  0  0
 51 53  1  0  0  0  0
 51 54  1  0  0  0  0
 50 55  1  0  0  0  0
 55 56  1  0  0  0  0
 56 57  3  0  0  0  0
 55 58  1  0  0  0  0
 46 59  1  0  0  0  0
 59 60  1  0  0  0  0
 60 61  1  0  0  0  0
 61 62  2  0  0  0  0
 62 63  1  0  0  0  0
 63 64  1  0  0  0  0
 64 65  1  0  0  0  0
 65 66  1  0  0  0  0
 66 67  2  0  0  0  0
 66 68  1  0  0  0  0
 68 69  1  0  0  0  0
 65 70  2  0  0  0  0
 70 71  1  0  0  0  0
 61 72  1  0  0  0  0
 72 73  1  0  0  0  0
 73 74  1  0  0  0  0
 74 75  2  0  0  0  0
 75 76  1  0  0  0  0
 76 77  1  0  0  0  0
 77 78  1  0  0  0  0
 78 79  1  0  0  0  0
 79 80  1  0  0  0  0
 79 81  1  0  0  0  0
 79 82  1  0  0  0  0
 78 83  1  0  0  0  0
 83 84  1  0  0  0  0
 84 85  3  0  0  0  0
 83 86  1  0  0  0  0
  5  1  2  0  0  0  0
 20 16  2  0  0  0  0
 33 29  2  0  0  0  0
 48 44  2  0  0  0  0
 63 59  2  0  0  0  0
 76 72  2  0  0  0  0
 15  4  1  0  0  0  0
 27 19  1  0  0  0  0
 43 32  1  0  0  0  0
 58 47  1  0  0  0  0
 70 62  1  0  0  0  0
 86 75  1  0  0  0  0
  1 87  1  0  0  0  0
  6 88  1  0  0  0  0
  6 89  1  0  0  0  0
  7 90  1  0  0  0  0
 12 91  1  0  0  0  0
 15 92  1  0  0  0  0
 15 93  1  0  0  0  0
 25 94  1  0  0  0  0
 25 95  1  0  0  0  0
 26 96  1  0  0  0  0
 26 97  1  0  0  0  0
 26 98  1  0  0  0  0
 34 99  1  0  0  0  0
 34100  1  0  0  0  0
 35101  1  0  0  0  0
 40102  1  0  0  0  0
 43103  1  0  0  0  0
 43104  1  0  0  0  0
 49105  1  0  0  0  0
 49106  1  0  0  0  0
 50107  1  0  0  0  0
 55108  1  0  0  0  0
 58109  1  0  0  0  0
 58110  1  0  0  0  0
 68111  1  0  0  0  0
 68112  1  0  0  0  0
 69113  1  0  0  0  0
 69114  1  0  0  0  0
 69115  1  0  0  0  0
 74116  1  0  0  0  0
 77117  1  0  0  0  0
 77118  1  0  0  0  0
 78119  1  0  0  0  0
 83120  1  0  0  0  0
 86121  1  0  0  0  0
 86122  1  0  0  0  0
M  END
