
  xtb     03042218513D
 energy: -428.613052982026 gnorm: 0.000395184947 xtb: 6.4.1 (unknown)
240265  0     0  0            999 V2000
    0.6304   -4.8965    8.6790 C   0  0  0  0  0  0  0  0  0  0  0  0
    0.5797   -3.5916    8.3427 C   0  0  0  0  0  0  0  0  0  0  0  0
   -0.5400   -3.2677    7.5183 C   0  0  0  0  0  0  0  0  0  0  0  0
   -0.8852   -2.0169    6.9761 C   0  0  0  0  0  0  0  0  0  0  0  0
    0.0469   -0.8836    7.0649 C   0  0  0  0  0  0  0  0  0  0  0  0
    1.3988   -1.0794    6.7745 C   0  0  0  0  0  0  0  0  0  0  0  0
    2.3067   -0.0440    6.8789 C   0  0  0  0  0  0  0  0  0  0  0  0
    1.8857    1.2236    7.2550 C   0  0  0  0  0  0  0  0  0  0  0  0
    3.0730    2.5391    7.4572 S   0  0  0  0  0  0  0  0  0  0  0  0
    2.9852    3.3059    5.7951 C   0  0  0  0  0  0  0  0  0  0  0  0
    3.5604    2.4124    4.7150 C   0  0  0  0  0  0  0  0  0  0  0  0
    0.5333    1.4229    7.5053 C   0  0  0  0  0  0  0  0  0  0  0  0
    0.0891    2.6465    7.8462 F   0  0  0  0  0  0  0  0  0  0  0  0
   -0.3843    0.3924    7.4155 C   0  0  0  0  0  0  0  0  0  0  0  0
   -2.1043   -1.9404    6.3091 C   0  0  0  0  0  0  0  0  0  0  0  0
   -2.8932   -3.0937    6.0710 C   0  0  0  0  0  0  0  0  0  0  0  0
   -2.4916   -4.3684    6.5082 C   0  0  0  0  0  0  0  0  0  0  0  0
   -3.2599   -5.5444    6.0805 C   0  0  0  0  0  0  0  0  0  0  0  0
   -3.5374   -5.7143    4.7225 C   0  0  0  0  0  0  0  0  0  0  0  0
   -4.3302   -6.7533    4.2884 C   0  0  0  0  0  0  0  0  0  0  0  0
   -4.8731   -7.6651    5.1890 C   0  0  0  0  0  0  0  0  0  0  0  0
   -5.9062   -8.9508    4.5393 S   0  0  0  0  0  0  0  0  0  0  0  0
   -7.3564   -8.8946    5.6570 C   0  0  0  0  0  0  0  0  0  0  0  0
   -8.0528   -7.5492    5.6091 C   0  0  0  0  0  0  0  0  0  0  0  0
   -4.5358   -7.5239    6.5316 C   0  0  0  0  0  0  0  0  0  0  0  0
   -3.7505   -6.4798    6.9829 C   0  0  0  0  0  0  0  0  0  0  0  0
   -4.9871   -8.4067    7.4475 F   0  0  0  0  0  0  0  0  0  0  0  0
   -1.3449   -4.4125    7.2797 C   0  0  0  0  0  0  0  0  0  0  0  0
   -0.6642   -5.8368    8.0216 S   0  0  0  0  0  0  0  0  0  0  0  0
   -4.0561   -2.7906    5.3399 C   0  0  0  0  0  0  0  0  0  0  0  0
   -4.1743   -1.4703    4.9896 C   0  0  0  0  0  0  0  0  0  0  0  0
   -2.8507   -0.5139    5.6249 S   0  0  0  0  0  0  0  0  0  0  0  0
   -5.1755   -1.0243    4.0831 C   0  0  0  0  0  0  0  0  0  0  0  0
   -6.1356   -2.2745    3.3351 S   0  0  0  0  0  0  0  0  0  0  0  0
   -6.8347   -1.1632    2.1926 C   0  0  0  0  0  0  0  0  0  0  0  0
   -6.4502    0.1467    2.5135 C   0  0  0  0  0  0  0  0  0  0  0  0
   -5.5022    0.2223    3.5710 C   0  0  0  0  0  0  0  0  0  0  0  0
   -4.9420    1.4808    4.0372 C   0  0  0  0  0  0  0  0  0  0  0  0
   -4.1249    1.5429    4.9489 O   0  0  0  0  0  0  0  0  0  0  0  0
   -5.3820    2.6870    3.3149 C   0  0  0  0  0  0  0  0  0  0  0  0
   -4.8208    3.9178    3.6474 C   0  0  0  0  0  0  0  0  0  0  0  0
   -5.1589    5.0579    2.9434 C   0  0  0  0  0  0  0  0  0  0  0  0
   -6.0733    4.9861    1.9020 C   0  0  0  0  0  0  0  0  0  0  0  0
   -6.6575    3.7759    1.5796 C   0  0  0  0  0  0  0  0  0  0  0  0
   -6.3192    2.6175    2.2766 C   0  0  0  0  0  0  0  0  0  0  0  0
   -6.9539    1.3506    1.8804 C   0  0  0  0  0  0  0  0  0  0  0  0
   -7.8722    1.3320    1.0641 O   0  0  0  0  0  0  0  0  0  0  0  0
   -7.4174   -1.6428    0.9839 C   0  0  0  0  0  0  0  0  0  0  0  0
   -7.7436   -0.5405   -0.3205 S   0  0  0  0  0  0  0  0  0  0  0  0
   -7.6920   -1.8184   -1.5051 C   0  0  0  0  0  0  0  0  0  0  0  0
   -7.6409   -3.0680   -0.8977 C   0  0  0  0  0  0  0  0  0  0  0  0
   -7.4983   -2.9649    0.5158 C   0  0  0  0  0  0  0  0  0  0  0  0
   -7.4528   -4.1456    1.3569 C   0  0  0  0  0  0  0  0  0  0  0  0
   -7.4346   -4.0909    2.5845 O   0  0  0  0  0  0  0  0  0  0  0  0
   -7.4465   -5.4452    0.6665 C   0  0  0  0  0  0  0  0  0  0  0  0
   -7.2910   -6.6004    1.4311 C   0  0  0  0  0  0  0  0  0  0  0  0
   -7.2611   -7.8444    0.8313 C   0  0  0  0  0  0  0  0  0  0  0  0
   -7.3985   -7.9476   -0.5462 C   0  0  0  0  0  0  0  0  0  0  0  0
   -7.5524   -6.8085   -1.3147 C   0  0  0  0  0  0  0  0  0  0  0  0
   -7.5703   -5.5475   -0.7233 C   0  0  0  0  0  0  0  0  0  0  0  0
   -7.6975   -4.3544   -1.5899 C   0  0  0  0  0  0  0  0  0  0  0  0
   -7.8218   -4.4650   -2.8006 O   0  0  0  0  0  0  0  0  0  0  0  0
   -7.4016   -1.3702   -2.8247 C   0  0  0  0  0  0  0  0  0  0  0  0
   -6.6514   -1.9909   -3.7873 C   0  0  0  0  0  0  0  0  0  0  0  0
   -5.9499   -1.0883   -4.6254 C   0  0  0  0  0  0  0  0  0  0  0  0
   -4.8767   -1.4143   -5.4826 C   0  0  0  0  0  0  0  0  0  0  0  0
   -4.6980   -2.8155   -5.8693 C   0  0  0  0  0  0  0  0  0  0  0  0
   -5.8132   -3.5470   -6.2806 C   0  0  0  0  0  0  0  0  0  0  0  0
   -5.7220   -4.8918   -6.5695 C   0  0  0  0  0  0  0  0  0  0  0  0
   -4.5123   -5.5663   -6.4387 C   0  0  0  0  0  0  0  0  0  0  0  0
   -4.2923   -7.2906   -6.7179 S   0  0  0  0  0  0  0  0  0  0  0  0
   -5.9700   -7.9749   -6.4757 C   0  0  0  0  0  0  0  0  0  0  0  0
   -6.4708   -7.7948   -5.0551 C   0  0  0  0  0  0  0  0  0  0  0  0
   -3.3961   -4.8151   -6.0685 C   0  0  0  0  0  0  0  0  0  0  0  0
   -2.2022   -5.4294   -5.9493 F   0  0  0  0  0  0  0  0  0  0  0  0
   -3.4702   -3.4685   -5.7884 C   0  0  0  0  0  0  0  0  0  0  0  0
   -4.0078   -0.3750   -5.7888 C   0  0  0  0  0  0  0  0  0  0  0  0
   -4.2533    0.9639   -5.3902 C   0  0  0  0  0  0  0  0  0  0  0  0
   -5.4198    1.3125   -4.6912 C   0  0  0  0  0  0  0  0  0  0  0  0
   -5.6439    2.6934   -4.2354 C   0  0  0  0  0  0  0  0  0  0  0  0
   -5.7216    2.9896   -2.8753 C   0  0  0  0  0  0  0  0  0  0  0  0
   -5.9285    4.2839   -2.4511 C   0  0  0  0  0  0  0  0  0  0  0  0
   -6.0669    5.3312   -3.3601 C   0  0  0  0  0  0  0  0  0  0  0  0
   -6.3174    6.9489   -2.6920 S   0  0  0  0  0  0  0  0  0  0  0  0
   -7.5182    7.7238   -3.8378 C   0  0  0  0  0  0  0  0  0  0  0  0
   -8.7959    6.9173   -3.9537 C   0  0  0  0  0  0  0  0  0  0  0  0
   -5.9448    5.0260   -4.7125 C   0  0  0  0  0  0  0  0  0  0  0  0
   -5.7426    3.7325   -5.1525 C   0  0  0  0  0  0  0  0  0  0  0  0
   -6.0132    5.9947   -5.6531 F   0  0  0  0  0  0  0  0  0  0  0  0
   -6.2180    0.2612   -4.2838 C   0  0  0  0  0  0  0  0  0  0  0  0
   -7.4885    0.3721   -3.0947 S   0  0  0  0  0  0  0  0  0  0  0  0
   -3.0987    1.7766   -5.5064 C   0  0  0  0  0  0  0  0  0  0  0  0
   -1.9999    1.1042   -5.9476 C   0  0  0  0  0  0  0  0  0  0  0  0
   -2.3924   -0.5325   -6.4497 S   0  0  0  0  0  0  0  0  0  0  0  0
   -0.6553    1.4727   -5.5869 C   0  0  0  0  0  0  0  0  0  0  0  0
   -0.4050    1.8955   -4.3156 C   0  0  0  0  0  0  0  0  0  0  0  0
    0.9695    1.9799   -3.9954 C   0  0  0  0  0  0  0  0  0  0  0  0
    1.5195    2.1846   -2.7202 C   0  0  0  0  0  0  0  0  0  0  0  0
    0.6650    2.3803   -1.5430 C   0  0  0  0  0  0  0  0  0  0  0  0
    0.8274    1.5593   -0.4303 C   0  0  0  0  0  0  0  0  0  0  0  0
    0.0054    1.6731    0.6722 C   0  0  0  0  0  0  0  0  0  0  0  0
   -1.0133    2.6185    0.7069 C   0  0  0  0  0  0  0  0  0  0  0  0
   -2.1521    2.8340    2.0338 S   0  0  0  0  0  0  0  0  0  0  0  0
   -1.4038    1.9033    3.4125 C   0  0  0  0  0  0  0  0  0  0  0  0
   -0.1482    2.5559    3.9525 C   0  0  0  0  0  0  0  0  0  0  0  0
   -1.1643    3.4375   -0.4143 C   0  0  0  0  0  0  0  0  0  0  0  0
   -2.1494    4.3600   -0.4223 F   0  0  0  0  0  0  0  0  0  0  0  0
   -0.3503    3.3351   -1.5206 C   0  0  0  0  0  0  0  0  0  0  0  0
    2.8949    2.0612   -2.6202 C   0  0  0  0  0  0  0  0  0  0  0  0
    3.7223    1.7685   -3.7313 C   0  0  0  0  0  0  0  0  0  0  0  0
    3.1635    1.5308   -5.0007 C   0  0  0  0  0  0  0  0  0  0  0  0
    4.0491    1.1367   -6.1049 C   0  0  0  0  0  0  0  0  0  0  0  0
    4.9333    0.0700   -5.9387 C   0  0  0  0  0  0  0  0  0  0  0  0
    5.8701   -0.2232   -6.9043 C   0  0  0  0  0  0  0  0  0  0  0  0
    5.9588    0.5259   -8.0757 C   0  0  0  0  0  0  0  0  0  0  0  0
    7.2435    0.0929   -9.2153 S   0  0  0  0  0  0  0  0  0  0  0  0
    7.8802    1.7118   -9.7885 C   0  0  0  0  0  0  0  0  0  0  0  0
    8.3954    2.5637   -8.6458 C   0  0  0  0  0  0  0  0  0  0  0  0
    5.0125    1.5281   -8.2674 C   0  0  0  0  0  0  0  0  0  0  0  0
    4.0766    1.8435   -7.3005 C   0  0  0  0  0  0  0  0  0  0  0  0
    4.9941    2.2480   -9.4091 F   0  0  0  0  0  0  0  0  0  0  0  0
    1.7857    1.6367   -5.1027 C   0  0  0  0  0  0  0  0  0  0  0  0
    0.8139    1.2160   -6.4981 S   0  0  0  0  0  0  0  0  0  0  0  0
    5.0866    1.6868   -3.3590 C   0  0  0  0  0  0  0  0  0  0  0  0
    5.2993    1.8553   -2.0219 C   0  0  0  0  0  0  0  0  0  0  0  0
    3.8239    2.2037   -1.1521 S   0  0  0  0  0  0  0  0  0  0  0  0
    6.5291    1.6433   -1.3287 C   0  0  0  0  0  0  0  0  0  0  0  0
    7.7465    1.4046   -1.8923 C   0  0  0  0  0  0  0  0  0  0  0  0
    8.7459    1.0496   -0.9531 C   0  0  0  0  0  0  0  0  0  0  0  0
   10.0851    0.7173   -1.2140 C   0  0  0  0  0  0  0  0  0  0  0  0
   10.5452    0.6203   -2.6048 C   0  0  0  0  0  0  0  0  0  0  0  0
    9.8099   -0.1293   -3.5214 C   0  0  0  0  0  0  0  0  0  0  0  0
   10.1550   -0.1745   -4.8572 C   0  0  0  0  0  0  0  0  0  0  0  0
   11.2596    0.5264   -5.3279 C   0  0  0  0  0  0  0  0  0  0  0  0
   11.7602    0.6268   -7.0135 S   0  0  0  0  0  0  0  0  0  0  0  0
   10.7586   -0.6395   -7.8702 C   0  0  0  0  0  0  0  0  0  0  0  0
   11.2145   -2.0510   -7.5554 C   0  0  0  0  0  0  0  0  0  0  0  0
   12.0107    1.2413   -4.3916 C   0  0  0  0  0  0  0  0  0  0  0  0
   13.0945    1.9243   -4.8108 F   0  0  0  0  0  0  0  0  0  0  0  0
   11.6761    1.2951   -3.0562 C   0  0  0  0  0  0  0  0  0  0  0  0
   10.8822    0.4625   -0.1084 C   0  0  0  0  0  0  0  0  0  0  0  0
   10.3881    0.4683    1.2214 C   0  0  0  0  0  0  0  0  0  0  0  0
    9.0393    0.7577    1.4756 C   0  0  0  0  0  0  0  0  0  0  0  0
    8.4531    0.7359    2.8229 C   0  0  0  0  0  0  0  0  0  0  0  0
    9.0039    1.4541    3.8790 C   0  0  0  0  0  0  0  0  0  0  0  0
    8.4081    1.4633    5.1270 C   0  0  0  0  0  0  0  0  0  0  0  0
    7.2349    0.7554    5.3630 C   0  0  0  0  0  0  0  0  0  0  0  0
    6.3625    0.6689    6.8915 S   0  0  0  0  0  0  0  0  0  0  0  0
    7.1114    1.9728    7.9197 C   0  0  0  0  0  0  0  0  0  0  0  0
    6.7332    3.3653    7.4537 C   0  0  0  0  0  0  0  0  0  0  0  0
    6.7033    0.0267    4.2967 C   0  0  0  0  0  0  0  0  0  0  0  0
    7.2858    0.0077    3.0519 C   0  0  0  0  0  0  0  0  0  0  0  0
    5.5718   -0.6833    4.4951 F   0  0  0  0  0  0  0  0  0  0  0  0
    8.2514    1.0533    0.3721 C   0  0  0  0  0  0  0  0  0  0  0  0
    6.5615    1.4862    0.4145 S   0  0  0  0  0  0  0  0  0  0  0  0
   11.3999    0.0913    2.1542 C   0  0  0  0  0  0  0  0  0  0  0  0
   12.5864   -0.1671    1.5686 C   0  0  0  0  0  0  0  0  0  0  0  0
   12.5680    0.0170   -0.1519 S   0  0  0  0  0  0  0  0  0  0  0  0
    1.3589   -5.3893    9.2928 H   0  0  0  0  0  0  0  0  0  0  0  0
    1.2927   -2.8638    8.6848 H   0  0  0  0  0  0  0  0  0  0  0  0
    1.7401   -2.0512    6.4520 H   0  0  0  0  0  0  0  0  0  0  0  0
    3.3536   -0.2088    6.6739 H   0  0  0  0  0  0  0  0  0  0  0  0
    3.5619    4.2252    5.8943 H   0  0  0  0  0  0  0  0  0  0  0  0
    1.9433    3.5594    5.6063 H   0  0  0  0  0  0  0  0  0  0  0  0
    3.5392    2.9275    3.7562 H   0  0  0  0  0  0  0  0  0  0  0  0
    2.9888    1.4905    4.6263 H   0  0  0  0  0  0  0  0  0  0  0  0
    4.5905    2.1539    4.9467 H   0  0  0  0  0  0  0  0  0  0  0  0
   -1.4190    0.5929    7.6434 H   0  0  0  0  0  0  0  0  0  0  0  0
   -3.1263   -5.0208    4.0050 H   0  0  0  0  0  0  0  0  0  0  0  0
   -4.5548   -6.8695    3.2393 H   0  0  0  0  0  0  0  0  0  0  0  0
   -7.0320   -9.1507    6.6631 H   0  0  0  0  0  0  0  0  0  0  0  0
   -8.0024   -9.6876    5.2806 H   0  0  0  0  0  0  0  0  0  0  0  0
   -7.3877   -6.7545    5.9431 H   0  0  0  0  0  0  0  0  0  0  0  0
   -8.9238   -7.5650    6.2613 H   0  0  0  0  0  0  0  0  0  0  0  0
   -8.3813   -7.3207    4.5974 H   0  0  0  0  0  0  0  0  0  0  0  0
   -3.5442   -6.4004    8.0388 H   0  0  0  0  0  0  0  0  0  0  0  0
   -4.7930   -3.5266    5.0723 H   0  0  0  0  0  0  0  0  0  0  0  0
   -4.1100    3.9544    4.4592 H   0  0  0  0  0  0  0  0  0  0  0  0
   -4.7057    6.0031    3.2001 H   0  0  0  0  0  0  0  0  0  0  0  0
   -6.3285    5.8745    1.3439 H   0  0  0  0  0  0  0  0  0  0  0  0
   -7.3805    3.6963    0.7808 H   0  0  0  0  0  0  0  0  0  0  0  0
   -7.1860   -6.4937    2.5006 H   0  0  0  0  0  0  0  0  0  0  0  0
   -7.1275   -8.7289    1.4359 H   0  0  0  0  0  0  0  0  0  0  0  0
   -7.3814   -8.9177   -1.0198 H   0  0  0  0  0  0  0  0  0  0  0  0
   -7.6566   -6.8693   -2.3876 H   0  0  0  0  0  0  0  0  0  0  0  0
   -6.5010   -3.0541   -3.8079 H   0  0  0  0  0  0  0  0  0  0  0  0
   -6.7656   -3.0497   -6.3820 H   0  0  0  0  0  0  0  0  0  0  0  0
   -6.6057   -5.4166   -6.8936 H   0  0  0  0  0  0  0  0  0  0  0  0
   -5.8447   -9.0314   -6.7128 H   0  0  0  0  0  0  0  0  0  0  0  0
   -6.6413   -7.5332   -7.2111 H   0  0  0  0  0  0  0  0  0  0  0  0
   -5.7736   -8.2448   -4.3514 H   0  0  0  0  0  0  0  0  0  0  0  0
   -7.4398   -8.2789   -4.9458 H   0  0  0  0  0  0  0  0  0  0  0  0
   -6.5793   -6.7405   -4.8077 H   0  0  0  0  0  0  0  0  0  0  0  0
   -2.5778   -2.9564   -5.4671 H   0  0  0  0  0  0  0  0  0  0  0  0
   -5.6093    2.2039   -2.1449 H   0  0  0  0  0  0  0  0  0  0  0  0
   -5.9803    4.5084   -1.3974 H   0  0  0  0  0  0  0  0  0  0  0  0
   -7.7065    8.6949   -3.3798 H   0  0  0  0  0  0  0  0  0  0  0  0
   -7.0415    7.8750   -4.8037 H   0  0  0  0  0  0  0  0  0  0  0  0
   -9.2374    6.7569   -2.9724 H   0  0  0  0  0  0  0  0  0  0  0  0
   -8.6041    5.9470   -4.4080 H   0  0  0  0  0  0  0  0  0  0  0  0
   -9.5103    7.4520   -4.5763 H   0  0  0  0  0  0  0  0  0  0  0  0
   -5.6647    3.5471   -6.2130 H   0  0  0  0  0  0  0  0  0  0  0  0
   -3.0677    2.7978   -5.1714 H   0  0  0  0  0  0  0  0  0  0  0  0
   -1.1880    2.0536   -3.5969 H   0  0  0  0  0  0  0  0  0  0  0  0
    1.5900    0.7960   -0.4354 H   0  0  0  0  0  0  0  0  0  0  0  0
    0.1567    1.0020    1.5015 H   0  0  0  0  0  0  0  0  0  0  0  0
   -1.2340    0.8774    3.0874 H   0  0  0  0  0  0  0  0  0  0  0  0
   -2.1827    1.8962    4.1740 H   0  0  0  0  0  0  0  0  0  0  0  0
    0.6191    2.6465    3.1857 H   0  0  0  0  0  0  0  0  0  0  0  0
   -0.3775    3.5494    4.3310 H   0  0  0  0  0  0  0  0  0  0  0  0
    0.2398    1.9483    4.7680 H   0  0  0  0  0  0  0  0  0  0  0  0
   -0.4994    4.0115   -2.3477 H   0  0  0  0  0  0  0  0  0  0  0  0
    4.8837   -0.5264   -5.0404 H   0  0  0  0  0  0  0  0  0  0  0  0
    6.5645   -1.0372   -6.7635 H   0  0  0  0  0  0  0  0  0  0  0  0
    8.6859    1.4375  -10.4693 H   0  0  0  0  0  0  0  0  0  0  0  0
    7.0976    2.2154  -10.3515 H   0  0  0  0  0  0  0  0  0  0  0  0
    8.7911    3.4974   -9.0396 H   0  0  0  0  0  0  0  0  0  0  0  0
    7.5960    2.7990   -7.9449 H   0  0  0  0  0  0  0  0  0  0  0  0
    9.1907    2.0531   -8.1073 H   0  0  0  0  0  0  0  0  0  0  0  0
    3.3883    2.6536   -7.4855 H   0  0  0  0  0  0  0  0  0  0  0  0
    5.8776    1.4848   -4.0566 H   0  0  0  0  0  0  0  0  0  0  0  0
    7.9332    1.4914   -2.9462 H   0  0  0  0  0  0  0  0  0  0  0  0
    8.9559   -0.6949   -3.1797 H   0  0  0  0  0  0  0  0  0  0  0  0
    9.5450   -0.7514   -5.5329 H   0  0  0  0  0  0  0  0  0  0  0  0
    9.7062   -0.4795   -7.6394 H   0  0  0  0  0  0  0  0  0  0  0  0
   10.9153   -0.4118   -8.9247 H   0  0  0  0  0  0  0  0  0  0  0  0
   12.2557   -2.1823   -7.8402 H   0  0  0  0  0  0  0  0  0  0  0  0
   10.6081   -2.7633   -8.1115 H   0  0  0  0  0  0  0  0  0  0  0  0
   11.1211   -2.2680   -6.4933 H   0  0  0  0  0  0  0  0  0  0  0  0
   12.2821    1.8833   -2.3855 H   0  0  0  0  0  0  0  0  0  0  0  0
    9.8988    2.0363    3.7180 H   0  0  0  0  0  0  0  0  0  0  0  0
    8.8698    2.0322    5.9177 H   0  0  0  0  0  0  0  0  0  0  0  0
    6.7032    1.7772    8.9111 H   0  0  0  0  0  0  0  0  0  0  0  0
    8.1891    1.8142    7.9480 H   0  0  0  0  0  0  0  0  0  0  0  0
    7.2008    4.1084    8.0965 H   0  0  0  0  0  0  0  0  0  0  0  0
    5.6544    3.4894    7.5074 H   0  0  0  0  0  0  0  0  0  0  0  0
    7.0538    3.5401    6.4285 H   0  0  0  0  0  0  0  0  0  0  0  0
    6.8343   -0.5842    2.2719 H   0  0  0  0  0  0  0  0  0  0  0  0
   11.2249    0.0073    3.2113 H   0  0  0  0  0  0  0  0  0  0  0  0
   13.5027   -0.4647    2.0400 H   0  0  0  0  0  0  0  0  0  0  0  0
  1  2  2  0  0  0  0
  2  3  1  0  0  0  0
  3  4  2  0  0  0  0
  4  5  1  0  0  0  0
  5  6  2  0  0  0  0
  6  7  1  0  0  0  0
  7  8  2  0  0  0  0
  8  9  1  0  0  0  0
  9 10  1  0  0  0  0
 10 11  1  0  0  0  0
  8 12  1  0  0  0  0
 12 13  1  0  0  0  0
 12 14  2  0  0  0  0
  4 15  1  0  0  0  0
 15 16  2  0  0  0  0
 16 17  1  0  0  0  0
 17 18  1  0  0  0  0
 18 19  2  0  0  0  0
 19 20  1  0  0  0  0
 20 21  2  0  0  0  0
 21 22  1  0  0  0  0
 22 23  1  0  0  0  0
 23 24  1  0  0  0  0
 21 25  1  0  0  0  0
 25 26  2  0  0  0  0
 25 27  1  0  0  0  0
 17 28  2  0  0  0  0
 28 29  1  0  0  0  0
 16 30  1  0  0  0  0
 30 31  2  0  0  0  0
 31 32  1  0  0  0  0
 31 33  1  0  0  0  0
 33 34  1  0  0  0  0
 34 35  1  0  0  0  0
 35 36  2  0  0  0  0
 36 37  1  0  0  0  0
 37 38  1  0  0  0  0
 38 39  2  0  0  0  0
 38 40  1  0  0  0  0
 40 41  2  0  0  0  0
 41 42  1  0  0  0  0
 42 43  2  0  0  0  0
 43 44  1  0  0  0  0
 44 45  2  0  0  0  0
 45 46  1  0  0  0  0
 46 47  2  0  0  0  0
 35 48  1  0  0  0  0
 48 49  1  0  0  0  0
 49 50  1  0  0  0  0
 50 51  2  0  0  0  0
 51 52  1  0  0  0  0
 52 53  1  0  0  0  0
 53 54  2  0  0  0  0
 53 55  1  0  0  0  0
 55 56  2  0  0  0  0
 56 57  1  0  0  0  0
 57 58  2  0  0  0  0
 58 59  1  0  0  0  0
 59 60  2  0  0  0  0
 60 61  1  0  0  0  0
 61 62  2  0  0  0  0
 50 63  1  0  0  0  0
 63 64  2  0  0  0  0
 64 65  1  0  0  0  0
 65 66  2  0  0  0  0
 66 67  1  0  0  0  0
 67 68  2  0  0  0  0
 68 69  1  0  0  0  0
 69 70  2  0  0  0  0
 70 71  1  0  0  0  0
 71 72  1  0  0  0  0
 72 73  1  0  0  0  0
 70 74  1  0  0  0  0
 74 75  1  0  0  0  0
 74 76  2  0  0  0  0
 66 77  1  0  0  0  0
 77 78  2  0  0  0  0
 78 79  1  0  0  0  0
 79 80  1  0  0  0  0
 80 81  2  0  0  0  0
 81 82  1  0  0  0  0
 82 83  2  0  0  0  0
 83 84  1  0  0  0  0
 84 85  1  0  0  0  0
 85 86  1  0  0  0  0
 83 87  1  0  0  0  0
 87 88  2  0  0  0  0
 87 89  1  0  0  0  0
 79 90  2  0  0  0  0
 90 91  1  0  0  0  0
 78 92  1  0  0  0  0
 92 93  2  0  0  0  0
 93 94  1  0  0  0  0
 93 95  1  0  0  0  0
 95 96  2  0  0  0  0
 96 97  1  0  0  0  0
 97 98  2  0  0  0  0
 98 99  1  0  0  0  0
 99100  2  0  0  0  0
100101  1  0  0  0  0
101102  2  0  0  0  0
102103  1  0  0  0  0
103104  1  0  0  0  0
104105  1  0  0  0  0
102106  1  0  0  0  0
106107  1  0  0  0  0
106108  2  0  0  0  0
 98109  1  0  0  0  0
109110  2  0  0  0  0
110111  1  0  0  0  0
111112  1  0  0  0  0
112113  2  0  0  0  0
113114  1  0  0  0  0
114115  2  0  0  0  0
115116  1  0  0  0  0
116117  1  0  0  0  0
117118  1  0  0  0  0
115119  1  0  0  0  0
119120  2  0  0  0  0
119121  1  0  0  0  0
111122  2  0  0  0  0
122123  1  0  0  0  0
110124  1  0  0  0  0
124125  2  0  0  0  0
125126  1  0  0  0  0
125127  1  0  0  0  0
127128  2  0  0  0  0
128129  1  0  0  0  0
129130  2  0  0  0  0
130131  1  0  0  0  0
131132  2  0  0  0  0
132133  1  0  0  0  0
133134  2  0  0  0  0
134135  1  0  0  0  0
135136  1  0  0  0  0
136137  1  0  0  0  0
134138  1  0  0  0  0
138139  1  0  0  0  0
138140  2  0  0  0  0
130141  1  0  0  0  0
141142  2  0  0  0  0
142143  1  0  0  0  0
143144  1  0  0  0  0
144145  2  0  0  0  0
145146  1  0  0  0  0
146147  2  0  0  0  0
147148  1  0  0  0  0
148149  1  0  0  0  0
149150  1  0  0  0  0
147151  1  0  0  0  0
151152  2  0  0  0  0
151153  1  0  0  0  0
143154  2  0  0  0  0
154155  1  0  0  0  0
142156  1  0  0  0  0
156157  2  0  0  0  0
157158  1  0  0  0  0
 29  1  1  0  0  0  0
 37 33  2  0  0  0  0
 45 40  1  0  0  0  0
 52 48  2  0  0  0  0
 60 55  1  0  0  0  0
 91 63  1  0  0  0  0
123 95  1  0  0  0  0
155127  1  0  0  0  0
 28  3  1  0  0  0  0
 46 36  1  0  0  0  0
 61 51  1  0  0  0  0
 90 65  1  0  0  0  0
122 97  1  0  0  0  0
154129  1  0  0  0  0
 14  5  1  0  0  0  0
 32 15  1  0  0  0  0
 76 67  1  0  0  0  0
 94 77  1  0  0  0  0
108 99  1  0  0  0  0
126109  1  0  0  0  0
140131  1  0  0  0  0
158141  1  0  0  0  0
 26 18  1  0  0  0  0
 88 80  1  0  0  0  0
120112  1  0  0  0  0
152144  1  0  0  0  0
  1159  1  0  0  0  0
  2160  1  0  0  0  0
  6161  1  0  0  0  0
  7162  1  0  0  0  0
 10163  1  0  0  0  0
 10164  1  0  0  0  0
 11165  1  0  0  0  0
 11166  1  0  0  0  0
 11167  1  0  0  0  0
 14168  1  0  0  0  0
 19169  1  0  0  0  0
 20170  1  0  0  0  0
 23171  1  0  0  0  0
 23172  1  0  0  0  0
 24173  1  0  0  0  0
 24174  1  0  0  0  0
 24175  1  0  0  0  0
 26176  1  0  0  0  0
 30177  1  0  0  0  0
 41178  1  0  0  0  0
 42179  1  0  0  0  0
 43180  1  0  0  0  0
 44181  1  0  0  0  0
 56182  1  0  0  0  0
 57183  1  0  0  0  0
 58184  1  0  0  0  0
 59185  1  0  0  0  0
 64186  1  0  0  0  0
 68187  1  0  0  0  0
 69188  1  0  0  0  0
 72189  1  0  0  0  0
 72190  1  0  0  0  0
 73191  1  0  0  0  0
 73192  1  0  0  0  0
 73193  1  0  0  0  0
 76194  1  0  0  0  0
 81195  1  0  0  0  0
 82196  1  0  0  0  0
 85197  1  0  0  0  0
 85198  1  0  0  0  0
 86199  1  0  0  0  0
 86200  1  0  0  0  0
 86201  1  0  0  0  0
 88202  1  0  0  0  0
 92203  1  0  0  0  0
 96204  1  0  0  0  0
100205  1  0  0  0  0
101206  1  0  0  0  0
104207  1  0  0  0  0
104208  1  0  0  0  0
105209  1  0  0  0  0
105210  1  0  0  0  0
105211  1  0  0  0  0
108212  1  0  0  0  0
113213  1  0  0  0  0
114214  1  0  0  0  0
117215  1  0  0  0  0
117216  1  0  0  0  0
118217  1  0  0  0  0
118218  1  0  0  0  0
118219  1  0  0  0  0
120220  1  0  0  0  0
124221  1  0  0  0  0
128222  1  0  0  0  0
132223  1  0  0  0  0
133224  1  0  0  0  0
136225  1  0  0  0  0
136226  1  0  0  0  0
137227  1  0  0  0  0
137228  1  0  0  0  0
137229  1  0  0  0  0
140230  1  0  0  0  0
145231  1  0  0  0  0
146232  1  0  0  0  0
149233  1  0  0  0  0
149234  1  0  0  0  0
150235  1  0  0  0  0
150236  1  0  0  0  0
150237  1  0  0  0  0
152238  1  0  0  0  0
156239  1  0  0  0  0
157240  1  0  0  0  0
M  END
