228

C         -2.67270      -12.55630        9.15640
C         -3.01520      -11.27960        9.42180
C         -2.71280      -10.39000        8.34850
C         -2.89200       -9.00150        8.29490
C         -3.52390       -8.23300        9.37550
C         -2.90360       -7.09650        9.89210
C         -3.52020       -6.34030       10.86430
C         -4.78310       -6.67290       11.35090
S         -5.50300       -5.56750       12.53050
C         -6.38390       -6.65740       13.70660
C         -5.45640       -7.67120       14.34490
C         -5.39370       -7.80510       10.82060
F         -6.63000       -8.17850       11.21940
C         -4.77670       -8.58650        9.86360
C         -2.45460       -8.36310        7.14440
C         -1.85530       -9.03640        6.05230
C         -1.66740      -10.42670        6.11050
C         -1.01070      -11.15900        5.02190
C         -1.57930      -12.30700        4.47950
C         -0.95480      -13.00430        3.46330
C          0.26620      -12.57870        2.95280
S          1.18840      -13.37880        1.68470
C          0.02550      -14.59550        0.97700
C         -1.06670      -13.93890        0.15400
C          0.83020      -11.43070        3.51450
C          0.21670      -10.72440        4.52320
F          2.02210      -10.99720        3.05750
C         -2.11430      -11.06790        7.25890
S         -1.96240      -12.77450        7.59400
C         -1.55910       -8.14790        4.98320
C         -1.90690       -6.85660        5.23830
S         -2.62430       -6.65930        6.82830
C         -1.75440       -5.69410        4.42690
C         -2.19200       -4.44320        4.74350
C         -1.88090       -3.46270        3.77160
C         -2.18230       -2.09000        3.81890
C         -2.84240       -1.52830        5.00270
C         -2.35710       -1.81100        6.27830
C         -3.01930       -1.37650        7.40810
C         -4.19880       -0.64690        7.30530
S         -5.15430       -0.09040        8.67640
C         -4.70210       -1.24620       10.01970
C         -5.13560       -2.67080        9.73310
C         -4.63970       -0.31820        6.02220
F         -5.75920        0.41750        5.88200
C         -3.98630       -0.74250        4.88590
C         -1.83100       -1.34280        2.70580
C         -1.15660       -1.90680        1.59420
C         -0.81040       -3.26990        1.56900
C         -0.06460       -3.81350        0.42740
C          1.09520       -3.18020       -0.02140
C          1.74920       -3.62730       -1.14740
C          1.28790       -4.72840       -1.86860
S          2.21540       -5.18360       -3.30150
C          0.96840       -5.79460       -4.49390
C         -0.08240       -4.75000       -4.80920
C          0.17100       -5.39140       -1.36840
C         -0.50660       -4.94270       -0.25150
F         -0.30480       -6.50200       -1.97230
C         -1.20830       -4.02650        2.65790
S         -0.93640       -5.73830        2.87810
C         -0.92720       -0.95120        0.57850
C         -1.36370        0.30410        0.89170
S         -2.10240        0.36700        2.47700
C         -1.24120        1.44710        0.04430
C         -0.71170        1.43890       -1.21400
C         -0.69430        2.70820       -1.83440
C         -0.25210        3.00030       -3.13730
C          0.40410        1.93130       -3.90410
C          1.49670        1.27650       -3.33790
C          2.05880        0.16610       -3.93420
C          1.54300       -0.33070       -5.12560
S          2.09370       -1.79910       -5.91680
C          3.65820       -2.20400       -5.06270
C          4.34420       -3.33310       -5.80550
C          0.48940        0.37360       -5.71340
F         -0.00370       -0.06040       -6.89290
C         -0.07600        1.48810       -5.13220
C         -0.41880        4.30440       -3.56360
C         -0.89820        5.33220       -2.70800
C         -1.33670        5.04030       -1.40290
C         -1.88010        6.08320       -0.52910
C         -2.82090        7.00000       -1.00290
C         -3.34110        7.96340       -0.17120
C         -2.96120        8.06680        1.17140
S         -3.77540        9.35190        2.06090
C         -3.05140        9.45560        3.73710
C         -1.68850       10.11860        3.74580
C         -2.03140        7.13920        1.63050
C         -1.49490        6.17150        0.80370
F         -1.59660        7.14500        2.91090
C         -1.23590        3.71560       -1.00050
S         -1.74670        3.04930        0.53140
C         -0.73570        6.60760       -3.29780
C         -0.19420        6.58310       -4.55320
S          0.05180        4.93930       -5.12030
C          0.24860        7.73800       -5.26430
S          0.32250        9.22860       -4.33010
C          0.93890       10.09800       -5.68700
C          1.32020       11.41870       -5.93430
C          1.75060       11.56920       -7.23030
C          2.22800       12.77750       -7.88860
O          2.59130       12.83490       -9.03700
O          2.22180       13.84550       -7.07220
S          1.69580       10.09710       -8.15980
C          1.07640        9.25690       -6.78970
C          0.70800        7.91050       -6.55790
C          0.74090        6.95410       -7.65630
S         -0.36320        7.27410       -8.97470
C          0.26670        5.93030       -9.85540
C         -0.02520        5.35270      -11.09580
C          0.77350        4.26250      -11.33070
C          0.74990        3.41250      -12.51220
O          0.02840        3.57740      -13.46400
O          1.63200        2.40090      -12.43210
S          1.88740        3.93860      -10.03170
C          1.28140        5.28930       -9.14900
C          1.57690        5.88220       -7.88860
C          2.54330        5.34920       -6.96590
C          3.11790        4.11760       -7.04450
C          3.78630        3.71770       -5.85860
C          4.38300        2.48040       -5.56330
C          4.41470        1.40060       -6.55440
C          3.28710        1.08870       -7.31040
C          3.30400        0.08230       -8.25500
C          4.45630       -0.66150       -8.47820
S          4.62950       -1.97070       -9.64070
C          2.98760       -2.11590      -10.42560
C          1.99580       -2.88400       -9.57250
C          5.58030       -0.34410       -7.71140
F          6.71740       -1.04520       -7.90010
C          5.57660        0.65950       -6.76990
C          4.90740        2.34160       -4.28330
C          4.83560        3.35390       -3.29490
C          4.23590        4.58150       -3.59240
C          4.02100        5.66220       -2.61850
C          2.71690        6.08580       -2.38190
C          2.44830        7.17820       -1.58420
C          3.48580        7.89040       -0.99420
S          3.28470        9.35160       -0.03310
C          1.58360        9.89920       -0.42140
C          0.54710        9.30440        0.51340
C          4.78530        7.41600       -1.18800
C          5.06530        6.32550       -1.98380
F          5.81110        8.06130       -0.59810
C          3.74350        4.73400       -4.87810
S          2.95590        6.16970       -5.47370
C          5.36550        2.91830       -2.04360
C          5.81580        1.64910       -2.07810
S          5.63100        0.89400       -3.62520
H         -2.79100      -13.41500        9.78810
H         -3.45360      -10.95820       10.34890
H         -1.92160       -6.81810        9.54270
H         -3.03200       -5.46670       11.26730
H         -6.77340       -5.95910       14.44750
H         -7.21760       -7.13130       13.19330
H         -5.99970       -8.24170       15.09550
H         -5.06830       -8.36520       13.60150
H         -4.61610       -7.17290       14.82420
H         -5.30410       -9.44400        9.47450
H         -2.53420      -12.65370        4.84390
H         -1.42970      -13.89110        3.07720
H         -0.37000      -15.21120        1.78380
H          0.66220      -15.21750        0.34780
H         -0.62810      -13.35640       -0.65280
H         -1.67270      -13.27350        0.76510
H         -1.71320      -14.70050       -0.27790
H          0.70930       -9.85620        4.93220
H         -1.12290       -8.45730        4.05030
H         -2.74180       -4.23730        5.64420
H         -1.43820       -2.36730        6.38650
H         -2.61040       -1.61220        8.37740
H         -5.23720       -0.84560       10.88050
H         -3.63260       -1.16660       10.21010
H         -4.94300       -3.29920       10.60080
H         -4.59990       -3.08240        8.87990
H         -6.20090       -2.70170        9.51750
H         -4.39520       -0.48830        3.92080
H          1.48440       -2.33340        0.52320
H          2.63880       -3.12510       -1.49580
H          1.56400       -6.02930       -5.37640
H          0.53300       -6.71340       -4.10750
H         -0.76090       -5.13540       -5.56730
H          0.38050       -3.84090       -5.18740
H         -0.66470       -4.50290       -3.92330
H         -1.38670       -5.47810        0.06870
H         -0.46700       -1.19690       -0.35990
H         -0.36470        0.54910       -1.70440
H          1.90570        1.63960       -2.40640
H          2.89000       -0.32500       -3.45590
H          4.27090       -1.30250       -5.06090
H          3.41680       -2.51050       -4.04510
H          5.29160       -3.55980       -5.32290
H          4.53850       -3.05830       -6.83900
H          3.72610       -4.22750       -5.79000
H         -0.90410        1.97930       -5.61880
H         -3.16590        6.93370       -2.02320
H         -4.07270        8.66460       -0.54240
H         -3.78120       10.06260        4.27450
H         -3.03090        8.46060        4.17410
H         -1.73150       11.08440        3.24660
H         -1.36470       10.27000        4.77330
H         -0.95230        9.49730        3.24390
H         -0.76160        5.49860        1.22020
H         -0.96380        7.52650       -2.78720
H          1.28920       12.22290       -5.22370
H          2.54840       14.62170       -7.55340
H         -0.76960        5.69740      -11.78870
H          1.59510        1.86720      -13.24060
H          3.04400        3.49510       -7.91460
H          2.36350        1.61520       -7.13090
H          2.39940       -0.12260       -8.80200
H          3.19720       -2.65360      -11.35100
H          2.63950       -1.11480      -10.67590
H          2.38100       -3.87710       -9.35340
H          1.05410       -2.98700      -10.10810
H          1.80350       -2.37700       -8.63040
H          6.48600        0.86940       -6.22960
H          1.89810        5.54210       -2.82530
H          1.42240        7.47250       -1.43870
H          1.62390       10.98190       -0.30180
H          1.38520        9.66930       -1.46750
H          0.52670        8.21880        0.44800
H         -0.44190        9.68380        0.26060
H          0.77640        9.57840        1.54060
H          6.09130        6.02610       -2.13140
H          5.39300        3.54400       -1.16980
H          6.26350        1.08220       -1.28520
