226

C          2.95370       -5.96520       -0.31530
C          3.48260       -4.72580       -0.23580
C          4.48950       -4.62100        0.76760
C          5.20990       -3.46810        1.13800
C          4.99670       -2.28020        0.28830
C          4.30090       -1.14930        0.69740
C          3.95700       -0.17640       -0.22050
C          4.31280       -0.28200       -1.56390
S          3.79210        0.99060       -2.66320
C          3.53520        0.11410       -4.25750
C          2.50270        0.87380       -5.06620
C          5.07720       -1.38340       -1.94120
F          5.52110       -1.52550       -3.20430
C          5.39350       -2.37910       -1.04250
C          6.09190       -3.59490        2.19460
C          6.32680       -4.84530        2.83130
C          5.60680       -5.99850        2.46600
C          5.80800       -7.27910        3.14620
C          5.79910       -7.36430        4.53700
C          5.95680       -8.57500        5.18180
C          6.13570       -9.75020        4.45870
S          6.36890      -11.35430        5.13490
C          6.00650      -11.15960        6.91370
C          4.52310      -10.99140        7.18380
C          6.15240       -9.64740        3.06420
C          5.98700       -8.44990        2.40940
F          6.33820      -10.76190        2.33290
C          4.69200       -5.85090        1.43400
S          3.63610       -7.08870        0.80570
C          7.38530       -4.77770        3.75670
C          7.92490       -3.52650        3.92370
S          7.11870       -2.34960        2.89420
C          9.03810       -3.28000        4.77080
S         10.10380       -4.63930        5.03770
C         11.10240       -3.74730        6.22200
S         12.39490       -4.45160        6.99560
C         10.59000       -2.48070        6.32240
C          9.45480       -2.18120        5.54130
C          8.87760       -0.89780        5.77870
C          9.47550       -0.19020        6.78140
S         10.89510       -1.12820        7.43530
O         12.10080       -0.41760        7.13490
O         10.65330       -1.51830        8.79330
C          9.21510        1.02540        7.41800
S          9.94470        1.32840        8.97550
C          9.08650        2.88720        9.15380
S          9.23290        3.84640       10.50360
C          8.33060        3.11060        8.01880
C          8.40270        2.11250        7.04670
C          7.68220        2.37900        5.84400
C          6.98680        3.53680        5.84820
S          7.19260        4.37450        7.44680
O          5.96040        4.33590        8.17860
O          7.82330        5.64420        7.24860
C          6.16130        4.01950        4.80660
C          6.26030        3.63740        3.49520
C          5.17370        4.05830        2.70600
C          4.89730        3.66920        1.38420
C          5.76270        2.73090        0.66340
C          6.18210        1.55350        1.27900
C          6.98030        0.64180        0.62020
C          7.38800        0.86960       -0.68880
S          8.38640       -0.21210       -1.64630
C          8.84730       -1.54960       -0.49280
C          9.92040       -1.13260        0.49530
C          6.94220        2.04360       -1.30370
F          7.30910        2.28980       -2.57390
C          6.14430        2.96030       -0.65710
C          3.68700        4.09190        0.86610
C          2.74170        4.84770        1.60760
C          3.03130        5.24520        2.92750
C          2.02580        5.95340        3.72920
C          2.32050        7.14490        4.38920
C          1.33550        7.83020        5.06660
C          0.02390        7.35430        5.13720
S         -1.12570        8.34670        6.03480
C         -2.76810        8.00310        5.29880
C         -2.83290        8.35530        3.82630
C         -0.23430        6.12610        4.53550
C          0.73590        5.44160        3.83380
F         -1.45650        5.54740        4.60530
C          4.25460        4.84720        3.44850
S          4.78140        5.04500        5.10910
C          1.51060        4.96060        0.91340
C          1.48430        4.25580       -0.25720
S          3.03770        3.55870       -0.65430
C          0.34180        3.80890       -0.98750
C         -0.97260        4.14390       -0.83140
C         -1.86250        3.24100       -1.46770
C         -3.27000        3.24050       -1.44640
C         -4.00820        4.23000       -0.65240
C         -3.66200        4.45550        0.68080
C         -4.32850        5.39730        1.43280
C         -5.37530        6.14340        0.89390
S         -6.16810        7.31150        1.96090
C         -6.47690        8.75970        0.88320
C         -5.19850        9.29720        0.27240
C         -5.74700        5.86860       -0.41840
F         -6.79050        6.51000       -0.99030
C         -5.07410        4.94190       -1.19020
C         -3.90150        2.21780       -2.13910
C         -3.19230        1.17120       -2.78270
C         -1.78970        1.15400       -2.78380
C         -1.03450        0.03260       -3.35580
C         -1.28640       -0.43730       -4.64190
C         -0.61310       -1.53180       -5.14780
C          0.33400       -2.20400       -4.38230
S          1.23150       -3.62670       -4.90570
C          0.20660       -4.31750       -6.25150
C         -1.13010       -4.83470       -5.75740
C          0.60440       -1.69740       -3.11040
C         -0.05640       -0.60700       -2.59410
F          1.53880       -2.30680       -2.34420
C         -1.16350        2.20820       -2.14160
S          0.55680        2.40410       -2.00690
C         -4.06020        0.17790       -3.28960
C         -5.38070        0.44010       -3.08100
S         -5.62830        1.95240       -2.23130
C         -6.45750       -0.40000       -3.48730
C         -7.80110       -0.22970       -3.35010
C         -8.56590       -1.29760       -3.89320
C         -9.96110       -1.46070       -3.88950
C        -10.83520       -0.41080       -3.35720
C        -10.67430        0.91300       -3.76120
C        -11.45980        1.92040       -3.23910
C        -12.42870        1.64320       -2.28030
S        -13.46700        2.84490       -1.51960
C        -12.54850        4.40940       -1.74060
C        -11.23960        4.42280       -0.97470
C        -12.60430        0.30780       -1.91230
F        -13.54720       -0.00150       -1.00220
C        -11.83360       -0.70800       -2.43230
C        -10.44970       -2.64990       -4.41560
C         -9.61900       -3.66550       -4.95080
C         -8.22710       -3.50090       -4.96070
C         -7.28990       -4.52690       -5.43600
C         -7.34490       -5.83280       -4.95860
C         -6.38650       -6.76450       -5.31160
C         -5.33280       -6.42060       -6.15080
S         -4.03010       -7.49250       -6.66150
C         -4.10420       -8.88340       -5.48240
C         -3.66850       -8.47700       -4.08770
C         -5.31150       -5.11780       -6.65050
C         -6.26090       -4.18220       -6.31150
F         -4.31400       -4.75400       -7.48400
C         -7.74190       -2.31080       -4.43890
S         -6.05510       -1.90360       -4.29710
C        -10.38350       -4.75060       -5.47190
C        -11.71270       -4.56930       -5.33280
S        -12.13450       -3.07910       -4.56350
H          2.18480       -6.30620       -0.98030
H          3.16350       -3.90490       -0.85150
H          3.99010       -1.05380        1.72650
H          3.38160        0.68290        0.08580
H          3.19140       -0.89170       -4.02460
H          4.48920        0.06670       -4.78000
H          2.32410        0.35790       -6.00710
H          2.85300        1.88070       -5.28060
H          1.56350        0.94290       -4.52100
H          5.94760       -3.23670       -1.39310
H          5.63490       -6.47360        5.12450
H          5.94230       -8.59280        6.25910
H          6.60150      -10.33490        7.30290
H          6.37510      -12.08770        7.35040
H          4.35000      -10.91240        8.25520
H          3.97380      -11.85030        6.80590
H          4.13330      -10.09760        6.70150
H          6.02310       -8.43380        1.33200
H          7.75430       -5.63300        4.29280
H          7.99970       -0.57560        5.24150
H          7.70430        1.69530        5.01130
H          7.09130        3.07280        3.11670
H          5.84610        1.32530        2.27870
H          7.26470       -0.25940        1.13590
H          7.94220       -1.90500       -0.00160
H          9.21780       -2.33480       -1.15200
H         10.17390       -1.97280        1.13910
H         10.81670       -0.81810       -0.03350
H          9.58400       -0.30800        1.11930
H          5.84310        3.85350       -1.18060
H          3.31920        7.54910        4.34110
H          1.56140        8.76550        5.55420
H         -3.03100        6.96450        5.48390
H         -3.43190        8.64290        5.88030
H         -2.15990        7.72970        3.24320
H         -3.84750        8.19980        3.46400
H         -2.55700        9.39630        3.67100
H          0.48050        4.48600        3.40220
H          0.65680        5.48800        1.29550
H         -1.29660        5.00010       -0.26910
H         -2.87310        3.87440        1.13270
H         -4.04920        5.57120        2.46040
H         -6.92360        9.48500        1.56320
H         -7.20830        8.48740        0.12560
H         -5.41710       10.19830       -0.29680
H         -4.75200        8.56670       -0.39990
H         -4.47520        9.54050        1.04800
H         -5.38910        4.79030       -2.21080
H         -2.00640        0.07220       -5.26390
H         -0.83280       -1.86030       -6.15040
H          0.09870       -3.56440       -7.03060
H          0.81930       -5.13060       -6.64040
H         -1.72200       -4.03560       -5.31540
H         -1.69130       -5.25850       -6.58740
H         -0.98040       -5.60720       -5.00640
H          0.17510       -0.28420       -1.59170
H         -3.71930       -0.71840       -3.77550
H         -8.22960        0.62330       -2.85510
H         -9.93840        1.15360       -4.51360
H        -11.31500        2.92960       -3.58950
H        -13.23490        5.16040       -1.34990
H        -12.40990        4.58920       -2.80600
H        -10.56890        3.64300       -1.32990
H        -10.74720        5.38510       -1.10020
H        -11.42220        4.26130        0.08500
H        -11.99630       -1.71710       -2.08870
H         -8.13100       -6.11730       -4.27540
H         -6.46470       -7.76440       -4.91650
H         -3.41530       -9.61360       -5.90720
H         -5.10820       -9.30510       -5.50030
H         -4.31960       -7.70460       -3.68320
H         -2.65220       -8.09080       -4.11020
H         -3.69810       -9.33960       -3.42500
H         -6.19550       -3.19300       -6.73580
H         -9.94180       -5.60980       -5.94300
H        -12.50260       -5.22760       -5.63810
