
  xtb     03012203263D
 energy: -324.167015879300 gnorm: 0.000361917227 xtb: 6.4.1 (unknown)
170187  0     0  0            999 V2000
    9.3744    5.6677   10.4674 C   0  0  0  0  0  0  0  0  0  0  0  0
    9.6033    4.3681   10.7455 C   0  0  0  0  0  0  0  0  0  0  0  0
    8.8307    3.4844    9.9366 C   0  0  0  0  0  0  0  0  0  0  0  0
    8.7832    2.0807    9.9780 C   0  0  0  0  0  0  0  0  0  0  0  0
    9.6111    1.3160   10.8977 C   0  0  0  0  0  0  0  0  0  0  0  0
   11.3391    1.5091   10.9320 S   0  0  0  0  0  0  0  0  0  0  0  0
   11.5306    0.3005   12.1565 C   0  0  0  0  0  0  0  0  0  0  0  0
   12.8697   -0.0178   12.7239 C   0  0  0  0  0  0  0  0  0  0  0  0
   13.2510    0.9809   13.8193 C   0  0  0  0  0  0  0  0  0  0  0  0
   10.3168   -0.2044   12.5143 C   0  0  0  0  0  0  0  0  0  0  0  0
   10.0995   -1.4165   13.7095 Cl  0  0  0  0  0  0  0  0  0  0  0  0
    9.2276    0.3625   11.7987 C   0  0  0  0  0  0  0  0  0  0  0  0
    7.5985   -0.0658   12.1142 Cl  0  0  0  0  0  0  0  0  0  0  0  0
    7.9224    1.4516    9.0882 C   0  0  0  0  0  0  0  0  0  0  0  0
    7.1050    2.1651    8.1774 C   0  0  0  0  0  0  0  0  0  0  0  0
    7.1190    3.5697    8.1673 C   0  0  0  0  0  0  0  0  0  0  0  0
    6.2311    4.3096    7.2869 C   0  0  0  0  0  0  0  0  0  0  0  0
    6.8189    5.5186    6.1853 S   0  0  0  0  0  0  0  0  0  0  0  0
    5.2347    5.8363    5.5673 C   0  0  0  0  0  0  0  0  0  0  0  0
    5.0092    6.8096    4.4631 C   0  0  0  0  0  0  0  0  0  0  0  0
    4.9934    6.1040    3.1046 C   0  0  0  0  0  0  0  0  0  0  0  0
    4.3146    5.0445    6.1880 C   0  0  0  0  0  0  0  0  0  0  0  0
    4.8746    4.1795    7.1646 C   0  0  0  0  0  0  0  0  0  0  0  0
    3.9167    3.1377    8.1358 Cl  0  0  0  0  0  0  0  0  0  0  0  0
    2.6349    5.0808    5.8403 Cl  0  0  0  0  0  0  0  0  0  0  0  0
    8.0019    4.1958    9.0376 C   0  0  0  0  0  0  0  0  0  0  0  0
    8.2067    5.9153    9.2154 S   0  0  0  0  0  0  0  0  0  0  0  0
    6.3794    1.2992    7.3267 C   0  0  0  0  0  0  0  0  0  0  0  0
    6.6012   -0.0244    7.5735 C   0  0  0  0  0  0  0  0  0  0  0  0
    7.7450   -0.2692    8.8788 S   0  0  0  0  0  0  0  0  0  0  0  0
    6.0009   -1.1222    6.8989 C   0  0  0  0  0  0  0  0  0  0  0  0
    6.1628   -2.4700    7.1255 C   0  0  0  0  0  0  0  0  0  0  0  0
    5.3926   -3.2745    6.2690 C   0  0  0  0  0  0  0  0  0  0  0  0
    5.3371   -4.6262    6.2504 O   0  0  0  0  0  0  0  0  0  0  0  0
    6.1441   -5.3317    7.1792 C   0  0  0  0  0  0  0  0  0  0  0  0
    5.9115   -6.8167    6.9543 C   0  0  0  0  0  0  0  0  0  0  0  0
    4.6311   -2.5319    5.3696 C   0  0  0  0  0  0  0  0  0  0  0  0
    4.8801   -0.8303    5.6064 S   0  0  0  0  0  0  0  0  0  0  0  0
    3.7434   -2.9842    4.3588 C   0  0  0  0  0  0  0  0  0  0  0  0
    3.3916   -4.2754    4.0274 C   0  0  0  0  0  0  0  0  0  0  0  0
    2.4753   -4.3423    2.9653 C   0  0  0  0  0  0  0  0  0  0  0  0
    1.9452   -5.4533    2.4113 O   0  0  0  0  0  0  0  0  0  0  0  0
    2.4280   -6.7151    2.8395 C   0  0  0  0  0  0  0  0  0  0  0  0
    1.7552   -7.7712    1.9774 C   0  0  0  0  0  0  0  0  0  0  0  0
    2.1223   -3.0883    2.4709 C   0  0  0  0  0  0  0  0  0  0  0  0
    2.9356   -1.8294    3.3460 S   0  0  0  0  0  0  0  0  0  0  0  0
    1.2511   -2.7813    1.3937 C   0  0  0  0  0  0  0  0  0  0  0  0
    0.4568   -3.6325    0.6782 C   0  0  0  0  0  0  0  0  0  0  0  0
   -0.2611   -2.9953   -0.3602 C   0  0  0  0  0  0  0  0  0  0  0  0
   -1.1774   -3.5723   -1.2602 C   0  0  0  0  0  0  0  0  0  0  0  0
   -1.4160   -5.0048   -1.2595 C   0  0  0  0  0  0  0  0  0  0  0  0
   -3.0252   -5.6571   -1.1711 S   0  0  0  0  0  0  0  0  0  0  0  0
   -2.4495   -7.2891   -1.1866 C   0  0  0  0  0  0  0  0  0  0  0  0
   -3.3949   -8.4393   -1.1831 C   0  0  0  0  0  0  0  0  0  0  0  0
   -3.9129   -8.7207   -2.5956 C   0  0  0  0  0  0  0  0  0  0  0  0
   -1.0895   -7.3102   -1.2696 C   0  0  0  0  0  0  0  0  0  0  0  0
   -0.1555   -8.7498   -1.3143 Cl  0  0  0  0  0  0  0  0  0  0  0  0
   -0.4991   -6.0191   -1.3086 C   0  0  0  0  0  0  0  0  0  0  0  0
    1.1913   -5.7875   -1.4917 Cl  0  0  0  0  0  0  0  0  0  0  0  0
   -1.8292   -2.7133   -2.1356 C   0  0  0  0  0  0  0  0  0  0  0  0
   -1.5659   -1.3230   -2.1791 C   0  0  0  0  0  0  0  0  0  0  0  0
   -0.6533   -0.7421   -1.2794 C   0  0  0  0  0  0  0  0  0  0  0  0
   -0.4207    0.6916   -1.2679 C   0  0  0  0  0  0  0  0  0  0  0  0
    1.1914    1.3427   -1.2816 S   0  0  0  0  0  0  0  0  0  0  0  0
    0.6192    2.9756   -1.2657 C   0  0  0  0  0  0  0  0  0  0  0  0
    1.5674    4.1218   -1.2065 C   0  0  0  0  0  0  0  0  0  0  0  0
    2.0426    4.3592    0.2293 C   0  0  0  0  0  0  0  0  0  0  0  0
   -0.7433    2.9993   -1.2415 C   0  0  0  0  0  0  0  0  0  0  0  0
   -1.3364    1.7087   -1.2426 C   0  0  0  0  0  0  0  0  0  0  0  0
   -3.0363    1.4901   -1.1201 Cl  0  0  0  0  0  0  0  0  0  0  0  0
   -1.6782    4.4383   -1.2262 Cl  0  0  0  0  0  0  0  0  0  0  0  0
   -0.0116   -1.5998   -0.3997 C   0  0  0  0  0  0  0  0  0  0  0  0
    1.1269   -1.1259    0.8271 S   0  0  0  0  0  0  0  0  0  0  0  0
   -2.2939   -0.6797   -3.2041 C   0  0  0  0  0  0  0  0  0  0  0  0
   -3.1304   -1.5127   -3.8890 C   0  0  0  0  0  0  0  0  0  0  0  0
   -3.0078   -3.1693   -3.3366 S   0  0  0  0  0  0  0  0  0  0  0  0
   -4.0355   -1.0967   -4.9110 C   0  0  0  0  0  0  0  0  0  0  0  0
   -4.3926    0.1982   -5.1533 C   0  0  0  0  0  0  0  0  0  0  0  0
   -5.2802    0.3485   -6.2415 C   0  0  0  0  0  0  0  0  0  0  0  0
   -5.8441    1.5414   -6.7269 C   0  0  0  0  0  0  0  0  0  0  0  0
   -5.4423    2.8214   -6.1712 C   0  0  0  0  0  0  0  0  0  0  0  0
   -6.6118    3.9761   -5.6046 S   0  0  0  0  0  0  0  0  0  0  0  0
   -5.3855    5.0753   -5.0731 C   0  0  0  0  0  0  0  0  0  0  0  0
   -5.7364    6.3941   -4.4788 C   0  0  0  0  0  0  0  0  0  0  0  0
   -5.9986    7.4315   -5.5732 C   0  0  0  0  0  0  0  0  0  0  0  0
   -4.1476    4.5725   -5.3433 C   0  0  0  0  0  0  0  0  0  0  0  0
   -2.6812    5.3762   -4.9588 Cl  0  0  0  0  0  0  0  0  0  0  0  0
   -4.1750    3.2952   -5.9630 C   0  0  0  0  0  0  0  0  0  0  0  0
   -2.7430    2.4920   -6.4680 Cl  0  0  0  0  0  0  0  0  0  0  0  0
   -6.7923    1.4209   -7.7321 C   0  0  0  0  0  0  0  0  0  0  0  0
   -7.1629    0.1749   -8.2959 C   0  0  0  0  0  0  0  0  0  0  0  0
   -6.5583   -1.0128   -7.8435 C   0  0  0  0  0  0  0  0  0  0  0  0
   -6.9073   -2.3077   -8.4041 C   0  0  0  0  0  0  0  0  0  0  0  0
   -8.5591   -2.8523   -8.4657 S   0  0  0  0  0  0  0  0  0  0  0  0
   -8.1172   -4.3741   -9.1617 C   0  0  0  0  0  0  0  0  0  0  0  0
   -9.1354   -5.4230   -9.4446 C   0  0  0  0  0  0  0  0  0  0  0  0
   -9.3375   -6.3301   -8.2285 C   0  0  0  0  0  0  0  0  0  0  0  0
   -6.7664   -4.4429   -9.3252 C   0  0  0  0  0  0  0  0  0  0  0  0
   -6.0777   -3.2745   -8.9005 C   0  0  0  0  0  0  0  0  0  0  0  0
   -4.3840   -3.0902   -9.0851 Cl  0  0  0  0  0  0  0  0  0  0  0  0
   -5.9543   -5.7989   -9.9921 Cl  0  0  0  0  0  0  0  0  0  0  0  0
   -5.6295   -0.8977   -6.8163 C   0  0  0  0  0  0  0  0  0  0  0  0
   -4.8169   -2.2108   -6.0090 S   0  0  0  0  0  0  0  0  0  0  0  0
   -8.1250    0.3300   -9.3240 C   0  0  0  0  0  0  0  0  0  0  0  0
   -8.4908    1.6273   -9.5422 C   0  0  0  0  0  0  0  0  0  0  0  0
   -7.6434    2.7372   -8.4855 S   0  0  0  0  0  0  0  0  0  0  0  0
   -9.4420    2.1217  -10.4853 C   0  0  0  0  0  0  0  0  0  0  0  0
  -10.2152    1.3937  -11.3573 C   0  0  0  0  0  0  0  0  0  0  0  0
  -11.0640    2.2024  -12.1469 C   0  0  0  0  0  0  0  0  0  0  0  0
  -11.9288    1.8070  -13.1152 O   0  0  0  0  0  0  0  0  0  0  0  0
  -12.2090    0.4256  -13.2398 C   0  0  0  0  0  0  0  0  0  0  0  0
  -13.0833   -0.1027  -12.1069 C   0  0  0  0  0  0  0  0  0  0  0  0
  -10.9231    3.5357  -11.8607 C   0  0  0  0  0  0  0  0  0  0  0  0
   -9.7571    3.8213  -10.6400 S   0  0  0  0  0  0  0  0  0  0  0  0
    9.8217    6.5275   10.9263 H   0  0  0  0  0  0  0  0  0  0  0  0
   10.2911    4.0332   11.4998 H   0  0  0  0  0  0  0  0  0  0  0  0
   12.8414   -1.0259   13.1413 H   0  0  0  0  0  0  0  0  0  0  0  0
   13.6175    0.0123   11.9295 H   0  0  0  0  0  0  0  0  0  0  0  0
   13.2913    1.9889   13.4131 H   0  0  0  0  0  0  0  0  0  0  0  0
   12.5182    0.9576   14.6219 H   0  0  0  0  0  0  0  0  0  0  0  0
   14.2254    0.7308   14.2299 H   0  0  0  0  0  0  0  0  0  0  0  0
    4.0501    7.3066    4.6232 H   0  0  0  0  0  0  0  0  0  0  0  0
    5.8003    7.5605    4.4773 H   0  0  0  0  0  0  0  0  0  0  0  0
    5.9413    5.6012    2.9286 H   0  0  0  0  0  0  0  0  0  0  0  0
    4.8299    6.8287    2.3115 H   0  0  0  0  0  0  0  0  0  0  0  0
    4.1965    5.3655    3.0724 H   0  0  0  0  0  0  0  0  0  0  0  0
    5.7239    1.6350    6.5443 H   0  0  0  0  0  0  0  0  0  0  0  0
    6.8191   -2.8401    7.8924 H   0  0  0  0  0  0  0  0  0  0  0  0
    5.8660   -5.0519    8.2040 H   0  0  0  0  0  0  0  0  0  0  0  0
    7.2015   -5.0814    7.0200 H   0  0  0  0  0  0  0  0  0  0  0  0
    6.1791   -7.0851    5.9358 H   0  0  0  0  0  0  0  0  0  0  0  0
    4.8641   -7.0580    7.1146 H   0  0  0  0  0  0  0  0  0  0  0  0
    6.5189   -7.3934    7.6455 H   0  0  0  0  0  0  0  0  0  0  0  0
    3.7926   -5.1225    4.5498 H   0  0  0  0  0  0  0  0  0  0  0  0
    2.1847   -6.8688    3.8998 H   0  0  0  0  0  0  0  0  0  0  0  0
    3.5186   -6.7581    2.7196 H   0  0  0  0  0  0  0  0  0  0  0  0
    1.9840   -7.5943    0.9301 H   0  0  0  0  0  0  0  0  0  0  0  0
    0.6769   -7.7273    2.1067 H   0  0  0  0  0  0  0  0  0  0  0  0
    2.1074   -8.7597    2.2573 H   0  0  0  0  0  0  0  0  0  0  0  0
    0.3820   -4.6761    0.9119 H   0  0  0  0  0  0  0  0  0  0  0  0
   -4.2371   -8.2147   -0.5263 H   0  0  0  0  0  0  0  0  0  0  0  0
   -2.8757   -9.3197   -0.7999 H   0  0  0  0  0  0  0  0  0  0  0  0
   -4.4285   -7.8474   -2.9879 H   0  0  0  0  0  0  0  0  0  0  0  0
   -4.6044   -9.5588   -2.5802 H   0  0  0  0  0  0  0  0  0  0  0  0
   -3.0862   -8.9626   -3.2586 H   0  0  0  0  0  0  0  0  0  0  0  0
    2.4291    3.9137   -1.8431 H   0  0  0  0  0  0  0  0  0  0  0  0
    1.0628    5.0146   -1.5800 H   0  0  0  0  0  0  0  0  0  0  0  0
    2.7395    5.1927    0.2595 H   0  0  0  0  0  0  0  0  0  0  0  0
    2.5408    3.4715    0.6120 H   0  0  0  0  0  0  0  0  0  0  0  0
    1.1970    4.5874    0.8732 H   0  0  0  0  0  0  0  0  0  0  0  0
   -2.1790    0.3593   -3.4459 H   0  0  0  0  0  0  0  0  0  0  0  0
   -4.0631    1.0174   -4.5438 H   0  0  0  0  0  0  0  0  0  0  0  0
   -6.6282    6.2870   -3.8589 H   0  0  0  0  0  0  0  0  0  0  0  0
   -4.9090    6.7256   -3.8487 H   0  0  0  0  0  0  0  0  0  0  0  0
   -6.8210    7.1096   -6.2075 H   0  0  0  0  0  0  0  0  0  0  0  0
   -6.2538    8.3887   -5.1268 H   0  0  0  0  0  0  0  0  0  0  0  0
   -5.1130    7.5594   -6.1906 H   0  0  0  0  0  0  0  0  0  0  0  0
   -8.7961   -6.0215  -10.2924 H   0  0  0  0  0  0  0  0  0  0  0  0
  -10.0824   -4.9479   -9.7059 H   0  0  0  0  0  0  0  0  0  0  0  0
   -9.6766   -5.7476   -7.3752 H   0  0  0  0  0  0  0  0  0  0  0  0
   -8.4036   -6.8199   -7.9657 H   0  0  0  0  0  0  0  0  0  0  0  0
  -10.0807   -7.0914   -8.4500 H   0  0  0  0  0  0  0  0  0  0  0  0
   -8.5255   -0.4951   -9.8822 H   0  0  0  0  0  0  0  0  0  0  0  0
  -10.1603    0.3229  -11.4168 H   0  0  0  0  0  0  0  0  0  0  0  0
  -11.2779   -0.1503  -13.3142 H   0  0  0  0  0  0  0  0  0  0  0  0
  -12.7410    0.3456  -14.1914 H   0  0  0  0  0  0  0  0  0  0  0  0
  -12.5750   -0.0131  -11.1496 H   0  0  0  0  0  0  0  0  0  0  0  0
  -14.0082    0.4665  -12.0597 H   0  0  0  0  0  0  0  0  0  0  0  0
  -13.3199   -1.1482  -12.2839 H   0  0  0  0  0  0  0  0  0  0  0  0
  -11.4414    4.3523  -12.3189 H   0  0  0  0  0  0  0  0  0  0  0  0
  1  2  2  0  0  0  0
  2  3  1  0  0  0  0
  3  4  2  0  0  0  0
  4  5  1  0  0  0  0
  5  6  1  0  0  0  0
  6  7  1  0  0  0  0
  7  8  1  0  0  0  0
  8  9  1  0  0  0  0
  7 10  2  0  0  0  0
 10 11  1  0  0  0  0
 10 12  1  0  0  0  0
 12 13  1  0  0  0  0
  4 14  1  0  0  0  0
 14 15  2  0  0  0  0
 15 16  1  0  0  0  0
 16 17  1  0  0  0  0
 17 18  1  0  0  0  0
 18 19  1  0  0  0  0
 19 20  1  0  0  0  0
 20 21  1  0  0  0  0
 19 22  2  0  0  0  0
 22 23  1  0  0  0  0
 23 24  1  0  0  0  0
 22 25  1  0  0  0  0
 16 26  2  0  0  0  0
 26 27  1  0  0  0  0
 15 28  1  0  0  0  0
 28 29  2  0  0  0  0
 29 30  1  0  0  0  0
 29 31  1  0  0  0  0
 31 32  2  0  0  0  0
 32 33  1  0  0  0  0
 33 34  1  0  0  0  0
 34 35  1  0  0  0  0
 35 36  1  0  0  0  0
 33 37  2  0  0  0  0
 37 38  1  0  0  0  0
 37 39  1  0  0  0  0
 39 40  2  0  0  0  0
 40 41  1  0  0  0  0
 41 42  1  0  0  0  0
 42 43  1  0  0  0  0
 43 44  1  0  0  0  0
 41 45  2  0  0  0  0
 45 46  1  0  0  0  0
 45 47  1  0  0  0  0
 47 48  2  0  0  0  0
 48 49  1  0  0  0  0
 49 50  2  0  0  0  0
 50 51  1  0  0  0  0
 51 52  1  0  0  0  0
 52 53  1  0  0  0  0
 53 54  1  0  0  0  0
 54 55  1  0  0  0  0
 53 56  2  0  0  0  0
 56 57  1  0  0  0  0
 56 58  1  0  0  0  0
 58 59  1  0  0  0  0
 50 60  1  0  0  0  0
 60 61  2  0  0  0  0
 61 62  1  0  0  0  0
 62 63  1  0  0  0  0
 63 64  1  0  0  0  0
 64 65  1  0  0  0  0
 65 66  1  0  0  0  0
 66 67  1  0  0  0  0
 65 68  2  0  0  0  0
 68 69  1  0  0  0  0
 69 70  1  0  0  0  0
 68 71  1  0  0  0  0
 62 72  2  0  0  0  0
 72 73  1  0  0  0  0
 61 74  1  0  0  0  0
 74 75  2  0  0  0  0
 75 76  1  0  0  0  0
 75 77  1  0  0  0  0
 77 78  2  0  0  0  0
 78 79  1  0  0  0  0
 79 80  2  0  0  0  0
 80 81  1  0  0  0  0
 81 82  1  0  0  0  0
 82 83  1  0  0  0  0
 83 84  1  0  0  0  0
 84 85  1  0  0  0  0
 83 86  2  0  0  0  0
 86 87  1  0  0  0  0
 86 88  1  0  0  0  0
 88 89  1  0  0  0  0
 80 90  1  0  0  0  0
 90 91  2  0  0  0  0
 91 92  1  0  0  0  0
 92 93  1  0  0  0  0
 93 94  1  0  0  0  0
 94 95  1  0  0  0  0
 95 96  1  0  0  0  0
 96 97  1  0  0  0  0
 95 98  2  0  0  0  0
 98 99  1  0  0  0  0
 99100  1  0  0  0  0
 98101  1  0  0  0  0
 92102  2  0  0  0  0
102103  1  0  0  0  0
 91104  1  0  0  0  0
104105  2  0  0  0  0
105106  1  0  0  0  0
105107  1  0  0  0  0
107108  2  0  0  0  0
108109  1  0  0  0  0
109110  1  0  0  0  0
110111  1  0  0  0  0
111112  1  0  0  0  0
109113  2  0  0  0  0
113114  1  0  0  0  0
 27  1  1  0  0  0  0
 38 31  1  0  0  0  0
 46 39  1  0  0  0  0
 73 47  1  0  0  0  0
103 77  1  0  0  0  0
114107  1  0  0  0  0
 26  3  1  0  0  0  0
 72 49  1  0  0  0  0
102 79  1  0  0  0  0
 12  5  2  0  0  0  0
 30 14  1  0  0  0  0
 58 51  2  0  0  0  0
 76 60  1  0  0  0  0
 88 81  2  0  0  0  0
106 90  1  0  0  0  0
 23 17  2  0  0  0  0
 69 63  2  0  0  0  0
 99 93  2  0  0  0  0
  1115  1  0  0  0  0
  2116  1  0  0  0  0
  8117  1  0  0  0  0
  8118  1  0  0  0  0
  9119  1  0  0  0  0
  9120  1  0  0  0  0
  9121  1  0  0  0  0
 20122  1  0  0  0  0
 20123  1  0  0  0  0
 21124  1  0  0  0  0
 21125  1  0  0  0  0
 21126  1  0  0  0  0
 28127  1  0  0  0  0
 32128  1  0  0  0  0
 35129  1  0  0  0  0
 35130  1  0  0  0  0
 36131  1  0  0  0  0
 36132  1  0  0  0  0
 36133  1  0  0  0  0
 40134  1  0  0  0  0
 43135  1  0  0  0  0
 43136  1  0  0  0  0
 44137  1  0  0  0  0
 44138  1  0  0  0  0
 44139  1  0  0  0  0
 48140  1  0  0  0  0
 54141  1  0  0  0  0
 54142  1  0  0  0  0
 55143  1  0  0  0  0
 55144  1  0  0  0  0
 55145  1  0  0  0  0
 66146  1  0  0  0  0
 66147  1  0  0  0  0
 67148  1  0  0  0  0
 67149  1  0  0  0  0
 67150  1  0  0  0  0
 74151  1  0  0  0  0
 78152  1  0  0  0  0
 84153  1  0  0  0  0
 84154  1  0  0  0  0
 85155  1  0  0  0  0
 85156  1  0  0  0  0
 85157  1  0  0  0  0
 96158  1  0  0  0  0
 96159  1  0  0  0  0
 97160  1  0  0  0  0
 97161  1  0  0  0  0
 97162  1  0  0  0  0
104163  1  0  0  0  0
108164  1  0  0  0  0
111165  1  0  0  0  0
111166  1  0  0  0  0
112167  1  0  0  0  0
112168  1  0  0  0  0
112169  1  0  0  0  0
113170  1  0  0  0  0
M  END
