
  xtb     03012200363D
 energy: -324.163171411282 gnorm: 0.000214429995 xtb: 6.4.1 (unknown)
170187  0     0  0            999 V2000
   13.9110   -3.5173    9.3552 C   0  0  0  0  0  0  0  0  0  0  0  0
   13.2593   -2.3946    9.7593 C   0  0  0  0  0  0  0  0  0  0  0  0
   11.9609   -2.2868    9.2058 C   0  0  0  0  0  0  0  0  0  0  0  0
   11.0506   -1.3077    9.4291 O   0  0  0  0  0  0  0  0  0  0  0  0
   11.4710   -0.1228   10.0813 C   0  0  0  0  0  0  0  0  0  0  0  0
   12.3318    0.7619    9.1862 C   0  0  0  0  0  0  0  0  0  0  0  0
   11.6521   -3.3532    8.3729 C   0  0  0  0  0  0  0  0  0  0  0  0
   12.9737   -4.4792    8.2949 S   0  0  0  0  0  0  0  0  0  0  0  0
   10.4488   -3.5730    7.6410 C   0  0  0  0  0  0  0  0  0  0  0  0
    9.3252   -2.7987    7.6304 C   0  0  0  0  0  0  0  0  0  0  0  0
    8.3108   -3.2858    6.7730 C   0  0  0  0  0  0  0  0  0  0  0  0
    7.0701   -2.6925    6.4842 C   0  0  0  0  0  0  0  0  0  0  0  0
    6.6575   -1.4656    7.1468 C   0  0  0  0  0  0  0  0  0  0  0  0
    6.6161   -1.3574    8.8815 S   0  0  0  0  0  0  0  0  0  0  0  0
    6.0725    0.2862    8.8454 C   0  0  0  0  0  0  0  0  0  0  0  0
    5.8753    1.0552   10.1051 C   0  0  0  0  0  0  0  0  0  0  0  0
    7.2199    1.4302   10.7319 C   0  0  0  0  0  0  0  0  0  0  0  0
    5.9406    0.7113    7.5579 C   0  0  0  0  0  0  0  0  0  0  0  0
    5.4341    2.2903    7.1153 Cl  0  0  0  0  0  0  0  0  0  0  0  0
    6.2651   -0.2800    6.5921 C   0  0  0  0  0  0  0  0  0  0  0  0
    6.2428    0.0378    4.9082 Cl  0  0  0  0  0  0  0  0  0  0  0  0
    6.2733   -3.3216    5.5379 C   0  0  0  0  0  0  0  0  0  0  0  0
    6.6579   -4.5138    4.8750 C   0  0  0  0  0  0  0  0  0  0  0  0
    7.8912   -5.1191    5.1799 C   0  0  0  0  0  0  0  0  0  0  0  0
    8.3183   -6.3468    4.5292 C   0  0  0  0  0  0  0  0  0  0  0  0
    8.3766   -6.4818    2.7955 S   0  0  0  0  0  0  0  0  0  0  0  0
    8.9870   -8.1012    2.8603 C   0  0  0  0  0  0  0  0  0  0  0  0
    9.2313   -8.8836    1.6173 C   0  0  0  0  0  0  0  0  0  0  0  0
    7.9231   -9.4502    1.0609 C   0  0  0  0  0  0  0  0  0  0  0  0
    9.1205   -8.5021    4.1552 C   0  0  0  0  0  0  0  0  0  0  0  0
    8.7497   -7.5099    5.1033 C   0  0  0  0  0  0  0  0  0  0  0  0
    8.7694   -7.8033    6.7911 Cl  0  0  0  0  0  0  0  0  0  0  0  0
    9.6857  -10.0527    4.6241 Cl  0  0  0  0  0  0  0  0  0  0  0  0
    8.6931   -4.4828    6.1180 C   0  0  0  0  0  0  0  0  0  0  0  0
   10.2976   -4.9659    6.5877 S   0  0  0  0  0  0  0  0  0  0  0  0
    5.6684   -4.9529    3.9634 C   0  0  0  0  0  0  0  0  0  0  0  0
    4.5704   -4.1403    3.9148 C   0  0  0  0  0  0  0  0  0  0  0  0
    4.6960   -2.7967    5.0299 S   0  0  0  0  0  0  0  0  0  0  0  0
    3.4425   -4.2368    3.0495 C   0  0  0  0  0  0  0  0  0  0  0  0
    3.2450   -5.1290    2.0183 C   0  0  0  0  0  0  0  0  0  0  0  0
    2.0691   -4.8854    1.2893 C   0  0  0  0  0  0  0  0  0  0  0  0
    1.6180   -5.5530    0.2024 O   0  0  0  0  0  0  0  0  0  0  0  0
    2.1778   -6.8194   -0.0995 C   0  0  0  0  0  0  0  0  0  0  0  0
    1.7703   -7.8930    0.9026 C   0  0  0  0  0  0  0  0  0  0  0  0
    1.3496   -3.7990    1.7806 C   0  0  0  0  0  0  0  0  0  0  0  0
    2.1455   -3.0924    3.1497 S   0  0  0  0  0  0  0  0  0  0  0  0
    0.1562   -3.2358    1.2502 C   0  0  0  0  0  0  0  0  0  0  0  0
   -0.3890   -3.4541    0.0172 C   0  0  0  0  0  0  0  0  0  0  0  0
   -1.5463   -2.6815   -0.2327 C   0  0  0  0  0  0  0  0  0  0  0  0
   -2.2815   -2.5930   -1.4299 C   0  0  0  0  0  0  0  0  0  0  0  0
   -2.0180   -3.5025   -2.5286 C   0  0  0  0  0  0  0  0  0  0  0  0
   -1.8224   -2.9416   -4.1630 S   0  0  0  0  0  0  0  0  0  0  0  0
   -1.5654   -4.5432   -4.7661 C   0  0  0  0  0  0  0  0  0  0  0  0
   -1.2682   -4.7881   -6.2042 C   0  0  0  0  0  0  0  0  0  0  0  0
    0.2246   -4.6142   -6.4939 C   0  0  0  0  0  0  0  0  0  0  0  0
   -1.6250   -5.4474   -3.7481 C   0  0  0  0  0  0  0  0  0  0  0  0
   -1.4157   -7.1380   -3.9569 Cl  0  0  0  0  0  0  0  0  0  0  0  0
   -1.8884   -4.8651   -2.4804 C   0  0  0  0  0  0  0  0  0  0  0  0
   -2.1086   -5.8121   -1.0673 Cl  0  0  0  0  0  0  0  0  0  0  0  0
   -3.2427   -1.5928   -1.5025 C   0  0  0  0  0  0  0  0  0  0  0  0
   -3.5777   -0.7646   -0.4030 C   0  0  0  0  0  0  0  0  0  0  0  0
   -2.9101   -0.9222    0.8262 C   0  0  0  0  0  0  0  0  0  0  0  0
   -3.2523   -0.1291    1.9945 C   0  0  0  0  0  0  0  0  0  0  0  0
   -3.3237    1.6083    1.9413 S   0  0  0  0  0  0  0  0  0  0  0  0
   -3.7284    1.7259    3.6211 C   0  0  0  0  0  0  0  0  0  0  0  0
   -4.0002    3.0447    4.2562 C   0  0  0  0  0  0  0  0  0  0  0  0
   -5.3876    3.5632    3.8714 C   0  0  0  0  0  0  0  0  0  0  0  0
   -3.8073    0.4835    4.1739 C   0  0  0  0  0  0  0  0  0  0  0  0
   -3.5308   -0.5688    3.2591 C   0  0  0  0  0  0  0  0  0  0  0  0
   -3.6320   -2.2198    3.7046 Cl  0  0  0  0  0  0  0  0  0  0  0  0
   -4.1998    0.1888    5.8179 Cl  0  0  0  0  0  0  0  0  0  0  0  0
   -1.8803   -1.8523    0.8670 C   0  0  0  0  0  0  0  0  0  0  0  0
   -0.7667   -2.0761    2.1849 S   0  0  0  0  0  0  0  0  0  0  0  0
   -4.5895    0.1676   -0.7326 C   0  0  0  0  0  0  0  0  0  0  0  0
   -4.9923    0.0995   -2.0362 C   0  0  0  0  0  0  0  0  0  0  0  0
   -4.1823   -1.1841   -2.9098 S   0  0  0  0  0  0  0  0  0  0  0  0
   -5.8881    0.9809   -2.7079 C   0  0  0  0  0  0  0  0  0  0  0  0
   -6.7159    1.9237   -2.1402 C   0  0  0  0  0  0  0  0  0  0  0  0
   -7.3895    2.7078   -3.0907 C   0  0  0  0  0  0  0  0  0  0  0  0
   -8.2828    3.7006   -2.8877 O   0  0  0  0  0  0  0  0  0  0  0  0
   -8.4364    4.2266   -1.5827 C   0  0  0  0  0  0  0  0  0  0  0  0
   -7.2450    5.0752   -1.1528 C   0  0  0  0  0  0  0  0  0  0  0  0
   -7.0664    2.3670   -4.3987 C   0  0  0  0  0  0  0  0  0  0  0  0
   -5.9509    1.0397   -4.4417 S   0  0  0  0  0  0  0  0  0  0  0  0
   -7.5002    3.0325   -5.5742 C   0  0  0  0  0  0  0  0  0  0  0  0
   -7.1519    2.7541   -6.8653 C   0  0  0  0  0  0  0  0  0  0  0  0
   -7.6887    3.6684   -7.8018 C   0  0  0  0  0  0  0  0  0  0  0  0
   -7.4888    3.7076   -9.1921 C   0  0  0  0  0  0  0  0  0  0  0  0
   -6.6377    2.7372   -9.8612 C   0  0  0  0  0  0  0  0  0  0  0  0
   -4.9967    2.4752   -9.3451 S   0  0  0  0  0  0  0  0  0  0  0  0
   -4.7091    1.3013  -10.5837 C   0  0  0  0  0  0  0  0  0  0  0  0
   -3.3744    0.6615  -10.7446 C   0  0  0  0  0  0  0  0  0  0  0  0
   -2.4323    1.5565  -11.5530 C   0  0  0  0  0  0  0  0  0  0  0  0
   -5.8252    1.1389  -11.3477 C   0  0  0  0  0  0  0  0  0  0  0  0
   -5.9262    0.0560  -12.6750 Cl  0  0  0  0  0  0  0  0  0  0  0  0
   -6.9208    1.9472  -10.9400 C   0  0  0  0  0  0  0  0  0  0  0  0
   -8.4583    1.8541  -11.6908 Cl  0  0  0  0  0  0  0  0  0  0  0  0
   -8.1045    4.7404   -9.8898 C   0  0  0  0  0  0  0  0  0  0  0  0
   -8.9102    5.7206   -9.2631 C   0  0  0  0  0  0  0  0  0  0  0  0
   -9.1243    5.6693   -7.8773 C   0  0  0  0  0  0  0  0  0  0  0  0
   -9.9265    6.6681   -7.1874 C   0  0  0  0  0  0  0  0  0  0  0  0
   -9.5605    8.3639   -7.3122 S   0  0  0  0  0  0  0  0  0  0  0  0
  -10.8375    8.8019   -6.2284 C   0  0  0  0  0  0  0  0  0  0  0  0
  -11.0595   10.2187   -5.8279 C   0  0  0  0  0  0  0  0  0  0  0  0
  -10.1324   10.6110   -4.6750 C   0  0  0  0  0  0  0  0  0  0  0  0
  -11.4947    7.6880   -5.8009 C   0  0  0  0  0  0  0  0  0  0  0  0
  -10.9842    6.4776   -6.3435 C   0  0  0  0  0  0  0  0  0  0  0  0
  -11.6929    4.9528   -6.0155 Cl  0  0  0  0  0  0  0  0  0  0  0  0
  -12.8238    7.7198   -4.7161 Cl  0  0  0  0  0  0  0  0  0  0  0  0
   -8.5034    4.6443   -7.1749 C   0  0  0  0  0  0  0  0  0  0  0  0
   -8.5476    4.4267   -5.4472 S   0  0  0  0  0  0  0  0  0  0  0  0
   -9.4026    6.6743  -10.2012 C   0  0  0  0  0  0  0  0  0  0  0  0
   -8.9681    6.4455  -11.4571 C   0  0  0  0  0  0  0  0  0  0  0  0
   -7.9492    5.0554  -11.5951 S   0  0  0  0  0  0  0  0  0  0  0  0
   14.8973   -3.8350    9.6279 H   0  0  0  0  0  0  0  0  0  0  0  0
   13.6972   -1.6797   10.4316 H   0  0  0  0  0  0  0  0  0  0  0  0
   10.5377    0.3906   10.3285 H   0  0  0  0  0  0  0  0  0  0  0  0
   11.9930   -0.3607   11.0159 H   0  0  0  0  0  0  0  0  0  0  0  0
   11.7901    1.0020    8.2746 H   0  0  0  0  0  0  0  0  0  0  0  0
   12.5748    1.6839    9.7068 H   0  0  0  0  0  0  0  0  0  0  0  0
   13.2553    0.2559    8.9142 H   0  0  0  0  0  0  0  0  0  0  0  0
    9.2393   -1.9022    8.2120 H   0  0  0  0  0  0  0  0  0  0  0  0
    5.3081    1.9588    9.8766 H   0  0  0  0  0  0  0  0  0  0  0  0
    5.3029    0.4532   10.8138 H   0  0  0  0  0  0  0  0  0  0  0  0
    7.0625    1.9890   11.6505 H   0  0  0  0  0  0  0  0  0  0  0  0
    7.7972    2.0442   10.0446 H   0  0  0  0  0  0  0  0  0  0  0  0
    7.7885    0.5316   10.9615 H   0  0  0  0  0  0  0  0  0  0  0  0
    9.6953   -8.2404    0.8672 H   0  0  0  0  0  0  0  0  0  0  0  0
    9.9158   -9.7008    1.8499 H   0  0  0  0  0  0  0  0  0  0  0  0
    7.4501  -10.0968    1.7958 H   0  0  0  0  0  0  0  0  0  0  0  0
    8.1182  -10.0287    0.1620 H   0  0  0  0  0  0  0  0  0  0  0  0
    7.2381   -8.6422    0.8144 H   0  0  0  0  0  0  0  0  0  0  0  0
    5.7717   -5.8373    3.3633 H   0  0  0  0  0  0  0  0  0  0  0  0
    3.9479   -5.9096    1.7946 H   0  0  0  0  0  0  0  0  0  0  0  0
    3.2699   -6.7478   -0.1761 H   0  0  0  0  0  0  0  0  0  0  0  0
    1.7752   -7.0571   -1.0876 H   0  0  0  0  0  0  0  0  0  0  0  0
    2.1456   -7.6591    1.8963 H   0  0  0  0  0  0  0  0  0  0  0  0
    0.6861   -7.9586    0.9499 H   0  0  0  0  0  0  0  0  0  0  0  0
    2.1694   -8.8544    0.5917 H   0  0  0  0  0  0  0  0  0  0  0  0
    0.0659   -4.1070   -0.7016 H   0  0  0  0  0  0  0  0  0  0  0  0
   -1.8407   -4.0878   -6.8146 H   0  0  0  0  0  0  0  0  0  0  0  0
   -1.5735   -5.8052   -6.4572 H   0  0  0  0  0  0  0  0  0  0  0  0
    0.5415   -3.6049   -6.2424 H   0  0  0  0  0  0  0  0  0  0  0  0
    0.8069   -5.3187   -5.9056 H   0  0  0  0  0  0  0  0  0  0  0  0
    0.4237   -4.7915   -7.5473 H   0  0  0  0  0  0  0  0  0  0  0  0
   -3.2442    3.7652    3.9381 H   0  0  0  0  0  0  0  0  0  0  0  0
   -3.9381    2.9275    5.3392 H   0  0  0  0  0  0  0  0  0  0  0  0
   -6.1539    2.8604    4.1890 H   0  0  0  0  0  0  0  0  0  0  0  0
   -5.4555    3.6906    2.7934 H   0  0  0  0  0  0  0  0  0  0  0  0
   -5.5745    4.5213    4.3487 H   0  0  0  0  0  0  0  0  0  0  0  0
   -4.9746    0.8893   -0.0375 H   0  0  0  0  0  0  0  0  0  0  0  0
   -6.8242    2.0262   -1.0766 H   0  0  0  0  0  0  0  0  0  0  0  0
   -9.3354    4.8443   -1.6487 H   0  0  0  0  0  0  0  0  0  0  0  0
   -8.6197    3.4171   -0.8655 H   0  0  0  0  0  0  0  0  0  0  0  0
   -7.4361    5.5051   -0.1736 H   0  0  0  0  0  0  0  0  0  0  0  0
   -6.3385    4.4757   -1.1048 H   0  0  0  0  0  0  0  0  0  0  0  0
   -7.0892    5.8786   -1.8685 H   0  0  0  0  0  0  0  0  0  0  0  0
   -6.5220    1.9226   -7.1241 H   0  0  0  0  0  0  0  0  0  0  0  0
   -2.9417    0.4742   -9.7602 H   0  0  0  0  0  0  0  0  0  0  0  0
   -3.5041   -0.2926  -11.2589 H   0  0  0  0  0  0  0  0  0  0  0  0
   -2.2906    2.5084  -11.0467 H   0  0  0  0  0  0  0  0  0  0  0  0
   -2.8473    1.7459  -12.5396 H   0  0  0  0  0  0  0  0  0  0  0  0
   -1.4653    1.0741  -11.6680 H   0  0  0  0  0  0  0  0  0  0  0  0
  -10.8724   10.8716   -6.6822 H   0  0  0  0  0  0  0  0  0  0  0  0
  -12.0994   10.3357   -5.5175 H   0  0  0  0  0  0  0  0  0  0  0  0
  -10.3134    9.9729   -3.8137 H   0  0  0  0  0  0  0  0  0  0  0  0
   -9.0926   10.5041   -4.9748 H   0  0  0  0  0  0  0  0  0  0  0  0
  -10.3095   11.6439   -4.3875 H   0  0  0  0  0  0  0  0  0  0  0  0
  -10.0500    7.4891   -9.9340 H   0  0  0  0  0  0  0  0  0  0  0  0
   -9.1855    7.0098  -12.3427 H   0  0  0  0  0  0  0  0  0  0  0  0
  1  2  2  0  0  0  0
  2  3  1  0  0  0  0
  3  4  1  0  0  0  0
  4  5  1  0  0  0  0
  5  6  1  0  0  0  0
  3  7  2  0  0  0  0
  7  8  1  0  0  0  0
  7  9  1  0  0  0  0
  9 10  2  0  0  0  0
 10 11  1  0  0  0  0
 11 12  2  0  0  0  0
 12 13  1  0  0  0  0
 13 14  1  0  0  0  0
 14 15  1  0  0  0  0
 15 16  1  0  0  0  0
 16 17  1  0  0  0  0
 15 18  2  0  0  0  0
 18 19  1  0  0  0  0
 18 20  1  0  0  0  0
 20 21  1  0  0  0  0
 12 22  1  0  0  0  0
 22 23  2  0  0  0  0
 23 24  1  0  0  0  0
 24 25  1  0  0  0  0
 25 26  1  0  0  0  0
 26 27  1  0  0  0  0
 27 28  1  0  0  0  0
 28 29  1  0  0  0  0
 27 30  2  0  0  0  0
 30 31  1  0  0  0  0
 31 32  1  0  0  0  0
 30 33  1  0  0  0  0
 24 34  2  0  0  0  0
 34 35  1  0  0  0  0
 23 36  1  0  0  0  0
 36 37  2  0  0  0  0
 37 38  1  0  0  0  0
 37 39  1  0  0  0  0
 39 40  2  0  0  0  0
 40 41  1  0  0  0  0
 41 42  1  0  0  0  0
 42 43  1  0  0  0  0
 43 44  1  0  0  0  0
 41 45  2  0  0  0  0
 45 46  1  0  0  0  0
 45 47  1  0  0  0  0
 47 48  2  0  0  0  0
 48 49  1  0  0  0  0
 49 50  2  0  0  0  0
 50 51  1  0  0  0  0
 51 52  1  0  0  0  0
 52 53  1  0  0  0  0
 53 54  1  0  0  0  0
 54 55  1  0  0  0  0
 53 56  2  0  0  0  0
 56 57  1  0  0  0  0
 56 58  1  0  0  0  0
 58 59  1  0  0  0  0
 50 60  1  0  0  0  0
 60 61  2  0  0  0  0
 61 62  1  0  0  0  0
 62 63  1  0  0  0  0
 63 64  1  0  0  0  0
 64 65  1  0  0  0  0
 65 66  1  0  0  0  0
 66 67  1  0  0  0  0
 65 68  2  0  0  0  0
 68 69  1  0  0  0  0
 69 70  1  0  0  0  0
 68 71  1  0  0  0  0
 62 72  2  0  0  0  0
 72 73  1  0  0  0  0
 61 74  1  0  0  0  0
 74 75  2  0  0  0  0
 75 76  1  0  0  0  0
 75 77  1  0  0  0  0
 77 78  2  0  0  0  0
 78 79  1  0  0  0  0
 79 80  1  0  0  0  0
 80 81  1  0  0  0  0
 81 82  1  0  0  0  0
 79 83  2  0  0  0  0
 83 84  1  0  0  0  0
 83 85  1  0  0  0  0
 85 86  2  0  0  0  0
 86 87  1  0  0  0  0
 87 88  2  0  0  0  0
 88 89  1  0  0  0  0
 89 90  1  0  0  0  0
 90 91  1  0  0  0  0
 91 92  1  0  0  0  0
 92 93  1  0  0  0  0
 91 94  2  0  0  0  0
 94 95  1  0  0  0  0
 94 96  1  0  0  0  0
 96 97  1  0  0  0  0
 88 98  1  0  0  0  0
 98 99  2  0  0  0  0
 99100  1  0  0  0  0
100101  1  0  0  0  0
101102  1  0  0  0  0
102103  1  0  0  0  0
103104  1  0  0  0  0
104105  1  0  0  0  0
103106  2  0  0  0  0
106107  1  0  0  0  0
107108  1  0  0  0  0
106109  1  0  0  0  0
100110  2  0  0  0  0
110111  1  0  0  0  0
 99112  1  0  0  0  0
112113  2  0  0  0  0
113114  1  0  0  0  0
  8  1  1  0  0  0  0
 35  9  1  0  0  0  0
 46 39  1  0  0  0  0
 73 47  1  0  0  0  0
 84 77  1  0  0  0  0
111 85  1  0  0  0  0
 34 11  1  0  0  0  0
 72 49  1  0  0  0  0
110 87  1  0  0  0  0
 20 13  2  0  0  0  0
 38 22  1  0  0  0  0
 58 51  2  0  0  0  0
 76 60  1  0  0  0  0
 96 89  2  0  0  0  0
114 98  1  0  0  0  0
 31 25  2  0  0  0  0
 69 63  2  0  0  0  0
107101  2  0  0  0  0
  1115  1  0  0  0  0
  2116  1  0  0  0  0
  5117  1  0  0  0  0
  5118  1  0  0  0  0
  6119  1  0  0  0  0
  6120  1  0  0  0  0
  6121  1  0  0  0  0
 10122  1  0  0  0  0
 16123  1  0  0  0  0
 16124  1  0  0  0  0
 17125  1  0  0  0  0
 17126  1  0  0  0  0
 17127  1  0  0  0  0
 28128  1  0  0  0  0
 28129  1  0  0  0  0
 29130  1  0  0  0  0
 29131  1  0  0  0  0
 29132  1  0  0  0  0
 36133  1  0  0  0  0
 40134  1  0  0  0  0
 43135  1  0  0  0  0
 43136  1  0  0  0  0
 44137  1  0  0  0  0
 44138  1  0  0  0  0
 44139  1  0  0  0  0
 48140  1  0  0  0  0
 54141  1  0  0  0  0
 54142  1  0  0  0  0
 55143  1  0  0  0  0
 55144  1  0  0  0  0
 55145  1  0  0  0  0
 66146  1  0  0  0  0
 66147  1  0  0  0  0
 67148  1  0  0  0  0
 67149  1  0  0  0  0
 67150  1  0  0  0  0
 74151  1  0  0  0  0
 78152  1  0  0  0  0
 81153  1  0  0  0  0
 81154  1  0  0  0  0
 82155  1  0  0  0  0
 82156  1  0  0  0  0
 82157  1  0  0  0  0
 86158  1  0  0  0  0
 92159  1  0  0  0  0
 92160  1  0  0  0  0
 93161  1  0  0  0  0
 93162  1  0  0  0  0
 93163  1  0  0  0  0
104164  1  0  0  0  0
104165  1  0  0  0  0
105166  1  0  0  0  0
105167  1  0  0  0  0
105168  1  0  0  0  0
112169  1  0  0  0  0
113170  1  0  0  0  0
M  END
