86

C          2.75820        5.13270        7.86580
C          3.46140        4.83780        6.74110
C          2.69990        4.11210        5.78860
O          3.11700        3.60440        4.63360
C          4.44540        3.87150        4.20770
C          4.62380        3.22920        2.84400
C          1.39550        3.88870        6.22710
S          1.15490        4.53910        7.82640
C          0.36430        3.19960        5.54560
S         -0.88040        2.34910        6.43710
C         -1.63150        1.70520        4.99350
C         -0.95900        2.18380        3.89600
C          0.14810        3.02020        4.19530
C          0.67820        3.51580        2.93590
O          1.51940        4.31860        2.66650
O         -0.07370        2.90240        1.92710
C         -1.07760        2.12470        2.43990
O         -1.86230        1.55180        1.73360
C         -2.79300        0.86750        5.10720
C         -3.09670       -0.18680        4.32640
C         -2.25290       -0.77480        3.32650
C         -2.67880       -1.42390        2.18690
C         -1.62250       -1.82890        1.36030
O         -1.67620       -2.43420        0.16090
C         -2.95820       -2.77060       -0.35320
C         -2.76210       -3.48560       -1.67910
C         -0.37360       -1.51110        1.89880
S         -0.52770       -0.74970        3.44890
C          0.87010       -1.64220        1.25910
S          1.02100       -2.43530       -0.29150
C          2.73910       -2.06250       -0.42860
C          3.13260       -1.39090        0.70600
C          2.09920       -1.13920        1.63790
C          2.64820       -0.33610        2.71200
O          2.13690        0.14330        3.68560
O          3.99290       -0.15790        2.42080
C          4.34740       -0.76800        1.22810
O          5.46160       -0.73080        0.79830
C          3.58870       -2.48170       -1.49710
C          3.23680       -2.84090       -2.74980
C          1.93550       -2.68580       -3.33280
C          1.05010       -1.64890       -3.12710
C         -0.15540       -1.81560       -3.81440
O         -1.24560       -1.02960       -3.78520
C         -1.30520       -0.01800       -2.78310
C         -2.71320        0.55020       -2.77840
C         -0.17950       -2.98330       -4.58200
S          1.31680       -3.85590       -4.45510
C         -1.27740       -3.44060       -5.33490
S         -2.79260       -2.56240       -5.36350
C         -3.56630       -3.74270       -6.41040
C         -2.66920       -4.73920       -6.70210
C         -1.39660       -4.57630       -6.10760
C         -0.56740       -5.69850       -6.50880
O          0.56860       -5.97030       -6.24370
O         -1.35490       -6.49680       -7.32410
C         -2.62760       -5.97870       -7.48000
O         -3.46400       -6.51610       -8.14260
C         -4.92230       -3.63340       -6.85730
C         -5.74500       -2.63870       -6.52970
H          3.09950        5.67150        8.72740
H          4.48670        5.12510        6.59830
H          5.15780        3.45190        4.93100
H          4.59720        4.95660        4.14230
H          3.86920        3.61930        2.16650
H          5.61300        3.45220        2.45490
H          4.50560        2.15270        2.92260
H         -3.47300        1.13490        5.90540
H         -4.06500       -0.65440        4.44950
H         -3.71960       -1.53360        1.94420
H         -3.55060       -1.85660       -0.48810
H         -3.47510       -3.42530        0.36040
H         -3.72250       -3.82240       -2.05870
H         -2.31180       -2.81840       -2.40610
H         -2.11020       -4.34450       -1.54440
H          4.63460       -2.52510       -1.22020
H          3.98980       -3.28270       -3.38770
H          1.29030       -0.79090       -2.52770
H         -1.06330       -0.45750       -1.80730
H         -0.57500        0.76840       -3.00880
H         -2.93070        1.02410       -3.73140
H         -2.80390        1.28330       -1.98230
H         -3.43520       -0.24590       -2.61680
H         -5.24380       -4.44220       -7.50040
H         -6.75620       -2.60140       -6.89310
H         -5.42370       -1.83300       -5.88930
