
  xtb     03042204423D
 energy: -401.255268194780 gnorm: 0.000208381709 xtb: 6.4.1 (unknown)
226247  0     0  0            999 V2000
   13.1408    3.1681   -8.9102 C   0  0  0  0  0  0  0  0  0  0  0  0
   11.8274    3.0814   -9.2008 C   0  0  0  0  0  0  0  0  0  0  0  0
   11.0044    3.0042   -8.0375 C   0  0  0  0  0  0  0  0  0  0  0  0
    9.6067    2.9104   -7.9696 C   0  0  0  0  0  0  0  0  0  0  0  0
    8.7718    2.9236   -9.1778 C   0  0  0  0  0  0  0  0  0  0  0  0
    7.8090    1.9402   -9.3968 C   0  0  0  0  0  0  0  0  0  0  0  0
    7.0380    1.9554  -10.5393 C   0  0  0  0  0  0  0  0  0  0  0  0
    7.1815    2.9557  -11.4986 C   0  0  0  0  0  0  0  0  0  0  0  0
    6.1057    2.8977  -12.9021 S   0  0  0  0  0  0  0  0  0  0  0  0
    7.1860    3.3675  -14.3046 C   0  0  0  0  0  0  0  0  0  0  0  0
    8.3792    2.4425  -14.4359 C   0  0  0  0  0  0  0  0  0  0  0  0
    8.1210    3.9513  -11.2486 C   0  0  0  0  0  0  0  0  0  0  0  0
    8.2859    4.9819  -12.1084 F   0  0  0  0  0  0  0  0  0  0  0  0
    8.9175    3.9350  -10.1218 C   0  0  0  0  0  0  0  0  0  0  0  0
    9.0502    2.8172   -6.7025 C   0  0  0  0  0  0  0  0  0  0  0  0
    9.8223    2.8423   -5.5148 C   0  0  0  0  0  0  0  0  0  0  0  0
   11.2226    2.9329   -5.5805 C   0  0  0  0  0  0  0  0  0  0  0  0
   12.0460    2.9313   -4.3655 C   0  0  0  0  0  0  0  0  0  0  0  0
   11.7442    3.7535   -3.2809 C   0  0  0  0  0  0  0  0  0  0  0  0
   12.4984    3.7166   -2.1253 C   0  0  0  0  0  0  0  0  0  0  0  0
   13.5875    2.8592   -2.0106 C   0  0  0  0  0  0  0  0  0  0  0  0
   14.6202    2.7595   -0.5830 S   0  0  0  0  0  0  0  0  0  0  0  0
   13.4365    3.0050    0.7888 C   0  0  0  0  0  0  0  0  0  0  0  0
   12.4142    1.8891    0.8521 C   0  0  0  0  0  0  0  0  0  0  0  0
   13.8999    2.0661   -3.1141 C   0  0  0  0  0  0  0  0  0  0  0  0
   13.1500    2.0866   -4.2696 C   0  0  0  0  0  0  0  0  0  0  0  0
   14.9543    1.2309   -3.0512 F   0  0  0  0  0  0  0  0  0  0  0  0
   11.7782    3.0036   -6.8515 C   0  0  0  0  0  0  0  0  0  0  0  0
   13.4794    3.1489   -7.2145 S   0  0  0  0  0  0  0  0  0  0  0  0
    9.0056    2.7427   -4.3591 C   0  0  0  0  0  0  0  0  0  0  0  0
    7.6730    2.6753   -4.6341 C   0  0  0  0  0  0  0  0  0  0  0  0
    7.3444    2.7016   -6.3524 S   0  0  0  0  0  0  0  0  0  0  0  0
    6.6230    2.5885   -3.6646 C   0  0  0  0  0  0  0  0  0  0  0  0
    6.6833    3.0432   -2.3813 C   0  0  0  0  0  0  0  0  0  0  0  0
    5.5279    2.7483   -1.6149 C   0  0  0  0  0  0  0  0  0  0  0  0
    5.2794    3.0735   -0.2691 C   0  0  0  0  0  0  0  0  0  0  0  0
    6.2695    3.7943    0.5384 C   0  0  0  0  0  0  0  0  0  0  0  0
    5.9010    4.8994    1.2996 C   0  0  0  0  0  0  0  0  0  0  0  0
    6.8292    5.6049    2.0414 C   0  0  0  0  0  0  0  0  0  0  0  0
    8.1684    5.2331    2.0433 C   0  0  0  0  0  0  0  0  0  0  0  0
    9.4683    6.0262    2.9282 S   0  0  0  0  0  0  0  0  0  0  0  0
    8.6965    7.5184    3.6392 C   0  0  0  0  0  0  0  0  0  0  0  0
    8.4745    8.6052    2.6040 C   0  0  0  0  0  0  0  0  0  0  0  0
    8.5197    4.1116    1.2898 C   0  0  0  0  0  0  0  0  0  0  0  0
    9.8116    3.7169    1.2753 F   0  0  0  0  0  0  0  0  0  0  0  0
    7.6052    3.3934    0.5560 C   0  0  0  0  0  0  0  0  0  0  0  0
    4.0609    2.6648    0.2521 C   0  0  0  0  0  0  0  0  0  0  0  0
    3.1035    1.9558   -0.5123 C   0  0  0  0  0  0  0  0  0  0  0  0
    3.3335    1.6610   -1.8676 C   0  0  0  0  0  0  0  0  0  0  0  0
    2.3150    0.9279   -2.6277 C   0  0  0  0  0  0  0  0  0  0  0  0
    0.9809    1.3267   -2.5831 C   0  0  0  0  0  0  0  0  0  0  0  0
   -0.0150    0.5791   -3.1803 C   0  0  0  0  0  0  0  0  0  0  0  0
    0.2880   -0.6010   -3.8504 C   0  0  0  0  0  0  0  0  0  0  0  0
   -0.8760   -1.7101   -4.5665 S   0  0  0  0  0  0  0  0  0  0  0  0
   -2.5051   -0.9664   -4.2096 C   0  0  0  0  0  0  0  0  0  0  0  0
   -2.8668    0.1311   -5.1932 C   0  0  0  0  0  0  0  0  0  0  0  0
    1.6365   -0.9575   -3.9370 C   0  0  0  0  0  0  0  0  0  0  0  0
    2.6383   -0.2219   -3.3453 C   0  0  0  0  0  0  0  0  0  0  0  0
    1.9692   -2.0834   -4.5989 F   0  0  0  0  0  0  0  0  0  0  0  0
    4.5570    2.0556   -2.3835 C   0  0  0  0  0  0  0  0  0  0  0  0
    5.1030    1.7997   -4.0203 S   0  0  0  0  0  0  0  0  0  0  0  0
    2.0071    1.5360    0.2758 C   0  0  0  0  0  0  0  0  0  0  0  0
    2.0890    1.9108    1.5850 C   0  0  0  0  0  0  0  0  0  0  0  0
    3.5417    2.8306    1.9135 S   0  0  0  0  0  0  0  0  0  0  0  0
    1.1492    1.5375    2.5940 C   0  0  0  0  0  0  0  0  0  0  0  0
   -0.0403    0.9124    2.3566 C   0  0  0  0  0  0  0  0  0  0  0  0
   -0.7103    0.4924    3.5291 C   0  0  0  0  0  0  0  0  0  0  0  0
   -1.9172   -0.2207    3.6172 C   0  0  0  0  0  0  0  0  0  0  0  0
   -2.6268   -0.6705    2.4130 C   0  0  0  0  0  0  0  0  0  0  0  0
   -1.9440   -1.3076    1.3748 C   0  0  0  0  0  0  0  0  0  0  0  0
   -2.6025   -1.6941    0.2281 C   0  0  0  0  0  0  0  0  0  0  0  0
   -3.9752   -1.4930    0.0733 C   0  0  0  0  0  0  0  0  0  0  0  0
   -4.6891   -2.1071   -1.4273 S   0  0  0  0  0  0  0  0  0  0  0  0
   -6.1433   -1.0519   -1.7705 C   0  0  0  0  0  0  0  0  0  0  0  0
   -5.7897    0.4121   -1.9243 C   0  0  0  0  0  0  0  0  0  0  0  0
   -4.6531   -0.9096    1.1396 C   0  0  0  0  0  0  0  0  0  0  0  0
   -5.9921   -0.7397    1.0938 F   0  0  0  0  0  0  0  0  0  0  0  0
   -3.9989   -0.4864    2.2795 C   0  0  0  0  0  0  0  0  0  0  0  0
   -2.3696   -0.5128    4.8949 C   0  0  0  0  0  0  0  0  0  0  0  0
   -1.6785   -0.1268    6.0686 C   0  0  0  0  0  0  0  0  0  0  0  0
   -0.4808    0.6011    5.9800 C   0  0  0  0  0  0  0  0  0  0  0  0
    0.2332    1.0520    7.1806 C   0  0  0  0  0  0  0  0  0  0  0  0
    1.5972    0.8198    7.3457 C   0  0  0  0  0  0  0  0  0  0  0  0
    2.2557    1.2791    8.4656 C   0  0  0  0  0  0  0  0  0  0  0  0
    1.5877    1.9848    9.4652 C   0  0  0  0  0  0  0  0  0  0  0  0
    2.5429    2.4847   10.8661 S   0  0  0  0  0  0  0  0  0  0  0  0
    1.8643    4.1220   11.3263 C   0  0  0  0  0  0  0  0  0  0  0  0
    1.9472    5.1133   10.1832 C   0  0  0  0  0  0  0  0  0  0  0  0
    0.2207    2.1867    9.2987 C   0  0  0  0  0  0  0  0  0  0  0  0
   -0.4493    1.7423    8.1772 C   0  0  0  0  0  0  0  0  0  0  0  0
   -0.5063    2.8370   10.2340 F   0  0  0  0  0  0  0  0  0  0  0  0
   -0.0118    0.8721    4.7015 C   0  0  0  0  0  0  0  0  0  0  0  0
    1.4682    1.7125    4.3062 S   0  0  0  0  0  0  0  0  0  0  0  0
   -2.2992   -0.6464    7.2416 C   0  0  0  0  0  0  0  0  0  0  0  0
   -3.4000   -1.3842    6.9620 C   0  0  0  0  0  0  0  0  0  0  0  0
   -3.7834   -1.4709    5.2562 S   0  0  0  0  0  0  0  0  0  0  0  0
   -4.1961   -2.1109    7.8346 N   0  0  0  0  0  0  0  0  0  0  0  0
   -4.0707   -2.2513    9.2354 C   0  0  0  0  0  0  0  0  0  0  0  0
   -3.2755   -1.6653    9.9145 O   0  0  0  0  0  0  0  0  0  0  0  0
   -5.0895   -3.2471    9.6200 C   0  0  0  0  0  0  0  0  0  0  0  0
   -5.7267   -3.6958    8.5246 C   0  0  0  0  0  0  0  0  0  0  0  0
   -5.2336   -2.8844    7.3661 C   0  0  0  0  0  0  0  0  0  0  0  0
   -5.6576   -2.8350    6.2356 O   0  0  0  0  0  0  0  0  0  0  0  0
   -6.7067   -4.7331    8.3138 C   0  0  0  0  0  0  0  0  0  0  0  0
   -6.6953   -5.5106    7.2226 C   0  0  0  0  0  0  0  0  0  0  0  0
   -5.6413   -5.4977    6.3056 N   0  0  0  0  0  0  0  0  0  0  0  0
   -4.2905   -5.4402    6.6878 C   0  0  0  0  0  0  0  0  0  0  0  0
   -3.8942   -5.5561    7.8235 O   0  0  0  0  0  0  0  0  0  0  0  0
   -3.5431   -5.1902    5.4649 C   0  0  0  0  0  0  0  0  0  0  0  0
   -4.3907   -5.0271    4.4198 C   0  0  0  0  0  0  0  0  0  0  0  0
   -5.7870   -5.2228    4.9448 C   0  0  0  0  0  0  0  0  0  0  0  0
   -6.8439   -5.1427    4.3837 O   0  0  0  0  0  0  0  0  0  0  0  0
   -3.9828   -4.5533    3.1345 C   0  0  0  0  0  0  0  0  0  0  0  0
   -4.6793   -4.4085    1.9895 C   0  0  0  0  0  0  0  0  0  0  0  0
   -5.9844   -4.8926    1.6489 C   0  0  0  0  0  0  0  0  0  0  0  0
   -6.9238   -4.1874    0.9558 C   0  0  0  0  0  0  0  0  0  0  0  0
   -8.1302   -4.8975    0.7492 C   0  0  0  0  0  0  0  0  0  0  0  0
   -9.2882   -4.4587    0.0888 C   0  0  0  0  0  0  0  0  0  0  0  0
   -9.4084   -3.0757   -0.3900 C   0  0  0  0  0  0  0  0  0  0  0  0
   -9.7356   -2.7955   -1.7148 C   0  0  0  0  0  0  0  0  0  0  0  0
   -9.8367   -1.4912   -2.1502 C   0  0  0  0  0  0  0  0  0  0  0  0
   -9.6286   -0.4210   -1.2826 C   0  0  0  0  0  0  0  0  0  0  0  0
   -9.7201    1.2106   -1.9566 S   0  0  0  0  0  0  0  0  0  0  0  0
  -10.4826    2.1909   -0.6012 C   0  0  0  0  0  0  0  0  0  0  0  0
  -11.1877    3.3922   -1.1984 C   0  0  0  0  0  0  0  0  0  0  0  0
   -9.3025   -0.7147    0.0393 C   0  0  0  0  0  0  0  0  0  0  0  0
   -9.0724    0.2757    0.9259 F   0  0  0  0  0  0  0  0  0  0  0  0
   -9.1939   -2.0161    0.4869 C   0  0  0  0  0  0  0  0  0  0  0  0
  -10.3070   -5.3869   -0.0608 C   0  0  0  0  0  0  0  0  0  0  0  0
  -10.2358   -6.7052    0.4538 C   0  0  0  0  0  0  0  0  0  0  0  0
   -9.0858   -7.1358    1.1317 C   0  0  0  0  0  0  0  0  0  0  0  0
   -8.9623   -8.4862    1.6937 C   0  0  0  0  0  0  0  0  0  0  0  0
   -9.2127   -9.6225    0.9276 C   0  0  0  0  0  0  0  0  0  0  0  0
   -9.0402  -10.8807    1.4649 C   0  0  0  0  0  0  0  0  0  0  0  0
   -8.6275  -11.0557    2.7839 C   0  0  0  0  0  0  0  0  0  0  0  0
   -8.4674  -12.7152    3.3779 S   0  0  0  0  0  0  0  0  0  0  0  0
   -6.9153  -12.6753    4.3490 C   0  0  0  0  0  0  0  0  0  0  0  0
   -5.7359  -12.2192    3.5137 C   0  0  0  0  0  0  0  0  0  0  0  0
   -8.4160   -9.9111    3.5468 C   0  0  0  0  0  0  0  0  0  0  0  0
   -8.5608   -8.6462    3.0163 C   0  0  0  0  0  0  0  0  0  0  0  0
   -8.0606  -10.0020    4.8480 F   0  0  0  0  0  0  0  0  0  0  0  0
   -8.0551   -6.2163    1.2607 C   0  0  0  0  0  0  0  0  0  0  0  0
   -6.5121   -6.5180    2.0076 S   0  0  0  0  0  0  0  0  0  0  0  0
  -11.4516   -7.4181    0.2328 C   0  0  0  0  0  0  0  0  0  0  0  0
  -12.3775   -6.6888   -0.4224 C   0  0  0  0  0  0  0  0  0  0  0  0
  -11.8524   -5.0876   -0.8149 S   0  0  0  0  0  0  0  0  0  0  0  0
   13.9639    3.2363   -9.5945 H   0  0  0  0  0  0  0  0  0  0  0  0
   11.4389    3.0581  -10.2026 H   0  0  0  0  0  0  0  0  0  0  0  0
    7.6847    1.1430   -8.6806 H   0  0  0  0  0  0  0  0  0  0  0  0
    6.3042    1.1839  -10.7124 H   0  0  0  0  0  0  0  0  0  0  0  0
    7.4853    4.4069  -14.1904 H   0  0  0  0  0  0  0  0  0  0  0  0
    6.5252    3.2812  -15.1671 H   0  0  0  0  0  0  0  0  0  0  0  0
    8.0530    1.4080  -14.5212 H   0  0  0  0  0  0  0  0  0  0  0  0
    8.9500    2.7043  -15.3245 H   0  0  0  0  0  0  0  0  0  0  0  0
    9.0333    2.5277  -13.5700 H   0  0  0  0  0  0  0  0  0  0  0  0
    9.6229    4.7381   -9.9720 H   0  0  0  0  0  0  0  0  0  0  0  0
   10.9252    4.4532   -3.3547 H   0  0  0  0  0  0  0  0  0  0  0  0
   12.2390    4.3670   -1.3047 H   0  0  0  0  0  0  0  0  0  0  0  0
   12.9662    3.9819    0.6928 H   0  0  0  0  0  0  0  0  0  0  0  0
   14.0708    3.0079    1.6747 H   0  0  0  0  0  0  0  0  0  0  0  0
   11.8015    1.8791   -0.0471 H   0  0  0  0  0  0  0  0  0  0  0  0
   12.9090    0.9253    0.9471 H   0  0  0  0  0  0  0  0  0  0  0  0
   11.7619    2.0400    1.7084 H   0  0  0  0  0  0  0  0  0  0  0  0
   13.4170    1.4210   -5.0748 H   0  0  0  0  0  0  0  0  0  0  0  0
    9.3975    2.6845   -3.3606 H   0  0  0  0  0  0  0  0  0  0  0  0
    7.5199    3.6017   -2.0047 H   0  0  0  0  0  0  0  0  0  0  0  0
    4.8731    5.2282    1.2985 H   0  0  0  0  0  0  0  0  0  0  0  0
    6.4944    6.4516    2.6176 H   0  0  0  0  0  0  0  0  0  0  0  0
    7.7770    7.2239    4.1432 H   0  0  0  0  0  0  0  0  0  0  0  0
    9.4152    7.8436    4.3916 H   0  0  0  0  0  0  0  0  0  0  0  0
    8.0390    9.4830    3.0776 H   0  0  0  0  0  0  0  0  0  0  0  0
    9.4211    8.8892    2.1503 H   0  0  0  0  0  0  0  0  0  0  0  0
    7.8054    8.2673    1.8156 H   0  0  0  0  0  0  0  0  0  0  0  0
    7.9318    2.5147    0.0225 H   0  0  0  0  0  0  0  0  0  0  0  0
    0.7181    2.2436   -2.0766 H   0  0  0  0  0  0  0  0  0  0  0  0
   -1.0341    0.9209   -3.1046 H   0  0  0  0  0  0  0  0  0  0  0  0
   -3.1956   -1.8056   -4.2953 H   0  0  0  0  0  0  0  0  0  0  0  0
   -2.5083   -0.6268   -3.1748 H   0  0  0  0  0  0  0  0  0  0  0  0
   -3.8593    0.5199   -4.9716 H   0  0  0  0  0  0  0  0  0  0  0  0
   -2.8701   -0.2628   -6.2067 H   0  0  0  0  0  0  0  0  0  0  0  0
   -2.1538    0.9516   -5.1507 H   0  0  0  0  0  0  0  0  0  0  0  0
    3.6565   -0.5694   -3.4173 H   0  0  0  0  0  0  0  0  0  0  0  0
    1.2121    0.9274   -0.1113 H   0  0  0  0  0  0  0  0  0  0  0  0
   -0.4372    0.7622    1.3706 H   0  0  0  0  0  0  0  0  0  0  0  0
   -0.8896   -1.5141    1.4757 H   0  0  0  0  0  0  0  0  0  0  0  0
   -2.0644   -2.1761   -0.5742 H   0  0  0  0  0  0  0  0  0  0  0  0
   -6.5286   -1.4639   -2.7037 H   0  0  0  0  0  0  0  0  0  0  0  0
   -6.8850   -1.2083   -0.9917 H   0  0  0  0  0  0  0  0  0  0  0  0
   -6.6820    0.9660   -2.2092 H   0  0  0  0  0  0  0  0  0  0  0  0
   -5.0319    0.5471   -2.6931 H   0  0  0  0  0  0  0  0  0  0  0  0
   -5.4152    0.8231   -0.9891 H   0  0  0  0  0  0  0  0  0  0  0  0
   -4.5776   -0.0118    3.0556 H   0  0  0  0  0  0  0  0  0  0  0  0
    2.1420    0.2661    6.5971 H   0  0  0  0  0  0  0  0  0  0  0  0
    3.3120    1.0984    8.5894 H   0  0  0  0  0  0  0  0  0  0  0  0
    2.4994    4.4275   12.1580 H   0  0  0  0  0  0  0  0  0  0  0  0
    0.8457    3.9970   11.6863 H   0  0  0  0  0  0  0  0  0  0  0  0
    2.9719    5.2024    9.8285 H   0  0  0  0  0  0  0  0  0  0  0  0
    1.6063    6.0901   10.5207 H   0  0  0  0  0  0  0  0  0  0  0  0
    1.3199    4.8001    9.3507 H   0  0  0  0  0  0  0  0  0  0  0  0
   -1.5045    1.9491    8.0879 H   0  0  0  0  0  0  0  0  0  0  0  0
   -1.9208   -0.5110    8.2374 H   0  0  0  0  0  0  0  0  0  0  0  0
   -5.1907   -3.5871   10.6329 H   0  0  0  0  0  0  0  0  0  0  0  0
   -7.4578   -4.8816    9.0744 H   0  0  0  0  0  0  0  0  0  0  0  0
   -7.4795   -6.2249    7.0131 H   0  0  0  0  0  0  0  0  0  0  0  0
   -2.4719   -5.1108    5.4555 H   0  0  0  0  0  0  0  0  0  0  0  0
   -2.9664   -4.1766    3.1325 H   0  0  0  0  0  0  0  0  0  0  0  0
   -4.2006   -3.8436    1.1974 H   0  0  0  0  0  0  0  0  0  0  0  0
   -6.7717   -3.1739    0.6363 H   0  0  0  0  0  0  0  0  0  0  0  0
   -9.8981   -3.6059   -2.4082 H   0  0  0  0  0  0  0  0  0  0  0  0
  -10.0815   -1.2750   -3.1784 H   0  0  0  0  0  0  0  0  0  0  0  0
  -11.1857    1.5339   -0.0914 H   0  0  0  0  0  0  0  0  0  0  0  0
   -9.6961    2.4961    0.0873 H   0  0  0  0  0  0  0  0  0  0  0  0
  -10.4802    4.0263   -1.7282 H   0  0  0  0  0  0  0  0  0  0  0  0
  -11.9581    3.0756   -1.8981 H   0  0  0  0  0  0  0  0  0  0  0  0
  -11.6524    3.9749   -0.4057 H   0  0  0  0  0  0  0  0  0  0  0  0
   -8.9432   -2.1907    1.5218 H   0  0  0  0  0  0  0  0  0  0  0  0
   -9.5080   -9.5166   -0.1052 H   0  0  0  0  0  0  0  0  0  0  0  0
   -9.2169  -11.7602    0.8655 H   0  0  0  0  0  0  0  0  0  0  0  0
   -7.0614  -12.0484    5.2258 H   0  0  0  0  0  0  0  0  0  0  0  0
   -6.7946  -13.7103    4.6687 H   0  0  0  0  0  0  0  0  0  0  0  0
   -4.8230  -12.2868    4.1022 H   0  0  0  0  0  0  0  0  0  0  0  0
   -5.8619  -11.1863    3.1931 H   0  0  0  0  0  0  0  0  0  0  0  0
   -5.6293  -12.8446    2.6298 H   0  0  0  0  0  0  0  0  0  0  0  0
   -8.3854   -7.7907    3.6502 H   0  0  0  0  0  0  0  0  0  0  0  0
  -11.6154   -8.4251    0.5709 H   0  0  0  0  0  0  0  0  0  0  0  0
  -13.3665   -6.9867   -0.7115 H   0  0  0  0  0  0  0  0  0  0  0  0
  1  2  2  0  0  0  0
  2  3  1  0  0  0  0
  3  4  2  0  0  0  0
  4  5  1  0  0  0  0
  5  6  2  0  0  0  0
  6  7  1  0  0  0  0
  7  8  2  0  0  0  0
  8  9  1  0  0  0  0
  9 10  1  0  0  0  0
 10 11  1  0  0  0  0
  8 12  1  0  0  0  0
 12 13  1  0  0  0  0
 12 14  2  0  0  0  0
  4 15  1  0  0  0  0
 15 16  2  0  0  0  0
 16 17  1  0  0  0  0
 17 18  1  0  0  0  0
 18 19  2  0  0  0  0
 19 20  1  0  0  0  0
 20 21  2  0  0  0  0
 21 22  1  0  0  0  0
 22 23  1  0  0  0  0
 23 24  1  0  0  0  0
 21 25  1  0  0  0  0
 25 26  2  0  0  0  0
 25 27  1  0  0  0  0
 17 28  2  0  0  0  0
 28 29  1  0  0  0  0
 16 30  1  0  0  0  0
 30 31  2  0  0  0  0
 31 32  1  0  0  0  0
 31 33  1  0  0  0  0
 33 34  2  0  0  0  0
 34 35  1  0  0  0  0
 35 36  2  0  0  0  0
 36 37  1  0  0  0  0
 37 38  2  0  0  0  0
 38 39  1  0  0  0  0
 39 40  2  0  0  0  0
 40 41  1  0  0  0  0
 41 42  1  0  0  0  0
 42 43  1  0  0  0  0
 40 44  1  0  0  0  0
 44 45  1  0  0  0  0
 44 46  2  0  0  0  0
 36 47  1  0  0  0  0
 47 48  2  0  0  0  0
 48 49  1  0  0  0  0
 49 50  1  0  0  0  0
 50 51  2  0  0  0  0
 51 52  1  0  0  0  0
 52 53  2  0  0  0  0
 53 54  1  0  0  0  0
 54 55  1  0  0  0  0
 55 56  1  0  0  0  0
 53 57  1  0  0  0  0
 57 58  2  0  0  0  0
 57 59  1  0  0  0  0
 49 60  2  0  0  0  0
 60 61  1  0  0  0  0
 48 62  1  0  0  0  0
 62 63  2  0  0  0  0
 63 64  1  0  0  0  0
 63 65  1  0  0  0  0
 65 66  2  0  0  0  0
 66 67  1  0  0  0  0
 67 68  2  0  0  0  0
 68 69  1  0  0  0  0
 69 70  2  0  0  0  0
 70 71  1  0  0  0  0
 71 72  2  0  0  0  0
 72 73  1  0  0  0  0
 73 74  1  0  0  0  0
 74 75  1  0  0  0  0
 72 76  1  0  0  0  0
 76 77  1  0  0  0  0
 76 78  2  0  0  0  0
 68 79  1  0  0  0  0
 79 80  2  0  0  0  0
 80 81  1  0  0  0  0
 81 82  1  0  0  0  0
 82 83  2  0  0  0  0
 83 84  1  0  0  0  0
 84 85  2  0  0  0  0
 85 86  1  0  0  0  0
 86 87  1  0  0  0  0
 87 88  1  0  0  0  0
 85 89  1  0  0  0  0
 89 90  2  0  0  0  0
 89 91  1  0  0  0  0
 81 92  2  0  0  0  0
 92 93  1  0  0  0  0
 80 94  1  0  0  0  0
 94 95  2  0  0  0  0
 95 96  1  0  0  0  0
 95 97  1  0  0  0  0
 97 98  1  0  0  0  0
 98 99  2  0  0  0  0
 98100  1  0  0  0  0
100101  2  0  0  0  0
101102  1  0  0  0  0
102103  2  0  0  0  0
101104  1  0  0  0  0
104105  2  0  0  0  0
105106  1  0  0  0  0
106107  1  0  0  0  0
107108  2  0  0  0  0
107109  1  0  0  0  0
109110  2  0  0  0  0
110111  1  0  0  0  0
111112  2  0  0  0  0
110113  1  0  0  0  0
113114  2  0  0  0  0
114115  1  0  0  0  0
115116  2  0  0  0  0
116117  1  0  0  0  0
117118  2  0  0  0  0
118119  1  0  0  0  0
119120  2  0  0  0  0
120121  1  0  0  0  0
121122  2  0  0  0  0
122123  1  0  0  0  0
123124  1  0  0  0  0
124125  1  0  0  0  0
122126  1  0  0  0  0
126127  1  0  0  0  0
126128  2  0  0  0  0
118129  1  0  0  0  0
129130  2  0  0  0  0
130131  1  0  0  0  0
131132  1  0  0  0  0
132133  2  0  0  0  0
133134  1  0  0  0  0
134135  2  0  0  0  0
135136  1  0  0  0  0
136137  1  0  0  0  0
137138  1  0  0  0  0
135139  1  0  0  0  0
139140  2  0  0  0  0
139141  1  0  0  0  0
131142  2  0  0  0  0
142143  1  0  0  0  0
130144  1  0  0  0  0
144145  2  0  0  0  0
145146  1  0  0  0  0
 29  1  1  0  0  0  0
 61 33  1  0  0  0  0
 93 65  1  0  0  0  0
102 97  1  0  0  0  0
111106  1  0  0  0  0
143115  1  0  0  0  0
 28  3  1  0  0  0  0
 60 35  1  0  0  0  0
 92 67  1  0  0  0  0
142117  1  0  0  0  0
 14  5  1  0  0  0  0
 32 15  1  0  0  0  0
 46 37  1  0  0  0  0
 64 47  1  0  0  0  0
 78 69  1  0  0  0  0
 96 79  1  0  0  0  0
128119  1  0  0  0  0
146129  1  0  0  0  0
 26 18  1  0  0  0  0
 58 50  1  0  0  0  0
 90 82  1  0  0  0  0
140132  1  0  0  0  0
  1147  1  0  0  0  0
  2148  1  0  0  0  0
  6149  1  0  0  0  0
  7150  1  0  0  0  0
 10151  1  0  0  0  0
 10152  1  0  0  0  0
 11153  1  0  0  0  0
 11154  1  0  0  0  0
 11155  1  0  0  0  0
 14156  1  0  0  0  0
 19157  1  0  0  0  0
 20158  1  0  0  0  0
 23159  1  0  0  0  0
 23160  1  0  0  0  0
 24161  1  0  0  0  0
 24162  1  0  0  0  0
 24163  1  0  0  0  0
 26164  1  0  0  0  0
 30165  1  0  0  0  0
 34166  1  0  0  0  0
 38167  1  0  0  0  0
 39168  1  0  0  0  0
 42169  1  0  0  0  0
 42170  1  0  0  0  0
 43171  1  0  0  0  0
 43172  1  0  0  0  0
 43173  1  0  0  0  0
 46174  1  0  0  0  0
 51175  1  0  0  0  0
 52176  1  0  0  0  0
 55177  1  0  0  0  0
 55178  1  0  0  0  0
 56179  1  0  0  0  0
 56180  1  0  0  0  0
 56181  1  0  0  0  0
 58182  1  0  0  0  0
 62183  1  0  0  0  0
 66184  1  0  0  0  0
 70185  1  0  0  0  0
 71186  1  0  0  0  0
 74187  1  0  0  0  0
 74188  1  0  0  0  0
 75189  1  0  0  0  0
 75190  1  0  0  0  0
 75191  1  0  0  0  0
 78192  1  0  0  0  0
 83193  1  0  0  0  0
 84194  1  0  0  0  0
 87195  1  0  0  0  0
 87196  1  0  0  0  0
 88197  1  0  0  0  0
 88198  1  0  0  0  0
 88199  1  0  0  0  0
 90200  1  0  0  0  0
 94201  1  0  0  0  0
100202  1  0  0  0  0
104203  1  0  0  0  0
105204  1  0  0  0  0
109205  1  0  0  0  0
113206  1  0  0  0  0
114207  1  0  0  0  0
116208  1  0  0  0  0
120209  1  0  0  0  0
121210  1  0  0  0  0
124211  1  0  0  0  0
124212  1  0  0  0  0
125213  1  0  0  0  0
125214  1  0  0  0  0
125215  1  0  0  0  0
128216  1  0  0  0  0
133217  1  0  0  0  0
134218  1  0  0  0  0
137219  1  0  0  0  0
137220  1  0  0  0  0
138221  1  0  0  0  0
138222  1  0  0  0  0
138223  1  0  0  0  0
140224  1  0  0  0  0
144225  1  0  0  0  0
145226  1  0  0  0  0
M  END
