179

C          8.71140       -7.28110       10.02280
C          7.67350       -6.46600       10.29840
C          7.02460       -5.97920        9.12570
C          5.91130       -5.12790        9.03730
C          5.23980       -4.62140       10.22440
S          4.61300       -5.69100       11.44350
C          3.99730       -4.37980       12.39080
C          3.33270       -4.61620       13.70180
C          4.36610       -4.72060       14.82610
C          4.28020       -3.18990       11.79020
Cl         3.84120       -1.66330       12.43850
C          4.97740       -3.32220       10.55900
Cl         5.49900       -1.96740        9.64870
C          5.47480       -4.78850        7.76300
C          6.11730       -5.25000        6.58780
C          7.20970       -6.12920        6.67430
C          7.81400       -6.67000        5.46850
S          9.52530       -6.57210        5.17700
C          9.38590       -7.33420        3.63020
C         10.56890       -7.52840        2.74720
C         10.74040       -6.34350        1.79340
C          8.08310       -7.63810        3.36870
C          7.18980       -7.27370        4.41000
Cl         5.51330       -7.64810        4.35070
Cl         7.55040       -8.39090        1.92190
C          7.64890       -6.45920        7.95000
S          8.98080       -7.51440        8.32960
C          5.51300       -4.73240        5.41920
C          4.40790       -3.97020        5.66660
S          4.08730       -3.81000        7.37800
C          3.55630       -3.39010        4.67930
C          3.75160       -3.44010        3.32850
C          2.70550       -2.85690        2.57910
C          2.60590       -2.74540        1.17730
C          3.63430       -3.30080        0.31380
S          4.17700       -4.94360        0.51650
C          5.30490       -4.82160       -0.78920
C          6.14660       -5.98330       -1.18770
C          5.37430       -6.93680       -2.10200
C          5.24060       -3.58180       -1.35080
Cl         6.21160       -3.08090       -2.67390
C          4.29910       -2.71710       -0.72890
Cl         4.11080       -1.08140       -1.20130
C          1.46910       -2.12610        0.67600
C          0.44410       -1.62610        1.51920
C          0.57120       -1.68930        2.91900
C         -0.46180       -1.09950        3.75340
S         -1.33350       -2.00080        4.95540
C         -2.37340       -0.66290        5.31320
C         -3.48770       -0.78630        6.29330
C         -4.76850       -1.26630        5.60600
C         -2.04980        0.41240        4.54030
C         -0.95670        0.17280        3.66760
Cl        -0.27780        1.39440        2.67570
Cl        -2.88280        1.91260        4.57850
C          1.69450       -2.32780        3.41890
S          2.06690       -2.57410        5.10120
C         -0.66300       -1.14970        0.78570
C         -0.50340       -1.23870       -0.56870
S          1.04320       -1.93460       -1.00420
C         -1.43430       -0.79020       -1.54340
S         -1.02090       -0.51770       -3.21130
C         -2.59350        0.14040       -3.57060
C         -3.38690        0.12290       -2.43610
C         -2.74530       -0.41220       -1.30400
O         -3.36690       -0.57130       -0.10330
C         -4.58880        0.13600       -0.02190
C         -5.39320        0.01350       -1.31620
O         -4.68320        0.55090       -2.41520
C         -2.96540        0.60900       -4.85320
C         -2.24500        0.39940       -5.97950
C         -2.59400        0.89770       -7.25640
S         -3.89240        2.03080       -7.50900
C         -3.62110        2.09770       -9.22880
C         -2.55710        1.26050       -9.55810
C         -1.97420        0.60630       -8.46200
O         -0.90930       -0.24080       -8.57270
C         -0.28690       -0.15410       -9.83940
C         -1.32930       -0.09290      -10.95790
O         -2.12430        1.07090      -10.84320
C         -4.34860        2.80880      -10.21620
C         -5.39330        3.67620      -10.18800
C         -6.13830        4.28680       -9.14810
S         -5.85910        4.19200       -7.43520
C         -7.16980        5.27040       -7.05660
C         -7.79820        5.66310       -8.23420
C         -7.21290        5.13670       -9.39390
O         -7.65540        5.44030      -10.65280
C         -8.51220        6.56430      -10.64960
C         -9.53630        6.45990       -9.51790
O         -8.89380        6.47960       -8.25880
C         -7.65720        5.63050       -5.77160
C         -7.19800        5.43350       -4.51310
C         -5.97010        4.91690       -3.99750
C         -5.78240        4.58070       -2.68090
C         -4.47600        4.13660       -2.37370
C         -3.95040        3.69960       -1.14440
C         -4.71020        3.75070        0.09290
S         -6.32590        3.10510        0.22930
C         -6.41830        3.46130        1.92100
C         -7.58610        3.04350        2.74400
C         -7.30610        1.70170        3.42640
C         -5.27350        4.07090        2.33590
Cl        -5.00250        4.58810        3.94790
C         -4.31010        4.24630        1.30580
Cl        -2.84350        5.08750        1.58000
C         -2.64250        3.21820       -1.15890
C         -1.80680        3.26740       -2.29960
C         -2.28830        3.83860       -3.48690
C         -1.43850        4.10280       -4.63700
S         -0.46300        2.89370       -5.41060
C          0.13360        4.00990       -6.58870
C          1.05490        3.57670       -7.67680
C          0.35810        3.61900       -9.03860
C         -0.38970        5.25000       -6.37290
C         -1.27810        5.30720       -5.26900
Cl        -1.98890        6.77620       -4.74780
Cl        -0.00730        6.63080       -7.31520
C         -3.62880        4.20310       -3.50670
S         -4.48720        4.76180       -4.90920
C         -0.52270        2.70800       -2.03610
C         -0.40470        2.23080       -0.78050
S         -1.82430        2.45320        0.17510
H          9.36190       -7.77680       10.71650
H          7.36720       -6.20700       11.29510
H          2.75210       -5.53890       13.65450
H          2.65520       -3.78480       13.90460
H          3.86740       -4.87790       15.77860
H          5.04030       -5.55390       14.64280
H          4.95070       -3.80600       14.88560
H         10.42910       -8.44320        2.16740
H         11.46380       -7.63580        3.36160
H         11.60240       -6.50350        1.15150
H         10.88880       -5.42480        2.35550
H          9.85730       -6.23120        1.16960
H          5.88720       -4.91880        4.43110
H          4.62200       -3.88140        2.88290
H          7.03100       -5.61150       -1.70850
H          6.46600       -6.52200       -0.29340
H          6.00300       -7.77920       -2.37750
H          5.06230       -6.42210       -3.00730
H          4.49020       -7.31280       -1.59280
H         -3.20560       -1.49310        7.07490
H         -3.66390        0.19000        6.74920
H         -4.60900       -2.24070        5.15060
H         -5.06480       -0.56420        4.83070
H         -5.57440       -1.34620        6.33050
H         -1.55560       -0.75960        1.23370
H         -5.13530       -0.29860        0.81660
H         -4.37840        1.19110        0.18540
H         -5.61590       -1.04600       -1.50470
H         -6.32150        0.58130       -1.24730
H         -3.90170        1.14960       -4.89890
H         -1.33660       -0.18740       -5.93790
H          0.34310        0.74390       -9.88330
H          0.33610       -1.04440       -9.93570
H         -1.96820       -0.98510      -10.90560
H         -0.84950       -0.04070      -11.93580
H         -3.97010        2.57330      -11.20510
H         -5.75270        4.00160      -11.15800
H         -7.92260        7.48200      -10.51840
H         -9.00410        6.57880      -11.62290
H        -10.21980        7.30970       -9.52760
H        -10.10430        5.52610       -9.63060
H         -8.61170        6.13990       -5.85200
H         -7.87340        5.73480       -3.72010
H         -6.57650        4.63040       -1.95790
H         -8.46820        2.95730        2.10810
H         -7.77310        3.80370        3.50500
H         -6.42590        1.78210        4.05900
H         -8.15280        1.40990        4.04180
H         -7.13120        0.92820        2.68170
H          1.39990        2.56350       -7.46390
H          1.92240        4.24160       -7.69870
H         -0.52870        2.98990       -9.03130
H          1.03560        3.27450       -9.81650
H          0.05080        4.63350       -9.27530
H          0.26170        2.65370       -2.76820
H          0.44330        1.75120       -0.33170
