
  xtb     03012209173D
 energy: -349.204924853398 gnorm: 0.000231536149 xtb: 6.4.1 (unknown)
179199  0     0  0            999 V2000
    8.7114   -7.2811   10.0228 C   0  0  0  0  0  0  0  0  0  0  0  0
    7.6735   -6.4660   10.2984 C   0  0  0  0  0  0  0  0  0  0  0  0
    7.0246   -5.9792    9.1257 C   0  0  0  0  0  0  0  0  0  0  0  0
    5.9113   -5.1279    9.0373 C   0  0  0  0  0  0  0  0  0  0  0  0
    5.2398   -4.6214   10.2244 C   0  0  0  0  0  0  0  0  0  0  0  0
    4.6130   -5.6910   11.4435 S   0  0  0  0  0  0  0  0  0  0  0  0
    3.9973   -4.3798   12.3908 C   0  0  0  0  0  0  0  0  0  0  0  0
    3.3327   -4.6162   13.7018 C   0  0  0  0  0  0  0  0  0  0  0  0
    4.3661   -4.7206   14.8261 C   0  0  0  0  0  0  0  0  0  0  0  0
    4.2802   -3.1899   11.7902 C   0  0  0  0  0  0  0  0  0  0  0  0
    3.8412   -1.6633   12.4385 Cl  0  0  0  0  0  0  0  0  0  0  0  0
    4.9774   -3.3222   10.5590 C   0  0  0  0  0  0  0  0  0  0  0  0
    5.4990   -1.9674    9.6487 Cl  0  0  0  0  0  0  0  0  0  0  0  0
    5.4748   -4.7885    7.7630 C   0  0  0  0  0  0  0  0  0  0  0  0
    6.1173   -5.2500    6.5878 C   0  0  0  0  0  0  0  0  0  0  0  0
    7.2097   -6.1292    6.6743 C   0  0  0  0  0  0  0  0  0  0  0  0
    7.8140   -6.6700    5.4685 C   0  0  0  0  0  0  0  0  0  0  0  0
    9.5253   -6.5721    5.1770 S   0  0  0  0  0  0  0  0  0  0  0  0
    9.3859   -7.3342    3.6302 C   0  0  0  0  0  0  0  0  0  0  0  0
   10.5689   -7.5284    2.7472 C   0  0  0  0  0  0  0  0  0  0  0  0
   10.7404   -6.3435    1.7934 C   0  0  0  0  0  0  0  0  0  0  0  0
    8.0831   -7.6381    3.3687 C   0  0  0  0  0  0  0  0  0  0  0  0
    7.1898   -7.2737    4.4100 C   0  0  0  0  0  0  0  0  0  0  0  0
    5.5133   -7.6481    4.3507 Cl  0  0  0  0  0  0  0  0  0  0  0  0
    7.5504   -8.3909    1.9219 Cl  0  0  0  0  0  0  0  0  0  0  0  0
    7.6489   -6.4592    7.9500 C   0  0  0  0  0  0  0  0  0  0  0  0
    8.9808   -7.5144    8.3296 S   0  0  0  0  0  0  0  0  0  0  0  0
    5.5130   -4.7324    5.4192 C   0  0  0  0  0  0  0  0  0  0  0  0
    4.4079   -3.9702    5.6666 C   0  0  0  0  0  0  0  0  0  0  0  0
    4.0873   -3.8100    7.3780 S   0  0  0  0  0  0  0  0  0  0  0  0
    3.5563   -3.3901    4.6793 C   0  0  0  0  0  0  0  0  0  0  0  0
    3.7516   -3.4401    3.3285 C   0  0  0  0  0  0  0  0  0  0  0  0
    2.7055   -2.8569    2.5791 C   0  0  0  0  0  0  0  0  0  0  0  0
    2.6059   -2.7454    1.1773 C   0  0  0  0  0  0  0  0  0  0  0  0
    3.6343   -3.3008    0.3138 C   0  0  0  0  0  0  0  0  0  0  0  0
    4.1770   -4.9436    0.5165 S   0  0  0  0  0  0  0  0  0  0  0  0
    5.3049   -4.8216   -0.7892 C   0  0  0  0  0  0  0  0  0  0  0  0
    6.1466   -5.9833   -1.1877 C   0  0  0  0  0  0  0  0  0  0  0  0
    5.3743   -6.9368   -2.1020 C   0  0  0  0  0  0  0  0  0  0  0  0
    5.2406   -3.5818   -1.3508 C   0  0  0  0  0  0  0  0  0  0  0  0
    6.2116   -3.0809   -2.6739 Cl  0  0  0  0  0  0  0  0  0  0  0  0
    4.2991   -2.7171   -0.7289 C   0  0  0  0  0  0  0  0  0  0  0  0
    4.1108   -1.0814   -1.2013 Cl  0  0  0  0  0  0  0  0  0  0  0  0
    1.4691   -2.1261    0.6760 C   0  0  0  0  0  0  0  0  0  0  0  0
    0.4441   -1.6261    1.5192 C   0  0  0  0  0  0  0  0  0  0  0  0
    0.5712   -1.6893    2.9190 C   0  0  0  0  0  0  0  0  0  0  0  0
   -0.4618   -1.0995    3.7534 C   0  0  0  0  0  0  0  0  0  0  0  0
   -1.3335   -2.0008    4.9554 S   0  0  0  0  0  0  0  0  0  0  0  0
   -2.3734   -0.6629    5.3132 C   0  0  0  0  0  0  0  0  0  0  0  0
   -3.4877   -0.7863    6.2933 C   0  0  0  0  0  0  0  0  0  0  0  0
   -4.7685   -1.2663    5.6060 C   0  0  0  0  0  0  0  0  0  0  0  0
   -2.0498    0.4124    4.5403 C   0  0  0  0  0  0  0  0  0  0  0  0
   -0.9567    0.1728    3.6676 C   0  0  0  0  0  0  0  0  0  0  0  0
   -0.2778    1.3944    2.6757 Cl  0  0  0  0  0  0  0  0  0  0  0  0
   -2.8828    1.9126    4.5785 Cl  0  0  0  0  0  0  0  0  0  0  0  0
    1.6945   -2.3278    3.4189 C   0  0  0  0  0  0  0  0  0  0  0  0
    2.0669   -2.5741    5.1012 S   0  0  0  0  0  0  0  0  0  0  0  0
   -0.6630   -1.1497    0.7857 C   0  0  0  0  0  0  0  0  0  0  0  0
   -0.5034   -1.2387   -0.5687 C   0  0  0  0  0  0  0  0  0  0  0  0
    1.0432   -1.9346   -1.0042 S   0  0  0  0  0  0  0  0  0  0  0  0
   -1.4343   -0.7902   -1.5434 C   0  0  0  0  0  0  0  0  0  0  0  0
   -1.0209   -0.5177   -3.2113 S   0  0  0  0  0  0  0  0  0  0  0  0
   -2.5935    0.1404   -3.5706 C   0  0  0  0  0  0  0  0  0  0  0  0
   -3.3869    0.1229   -2.4361 C   0  0  0  0  0  0  0  0  0  0  0  0
   -2.7453   -0.4122   -1.3040 C   0  0  0  0  0  0  0  0  0  0  0  0
   -3.3669   -0.5713   -0.1033 O   0  0  0  0  0  0  0  0  0  0  0  0
   -4.5888    0.1360   -0.0219 C   0  0  0  0  0  0  0  0  0  0  0  0
   -5.3932    0.0135   -1.3162 C   0  0  0  0  0  0  0  0  0  0  0  0
   -4.6832    0.5509   -2.4152 O   0  0  0  0  0  0  0  0  0  0  0  0
   -2.9654    0.6090   -4.8532 C   0  0  0  0  0  0  0  0  0  0  0  0
   -2.2450    0.3994   -5.9795 C   0  0  0  0  0  0  0  0  0  0  0  0
   -2.5940    0.8977   -7.2564 C   0  0  0  0  0  0  0  0  0  0  0  0
   -3.8924    2.0308   -7.5090 S   0  0  0  0  0  0  0  0  0  0  0  0
   -3.6211    2.0977   -9.2288 C   0  0  0  0  0  0  0  0  0  0  0  0
   -2.5571    1.2605   -9.5581 C   0  0  0  0  0  0  0  0  0  0  0  0
   -1.9742    0.6063   -8.4620 C   0  0  0  0  0  0  0  0  0  0  0  0
   -0.9093   -0.2408   -8.5727 O   0  0  0  0  0  0  0  0  0  0  0  0
   -0.2869   -0.1541   -9.8394 C   0  0  0  0  0  0  0  0  0  0  0  0
   -1.3293   -0.0929  -10.9579 C   0  0  0  0  0  0  0  0  0  0  0  0
   -2.1243    1.0709  -10.8432 O   0  0  0  0  0  0  0  0  0  0  0  0
   -4.3486    2.8088  -10.2162 C   0  0  0  0  0  0  0  0  0  0  0  0
   -5.3933    3.6762  -10.1880 C   0  0  0  0  0  0  0  0  0  0  0  0
   -6.1383    4.2868   -9.1481 C   0  0  0  0  0  0  0  0  0  0  0  0
   -5.8591    4.1920   -7.4352 S   0  0  0  0  0  0  0  0  0  0  0  0
   -7.1698    5.2704   -7.0566 C   0  0  0  0  0  0  0  0  0  0  0  0
   -7.7982    5.6631   -8.2342 C   0  0  0  0  0  0  0  0  0  0  0  0
   -7.2129    5.1367   -9.3939 C   0  0  0  0  0  0  0  0  0  0  0  0
   -7.6554    5.4403  -10.6528 O   0  0  0  0  0  0  0  0  0  0  0  0
   -8.5122    6.5643  -10.6496 C   0  0  0  0  0  0  0  0  0  0  0  0
   -9.5363    6.4599   -9.5179 C   0  0  0  0  0  0  0  0  0  0  0  0
   -8.8938    6.4796   -8.2588 O   0  0  0  0  0  0  0  0  0  0  0  0
   -7.6572    5.6305   -5.7716 C   0  0  0  0  0  0  0  0  0  0  0  0
   -7.1980    5.4335   -4.5131 C   0  0  0  0  0  0  0  0  0  0  0  0
   -5.9701    4.9169   -3.9975 C   0  0  0  0  0  0  0  0  0  0  0  0
   -5.7824    4.5807   -2.6809 C   0  0  0  0  0  0  0  0  0  0  0  0
   -4.4760    4.1366   -2.3737 C   0  0  0  0  0  0  0  0  0  0  0  0
   -3.9504    3.6996   -1.1444 C   0  0  0  0  0  0  0  0  0  0  0  0
   -4.7102    3.7507    0.0929 C   0  0  0  0  0  0  0  0  0  0  0  0
   -6.3259    3.1051    0.2293 S   0  0  0  0  0  0  0  0  0  0  0  0
   -6.4183    3.4613    1.9210 C   0  0  0  0  0  0  0  0  0  0  0  0
   -7.5861    3.0435    2.7440 C   0  0  0  0  0  0  0  0  0  0  0  0
   -7.3061    1.7017    3.4264 C   0  0  0  0  0  0  0  0  0  0  0  0
   -5.2735    4.0709    2.3359 C   0  0  0  0  0  0  0  0  0  0  0  0
   -5.0025    4.5881    3.9479 Cl  0  0  0  0  0  0  0  0  0  0  0  0
   -4.3101    4.2463    1.3058 C   0  0  0  0  0  0  0  0  0  0  0  0
   -2.8435    5.0875    1.5800 Cl  0  0  0  0  0  0  0  0  0  0  0  0
   -2.6425    3.2182   -1.1589 C   0  0  0  0  0  0  0  0  0  0  0  0
   -1.8068    3.2674   -2.2996 C   0  0  0  0  0  0  0  0  0  0  0  0
   -2.2883    3.8386   -3.4869 C   0  0  0  0  0  0  0  0  0  0  0  0
   -1.4385    4.1028   -4.6370 C   0  0  0  0  0  0  0  0  0  0  0  0
   -0.4630    2.8937   -5.4106 S   0  0  0  0  0  0  0  0  0  0  0  0
    0.1336    4.0099   -6.5887 C   0  0  0  0  0  0  0  0  0  0  0  0
    1.0549    3.5767   -7.6768 C   0  0  0  0  0  0  0  0  0  0  0  0
    0.3581    3.6190   -9.0386 C   0  0  0  0  0  0  0  0  0  0  0  0
   -0.3897    5.2500   -6.3729 C   0  0  0  0  0  0  0  0  0  0  0  0
   -1.2781    5.3072   -5.2690 C   0  0  0  0  0  0  0  0  0  0  0  0
   -1.9889    6.7762   -4.7478 Cl  0  0  0  0  0  0  0  0  0  0  0  0
   -0.0073    6.6308   -7.3152 Cl  0  0  0  0  0  0  0  0  0  0  0  0
   -3.6288    4.2031   -3.5067 C   0  0  0  0  0  0  0  0  0  0  0  0
   -4.4872    4.7618   -4.9092 S   0  0  0  0  0  0  0  0  0  0  0  0
   -0.5227    2.7080   -2.0361 C   0  0  0  0  0  0  0  0  0  0  0  0
   -0.4047    2.2308   -0.7805 C   0  0  0  0  0  0  0  0  0  0  0  0
   -1.8243    2.4532    0.1751 S   0  0  0  0  0  0  0  0  0  0  0  0
    9.3619   -7.7768   10.7165 H   0  0  0  0  0  0  0  0  0  0  0  0
    7.3672   -6.2070   11.2951 H   0  0  0  0  0  0  0  0  0  0  0  0
    2.7521   -5.5389   13.6545 H   0  0  0  0  0  0  0  0  0  0  0  0
    2.6552   -3.7848   13.9046 H   0  0  0  0  0  0  0  0  0  0  0  0
    3.8674   -4.8779   15.7786 H   0  0  0  0  0  0  0  0  0  0  0  0
    5.0403   -5.5539   14.6428 H   0  0  0  0  0  0  0  0  0  0  0  0
    4.9507   -3.8060   14.8856 H   0  0  0  0  0  0  0  0  0  0  0  0
   10.4291   -8.4432    2.1674 H   0  0  0  0  0  0  0  0  0  0  0  0
   11.4638   -7.6358    3.3616 H   0  0  0  0  0  0  0  0  0  0  0  0
   11.6024   -6.5035    1.1515 H   0  0  0  0  0  0  0  0  0  0  0  0
   10.8888   -5.4248    2.3555 H   0  0  0  0  0  0  0  0  0  0  0  0
    9.8573   -6.2312    1.1696 H   0  0  0  0  0  0  0  0  0  0  0  0
    5.8872   -4.9188    4.4311 H   0  0  0  0  0  0  0  0  0  0  0  0
    4.6220   -3.8814    2.8829 H   0  0  0  0  0  0  0  0  0  0  0  0
    7.0310   -5.6115   -1.7085 H   0  0  0  0  0  0  0  0  0  0  0  0
    6.4660   -6.5220   -0.2934 H   0  0  0  0  0  0  0  0  0  0  0  0
    6.0030   -7.7792   -2.3775 H   0  0  0  0  0  0  0  0  0  0  0  0
    5.0623   -6.4221   -3.0073 H   0  0  0  0  0  0  0  0  0  0  0  0
    4.4902   -7.3128   -1.5928 H   0  0  0  0  0  0  0  0  0  0  0  0
   -3.2056   -1.4931    7.0749 H   0  0  0  0  0  0  0  0  0  0  0  0
   -3.6639    0.1900    6.7492 H   0  0  0  0  0  0  0  0  0  0  0  0
   -4.6090   -2.2407    5.1506 H   0  0  0  0  0  0  0  0  0  0  0  0
   -5.0648   -0.5642    4.8307 H   0  0  0  0  0  0  0  0  0  0  0  0
   -5.5744   -1.3462    6.3305 H   0  0  0  0  0  0  0  0  0  0  0  0
   -1.5556   -0.7596    1.2337 H   0  0  0  0  0  0  0  0  0  0  0  0
   -5.1353   -0.2986    0.8166 H   0  0  0  0  0  0  0  0  0  0  0  0
   -4.3784    1.1911    0.1854 H   0  0  0  0  0  0  0  0  0  0  0  0
   -5.6159   -1.0460   -1.5047 H   0  0  0  0  0  0  0  0  0  0  0  0
   -6.3215    0.5813   -1.2473 H   0  0  0  0  0  0  0  0  0  0  0  0
   -3.9017    1.1496   -4.8989 H   0  0  0  0  0  0  0  0  0  0  0  0
   -1.3366   -0.1874   -5.9379 H   0  0  0  0  0  0  0  0  0  0  0  0
    0.3431    0.7439   -9.8833 H   0  0  0  0  0  0  0  0  0  0  0  0
    0.3361   -1.0444   -9.9357 H   0  0  0  0  0  0  0  0  0  0  0  0
   -1.9682   -0.9851  -10.9056 H   0  0  0  0  0  0  0  0  0  0  0  0
   -0.8495   -0.0407  -11.9358 H   0  0  0  0  0  0  0  0  0  0  0  0
   -3.9701    2.5733  -11.2051 H   0  0  0  0  0  0  0  0  0  0  0  0
   -5.7527    4.0016  -11.1580 H   0  0  0  0  0  0  0  0  0  0  0  0
   -7.9226    7.4820  -10.5184 H   0  0  0  0  0  0  0  0  0  0  0  0
   -9.0041    6.5788  -11.6229 H   0  0  0  0  0  0  0  0  0  0  0  0
  -10.2198    7.3097   -9.5276 H   0  0  0  0  0  0  0  0  0  0  0  0
  -10.1043    5.5261   -9.6306 H   0  0  0  0  0  0  0  0  0  0  0  0
   -8.6117    6.1399   -5.8520 H   0  0  0  0  0  0  0  0  0  0  0  0
   -7.8734    5.7348   -3.7201 H   0  0  0  0  0  0  0  0  0  0  0  0
   -6.5765    4.6304   -1.9579 H   0  0  0  0  0  0  0  0  0  0  0  0
   -8.4682    2.9573    2.1081 H   0  0  0  0  0  0  0  0  0  0  0  0
   -7.7731    3.8037    3.5050 H   0  0  0  0  0  0  0  0  0  0  0  0
   -6.4259    1.7821    4.0590 H   0  0  0  0  0  0  0  0  0  0  0  0
   -8.1528    1.4099    4.0418 H   0  0  0  0  0  0  0  0  0  0  0  0
   -7.1312    0.9282    2.6817 H   0  0  0  0  0  0  0  0  0  0  0  0
    1.3999    2.5635   -7.4639 H   0  0  0  0  0  0  0  0  0  0  0  0
    1.9224    4.2416   -7.6987 H   0  0  0  0  0  0  0  0  0  0  0  0
   -0.5287    2.9899   -9.0313 H   0  0  0  0  0  0  0  0  0  0  0  0
    1.0356    3.2745   -9.8165 H   0  0  0  0  0  0  0  0  0  0  0  0
    0.0508    4.6335   -9.2753 H   0  0  0  0  0  0  0  0  0  0  0  0
    0.2617    2.6537   -2.7682 H   0  0  0  0  0  0  0  0  0  0  0  0
    0.4433    1.7512   -0.3317 H   0  0  0  0  0  0  0  0  0  0  0  0
  1  2  2  0  0  0  0
  2  3  1  0  0  0  0
  3  4  2  0  0  0  0
  4  5  1  0  0  0  0
  5  6  1  0  0  0  0
  6  7  1  0  0  0  0
  7  8  1  0  0  0  0
  8  9  1  0  0  0  0
  7 10  2  0  0  0  0
 10 11  1  0  0  0  0
 10 12  1  0  0  0  0
 12 13  1  0  0  0  0
  4 14  1  0  0  0  0
 14 15  2  0  0  0  0
 15 16  1  0  0  0  0
 16 17  1  0  0  0  0
 17 18  1  0  0  0  0
 18 19  1  0  0  0  0
 19 20  1  0  0  0  0
 20 21  1  0  0  0  0
 19 22  2  0  0  0  0
 22 23  1  0  0  0  0
 23 24  1  0  0  0  0
 22 25  1  0  0  0  0
 16 26  2  0  0  0  0
 26 27  1  0  0  0  0
 15 28  1  0  0  0  0
 28 29  2  0  0  0  0
 29 30  1  0  0  0  0
 29 31  1  0  0  0  0
 31 32  2  0  0  0  0
 32 33  1  0  0  0  0
 33 34  2  0  0  0  0
 34 35  1  0  0  0  0
 35 36  1  0  0  0  0
 36 37  1  0  0  0  0
 37 38  1  0  0  0  0
 38 39  1  0  0  0  0
 37 40  2  0  0  0  0
 40 41  1  0  0  0  0
 40 42  1  0  0  0  0
 42 43  1  0  0  0  0
 34 44  1  0  0  0  0
 44 45  2  0  0  0  0
 45 46  1  0  0  0  0
 46 47  1  0  0  0  0
 47 48  1  0  0  0  0
 48 49  1  0  0  0  0
 49 50  1  0  0  0  0
 50 51  1  0  0  0  0
 49 52  2  0  0  0  0
 52 53  1  0  0  0  0
 53 54  1  0  0  0  0
 52 55  1  0  0  0  0
 46 56  2  0  0  0  0
 56 57  1  0  0  0  0
 45 58  1  0  0  0  0
 58 59  2  0  0  0  0
 59 60  1  0  0  0  0
 59 61  1  0  0  0  0
 61 62  1  0  0  0  0
 62 63  1  0  0  0  0
 63 64  2  0  0  0  0
 64 65  1  0  0  0  0
 65 66  1  0  0  0  0
 66 67  1  0  0  0  0
 67 68  1  0  0  0  0
 68 69  1  0  0  0  0
 63 70  1  0  0  0  0
 70 71  2  0  0  0  0
 71 72  1  0  0  0  0
 72 73  1  0  0  0  0
 73 74  1  0  0  0  0
 74 75  2  0  0  0  0
 75 76  1  0  0  0  0
 76 77  1  0  0  0  0
 77 78  1  0  0  0  0
 78 79  1  0  0  0  0
 79 80  1  0  0  0  0
 74 81  1  0  0  0  0
 81 82  2  0  0  0  0
 82 83  1  0  0  0  0
 83 84  1  0  0  0  0
 84 85  1  0  0  0  0
 85 86  2  0  0  0  0
 86 87  1  0  0  0  0
 87 88  1  0  0  0  0
 88 89  1  0  0  0  0
 89 90  1  0  0  0  0
 90 91  1  0  0  0  0
 85 92  1  0  0  0  0
 92 93  2  0  0  0  0
 93 94  1  0  0  0  0
 94 95  2  0  0  0  0
 95 96  1  0  0  0  0
 96 97  2  0  0  0  0
 97 98  1  0  0  0  0
 98 99  1  0  0  0  0
 99100  1  0  0  0  0
100101  1  0  0  0  0
101102  1  0  0  0  0
100103  2  0  0  0  0
103104  1  0  0  0  0
103105  1  0  0  0  0
105106  1  0  0  0  0
 97107  1  0  0  0  0
107108  2  0  0  0  0
108109  1  0  0  0  0
109110  1  0  0  0  0
110111  1  0  0  0  0
111112  1  0  0  0  0
112113  1  0  0  0  0
113114  1  0  0  0  0
112115  2  0  0  0  0
115116  1  0  0  0  0
116117  1  0  0  0  0
115118  1  0  0  0  0
109119  2  0  0  0  0
119120  1  0  0  0  0
108121  1  0  0  0  0
121122  2  0  0  0  0
122123  1  0  0  0  0
 27  1  1  0  0  0  0
 57 31  1  0  0  0  0
 65 61  2  0  0  0  0
 76 72  2  0  0  0  0
 87 83  2  0  0  0  0
120 94  1  0  0  0  0
 26  3  1  0  0  0  0
 56 33  1  0  0  0  0
 69 64  1  0  0  0  0
 80 75  1  0  0  0  0
 91 86  1  0  0  0  0
119 96  1  0  0  0  0
 12  5  2  0  0  0  0
 30 14  1  0  0  0  0
 42 35  2  0  0  0  0
 60 44  1  0  0  0  0
105 98  2  0  0  0  0
123107  1  0  0  0  0
 23 17  2  0  0  0  0
 53 47  2  0  0  0  0
116110  2  0  0  0  0
  1124  1  0  0  0  0
  2125  1  0  0  0  0
  8126  1  0  0  0  0
  8127  1  0  0  0  0
  9128  1  0  0  0  0
  9129  1  0  0  0  0
  9130  1  0  0  0  0
 20131  1  0  0  0  0
 20132  1  0  0  0  0
 21133  1  0  0  0  0
 21134  1  0  0  0  0
 21135  1  0  0  0  0
 28136  1  0  0  0  0
 32137  1  0  0  0  0
 38138  1  0  0  0  0
 38139  1  0  0  0  0
 39140  1  0  0  0  0
 39141  1  0  0  0  0
 39142  1  0  0  0  0
 50143  1  0  0  0  0
 50144  1  0  0  0  0
 51145  1  0  0  0  0
 51146  1  0  0  0  0
 51147  1  0  0  0  0
 58148  1  0  0  0  0
 67149  1  0  0  0  0
 67150  1  0  0  0  0
 68151  1  0  0  0  0
 68152  1  0  0  0  0
 70153  1  0  0  0  0
 71154  1  0  0  0  0
 78155  1  0  0  0  0
 78156  1  0  0  0  0
 79157  1  0  0  0  0
 79158  1  0  0  0  0
 81159  1  0  0  0  0
 82160  1  0  0  0  0
 89161  1  0  0  0  0
 89162  1  0  0  0  0
 90163  1  0  0  0  0
 90164  1  0  0  0  0
 92165  1  0  0  0  0
 93166  1  0  0  0  0
 95167  1  0  0  0  0
101168  1  0  0  0  0
101169  1  0  0  0  0
102170  1  0  0  0  0
102171  1  0  0  0  0
102172  1  0  0  0  0
113173  1  0  0  0  0
113174  1  0  0  0  0
114175  1  0  0  0  0
114176  1  0  0  0  0
114177  1  0  0  0  0
121178  1  0  0  0  0
122179  1  0  0  0  0
M  END
