
  xtb     03042211023D
 energy: -419.185138525238 gnorm: 0.000373084387 xtb: 6.4.1 (unknown)
230253  0     0  0            999 V2000
   -1.3014   -8.4708   -3.5269 C   0  0  0  0  0  0  0  0  0  0  0  0
   -0.2263   -7.6432   -3.5383 C   0  0  0  0  0  0  0  0  0  0  0  0
   -0.4904   -6.6092   -2.5803 C   0  0  0  0  0  0  0  0  0  0  0  0
   -1.7837   -6.8757   -2.0095 C   0  0  0  0  0  0  0  0  0  0  0  0
   -2.4461   -6.3042   -1.1811 O   0  0  0  0  0  0  0  0  0  0  0  0
   -2.2286   -8.0429   -2.6459 O   0  0  0  0  0  0  0  0  0  0  0  0
    0.6176   -5.7853   -2.5319 C   0  0  0  0  0  0  0  0  0  0  0  0
    1.5389   -6.2160   -3.4423 O   0  0  0  0  0  0  0  0  0  0  0  0
    1.0944   -7.3553   -4.0997 C   0  0  0  0  0  0  0  0  0  0  0  0
    1.7404   -7.8971   -4.9463 O   0  0  0  0  0  0  0  0  0  0  0  0
    0.7537   -4.6136   -1.7621 C   0  0  0  0  0  0  0  0  0  0  0  0
    1.8569   -3.8350   -1.5600 C   0  0  0  0  0  0  0  0  0  0  0  0
    3.2096   -4.0944   -1.8448 C   0  0  0  0  0  0  0  0  0  0  0  0
    4.2625   -3.2178   -1.6421 C   0  0  0  0  0  0  0  0  0  0  0  0
    5.4759   -3.9065   -1.9067 C   0  0  0  0  0  0  0  0  0  0  0  0
    5.1037   -5.2596   -2.2921 C   0  0  0  0  0  0  0  0  0  0  0  0
    5.7563   -6.2192   -2.5904 O   0  0  0  0  0  0  0  0  0  0  0  0
    3.7130   -5.2949   -2.2469 O   0  0  0  0  0  0  0  0  0  0  0  0
    6.5209   -3.0329   -1.6576 C   0  0  0  0  0  0  0  0  0  0  0  0
    5.9913   -1.8262   -1.2639 O   0  0  0  0  0  0  0  0  0  0  0  0
    4.6053   -1.8793   -1.2203 C   0  0  0  0  0  0  0  0  0  0  0  0
    3.9378   -0.9365   -0.8874 O   0  0  0  0  0  0  0  0  0  0  0  0
    7.9158   -3.2717   -1.6117 C   0  0  0  0  0  0  0  0  0  0  0  0
    8.8737   -2.3386   -1.3540 C   0  0  0  0  0  0  0  0  0  0  0  0
    8.6292   -0.9337   -1.4344 C   0  0  0  0  0  0  0  0  0  0  0  0
    7.9098   -0.3067   -2.4144 C   0  0  0  0  0  0  0  0  0  0  0  0
    7.6686    1.0599   -2.1629 C   0  0  0  0  0  0  0  0  0  0  0  0
    6.8429    1.9362   -2.8900 C   0  0  0  0  0  0  0  0  0  0  0  0
    6.1104    1.5141   -4.0873 C   0  0  0  0  0  0  0  0  0  0  0  0
    5.4019    0.3123   -4.0955 C   0  0  0  0  0  0  0  0  0  0  0  0
    4.6553   -0.0602   -5.1903 C   0  0  0  0  0  0  0  0  0  0  0  0
    4.5624    0.7625   -6.3096 C   0  0  0  0  0  0  0  0  0  0  0  0
    3.5453    0.2389   -7.6516 S   0  0  0  0  0  0  0  0  0  0  0  0
    2.6966    1.7951   -8.1407 C   0  0  0  0  0  0  0  0  0  0  0  0
    1.3028    1.4608   -8.6334 C   0  0  0  0  0  0  0  0  0  0  0  0
    5.2914    1.9486   -6.3018 C   0  0  0  0  0  0  0  0  0  0  0  0
    5.2857    2.7602   -7.3800 F   0  0  0  0  0  0  0  0  0  0  0  0
    6.0490    2.3304   -5.2134 C   0  0  0  0  0  0  0  0  0  0  0  0
    6.6235    3.1819   -2.3257 C   0  0  0  0  0  0  0  0  0  0  0  0
    7.1518    3.5847   -1.0716 C   0  0  0  0  0  0  0  0  0  0  0  0
    8.0312    2.7284   -0.3812 C   0  0  0  0  0  0  0  0  0  0  0  0
    8.5918    3.0849    0.9293 C   0  0  0  0  0  0  0  0  0  0  0  0
    9.9654    3.0294    1.1565 C   0  0  0  0  0  0  0  0  0  0  0  0
   10.4850    3.3594    2.3893 C   0  0  0  0  0  0  0  0  0  0  0  0
    9.6646    3.7607    3.4438 C   0  0  0  0  0  0  0  0  0  0  0  0
   10.4723    4.2195    4.9463 S   0  0  0  0  0  0  0  0  0  0  0  0
    9.3292    3.7054    6.2807 C   0  0  0  0  0  0  0  0  0  0  0  0
    9.0363    2.2194    6.2380 C   0  0  0  0  0  0  0  0  0  0  0  0
    8.2957    3.8165    3.1986 C   0  0  0  0  0  0  0  0  0  0  0  0
    7.7599    3.4713    1.9741 C   0  0  0  0  0  0  0  0  0  0  0  0
    7.4283    4.2181    4.1545 F   0  0  0  0  0  0  0  0  0  0  0  0
    8.2754    1.4901   -0.9536 C   0  0  0  0  0  0  0  0  0  0  0  0
    9.1788    0.1939   -0.2071 S   0  0  0  0  0  0  0  0  0  0  0  0
    6.5641    4.7939   -0.6168 C   0  0  0  0  0  0  0  0  0  0  0  0
    5.5883    5.2690   -1.4475 C   0  0  0  0  0  0  0  0  0  0  0  0
    5.4660    4.3317   -2.9252 S   0  0  0  0  0  0  0  0  0  0  0  0
    4.4734    6.1167   -1.1516 C   0  0  0  0  0  0  0  0  0  0  0  0
    3.9213    6.3384    0.0794 C   0  0  0  0  0  0  0  0  0  0  0  0
    2.5238    6.5889    0.0312 C   0  0  0  0  0  0  0  0  0  0  0  0
    1.6330    6.5263    1.1219 C   0  0  0  0  0  0  0  0  0  0  0  0
    2.1573    6.6179    2.4883 C   0  0  0  0  0  0  0  0  0  0  0  0
    3.0425    7.6468    2.8166 C   0  0  0  0  0  0  0  0  0  0  0  0
    3.5463    7.7627    4.0931 C   0  0  0  0  0  0  0  0  0  0  0  0
    3.2107    6.8490    5.0920 C   0  0  0  0  0  0  0  0  0  0  0  0
    3.9577    7.0775    6.6761 S   0  0  0  0  0  0  0  0  0  0  0  0
    2.6504    6.6067    7.8686 C   0  0  0  0  0  0  0  0  0  0  0  0
    1.3892    7.4257    7.6821 C   0  0  0  0  0  0  0  0  0  0  0  0
    2.3598    5.8055    4.7396 C   0  0  0  0  0  0  0  0  0  0  0  0
    2.0335    4.8457    5.6324 F   0  0  0  0  0  0  0  0  0  0  0  0
    1.8244    5.6935    3.4724 C   0  0  0  0  0  0  0  0  0  0  0  0
    0.3063    6.2611    0.8087 C   0  0  0  0  0  0  0  0  0  0  0  0
   -0.1659    6.2112   -0.5261 C   0  0  0  0  0  0  0  0  0  0  0  0
    0.6928    6.4577   -1.6097 C   0  0  0  0  0  0  0  0  0  0  0  0
    0.1842    6.3776   -2.9858 C   0  0  0  0  0  0  0  0  0  0  0  0
   -0.9086    7.1480   -3.3816 C   0  0  0  0  0  0  0  0  0  0  0  0
   -1.4151    7.0421   -4.6581 C   0  0  0  0  0  0  0  0  0  0  0  0
   -0.8578    6.1710   -5.5957 C   0  0  0  0  0  0  0  0  0  0  0  0
   -1.5953    6.1730   -7.1998 S   0  0  0  0  0  0  0  0  0  0  0  0
   -1.3623    4.4770   -7.8492 C   0  0  0  0  0  0  0  0  0  0  0  0
   -1.9932    3.4235   -6.9623 C   0  0  0  0  0  0  0  0  0  0  0  0
    0.2459    5.4257   -5.1917 C   0  0  0  0  0  0  0  0  0  0  0  0
    0.7516    5.5076   -3.9099 C   0  0  0  0  0  0  0  0  0  0  0  0
    0.8702    4.5796   -6.0410 F   0  0  0  0  0  0  0  0  0  0  0  0
    2.0355    6.5819   -1.2994 C   0  0  0  0  0  0  0  0  0  0  0  0
    3.3438    6.4690   -2.4480 S   0  0  0  0  0  0  0  0  0  0  0  0
   -1.4364    5.5872   -0.6193 C   0  0  0  0  0  0  0  0  0  0  0  0
   -1.9184    5.1460    0.5744 C   0  0  0  0  0  0  0  0  0  0  0  0
   -0.9243    5.6901    1.9190 S   0  0  0  0  0  0  0  0  0  0  0  0
   -2.7450    3.9717    0.7017 C   0  0  0  0  0  0  0  0  0  0  0  0
   -2.4467    2.8826   -0.0607 C   0  0  0  0  0  0  0  0  0  0  0  0
   -3.0967    1.6988    0.3560 C   0  0  0  0  0  0  0  0  0  0  0  0
   -2.8004    0.4034   -0.0827 C   0  0  0  0  0  0  0  0  0  0  0  0
   -1.7818    0.2014   -1.1310 C   0  0  0  0  0  0  0  0  0  0  0  0
   -0.4956   -0.2037   -0.7877 C   0  0  0  0  0  0  0  0  0  0  0  0
    0.4893   -0.3037   -1.7511 C   0  0  0  0  0  0  0  0  0  0  0  0
    0.2082   -0.0285   -3.0846 C   0  0  0  0  0  0  0  0  0  0  0  0
    1.5228   -0.1194   -4.2739 S   0  0  0  0  0  0  0  0  0  0  0  0
    0.8322   -1.3137   -5.4811 C   0  0  0  0  0  0  0  0  0  0  0  0
    0.6841   -2.6968   -4.8784 C   0  0  0  0  0  0  0  0  0  0  0  0
   -1.0816    0.3730   -3.4134 C   0  0  0  0  0  0  0  0  0  0  0  0
   -1.3945    0.6858   -4.6903 F   0  0  0  0  0  0  0  0  0  0  0  0
   -2.0713    0.4925   -2.4580 C   0  0  0  0  0  0  0  0  0  0  0  0
   -3.4240   -0.6305    0.5829 C   0  0  0  0  0  0  0  0  0  0  0  0
   -4.3729   -0.4168    1.6162 C   0  0  0  0  0  0  0  0  0  0  0  0
   -4.6553    0.8865    2.0677 C   0  0  0  0  0  0  0  0  0  0  0  0
   -5.5996    1.1097    3.1685 C   0  0  0  0  0  0  0  0  0  0  0  0
   -6.6219    2.0462    3.0502 C   0  0  0  0  0  0  0  0  0  0  0  0
   -7.5652    2.2072    4.0472 C   0  0  0  0  0  0  0  0  0  0  0  0
   -7.5194    1.4345    5.2017 C   0  0  0  0  0  0  0  0  0  0  0  0
   -8.6657    1.5047    6.5377 S   0  0  0  0  0  0  0  0  0  0  0  0
  -10.0676    2.4706    5.8793 C   0  0  0  0  0  0  0  0  0  0  0  0
  -10.8647    1.6991    4.8445 C   0  0  0  0  0  0  0  0  0  0  0  0
   -6.4599    0.5338    5.3282 C   0  0  0  0  0  0  0  0  0  0  0  0
   -5.5137    0.3649    4.3445 C   0  0  0  0  0  0  0  0  0  0  0  0
   -6.3645   -0.2081    6.4511 F   0  0  0  0  0  0  0  0  0  0  0  0
   -3.9789    1.9236    1.4380 C   0  0  0  0  0  0  0  0  0  0  0  0
   -3.9402    3.6076    1.9267 S   0  0  0  0  0  0  0  0  0  0  0  0
   -4.8792   -1.6491    2.1038 C   0  0  0  0  0  0  0  0  0  0  0  0
   -4.2996   -2.7438    1.5346 C   0  0  0  0  0  0  0  0  0  0  0  0
   -3.1354   -2.3242    0.2942 S   0  0  0  0  0  0  0  0  0  0  0  0
   -4.4624   -4.1081    1.9131 C   0  0  0  0  0  0  0  0  0  0  0  0
   -3.6801   -5.1605    1.5471 C   0  0  0  0  0  0  0  0  0  0  0  0
   -4.0116   -6.3668    2.2139 C   0  0  0  0  0  0  0  0  0  0  0  0
   -3.3338   -7.5960    2.1517 C   0  0  0  0  0  0  0  0  0  0  0  0
   -2.0393   -7.6777    1.4704 C   0  0  0  0  0  0  0  0  0  0  0  0
   -1.0827   -6.6899    1.7293 C   0  0  0  0  0  0  0  0  0  0  0  0
    0.1466   -6.7220    1.1221 C   0  0  0  0  0  0  0  0  0  0  0  0
    0.4904   -7.7325    0.2184 C   0  0  0  0  0  0  0  0  0  0  0  0
    2.0919   -7.5531   -0.4928 S   0  0  0  0  0  0  0  0  0  0  0  0
    2.4454   -9.0850   -1.4334 C   0  0  0  0  0  0  0  0  0  0  0  0
    3.8670   -9.0060   -1.9523 C   0  0  0  0  0  0  0  0  0  0  0  0
   -0.4694   -8.7111   -0.0251 C   0  0  0  0  0  0  0  0  0  0  0  0
   -0.2338   -9.7127   -0.9073 F   0  0  0  0  0  0  0  0  0  0  0  0
   -1.7039   -8.7042    0.5991 C   0  0  0  0  0  0  0  0  0  0  0  0
   -3.8974   -8.6483    2.8612 C   0  0  0  0  0  0  0  0  0  0  0  0
   -5.0355   -8.4978    3.6930 C   0  0  0  0  0  0  0  0  0  0  0  0
   -5.6556   -7.2475    3.8240 C   0  0  0  0  0  0  0  0  0  0  0  0
   -6.7321   -6.9674    4.7820 C   0  0  0  0  0  0  0  0  0  0  0  0
   -6.5908   -7.2819    6.1325 C   0  0  0  0  0  0  0  0  0  0  0  0
   -7.5206   -6.8467    7.0537 C   0  0  0  0  0  0  0  0  0  0  0  0
   -8.6278   -6.0985    6.6629 C   0  0  0  0  0  0  0  0  0  0  0  0
   -9.7313   -5.5062    7.9141 S   0  0  0  0  0  0  0  0  0  0  0  0
   -9.9599   -3.7498    7.4375 C   0  0  0  0  0  0  0  0  0  0  0  0
   -8.6430   -3.0076    7.3320 C   0  0  0  0  0  0  0  0  0  0  0  0
   -8.8010   -5.8671    5.3018 C   0  0  0  0  0  0  0  0  0  0  0  0
   -7.8672   -6.2739    4.3722 C   0  0  0  0  0  0  0  0  0  0  0  0
   -9.8940   -5.2168    4.8497 F   0  0  0  0  0  0  0  0  0  0  0  0
   -5.1401   -6.2153    3.0529 C   0  0  0  0  0  0  0  0  0  0  0  0
   -5.6972   -4.5619    3.0723 S   0  0  0  0  0  0  0  0  0  0  0  0
   -5.3866   -9.7238    4.3323 C   0  0  0  0  0  0  0  0  0  0  0  0
   -4.5515  -10.7355    4.0215 C   0  0  0  0  0  0  0  0  0  0  0  0
   -3.2834  -10.2793    2.9352 S   0  0  0  0  0  0  0  0  0  0  0  0
   -1.5248   -9.3712   -4.0667 H   0  0  0  0  0  0  0  0  0  0  0  0
   -0.1731   -4.3021   -1.2983 H   0  0  0  0  0  0  0  0  0  0  0  0
    1.7089   -2.8884   -1.0579 H   0  0  0  0  0  0  0  0  0  0  0  0
    8.1873   -4.3147   -1.6942 H   0  0  0  0  0  0  0  0  0  0  0  0
    9.8621   -2.6665   -1.0617 H   0  0  0  0  0  0  0  0  0  0  0  0
    7.5770   -0.8210   -3.2975 H   0  0  0  0  0  0  0  0  0  0  0  0
    5.3885   -0.2989   -3.2096 H   0  0  0  0  0  0  0  0  0  0  0  0
    4.1055   -0.9874   -5.1851 H   0  0  0  0  0  0  0  0  0  0  0  0
    3.2904    2.2740   -8.9181 H   0  0  0  0  0  0  0  0  0  0  0  0
    2.6559    2.4311   -7.2584 H   0  0  0  0  0  0  0  0  0  0  0  0
    1.3449    0.7401   -9.4472 H   0  0  0  0  0  0  0  0  0  0  0  0
    0.7061    1.0425   -7.8264 H   0  0  0  0  0  0  0  0  0  0  0  0
    0.8174    2.3644   -8.9951 H   0  0  0  0  0  0  0  0  0  0  0  0
    6.6035    3.2545   -5.2669 H   0  0  0  0  0  0  0  0  0  0  0  0
   10.6278    2.7343    0.3573 H   0  0  0  0  0  0  0  0  0  0  0  0
   11.5490    3.3170    2.5617 H   0  0  0  0  0  0  0  0  0  0  0  0
    9.8750    3.9722    7.1859 H   0  0  0  0  0  0  0  0  0  0  0  0
    8.4230    4.3041    6.2248 H   0  0  0  0  0  0  0  0  0  0  0  0
    9.9606    1.6462    6.2713 H   0  0  0  0  0  0  0  0  0  0  0  0
    8.4221    1.9444    7.0930 H   0  0  0  0  0  0  0  0  0  0  0  0
    8.4975    1.9541    5.3306 H   0  0  0  0  0  0  0  0  0  0  0  0
    6.6877    3.4930    1.8543 H   0  0  0  0  0  0  0  0  0  0  0  0
    6.8180    5.2646    0.3151 H   0  0  0  0  0  0  0  0  0  0  0  0
    4.4517    6.1742    1.0002 H   0  0  0  0  0  0  0  0  0  0  0  0
    3.3127    8.3740    2.0658 H   0  0  0  0  0  0  0  0  0  0  0  0
    4.2166    8.5697    4.3451 H   0  0  0  0  0  0  0  0  0  0  0  0
    3.1127    6.8114    8.8344 H   0  0  0  0  0  0  0  0  0  0  0  0
    2.4605    5.5391    7.7856 H   0  0  0  0  0  0  0  0  0  0  0  0
    0.6743    7.1783    8.4642 H   0  0  0  0  0  0  0  0  0  0  0  0
    1.6126    8.4892    7.7356 H   0  0  0  0  0  0  0  0  0  0  0  0
    0.9278    7.2168    6.7188 H   0  0  0  0  0  0  0  0  0  0  0  0
    1.1837    4.8526    3.2608 H   0  0  0  0  0  0  0  0  0  0  0  0
   -1.3584    7.8337   -2.6795 H   0  0  0  0  0  0  0  0  0  0  0  0
   -2.2635    7.6368   -4.9598 H   0  0  0  0  0  0  0  0  0  0  0  0
   -0.2994    4.3033   -8.0000 H   0  0  0  0  0  0  0  0  0  0  0  0
   -1.8573    4.5200   -8.8199 H   0  0  0  0  0  0  0  0  0  0  0  0
   -3.0419    3.6519   -6.7838 H   0  0  0  0  0  0  0  0  0  0  0  0
   -1.4837    3.3595   -6.0039 H   0  0  0  0  0  0  0  0  0  0  0  0
   -1.9252    2.4508   -7.4446 H   0  0  0  0  0  0  0  0  0  0  0  0
    1.5829    4.8718   -3.6493 H   0  0  0  0  0  0  0  0  0  0  0  0
   -1.9130    5.3706   -1.5585 H   0  0  0  0  0  0  0  0  0  0  0  0
   -1.7068    2.8980   -0.8405 H   0  0  0  0  0  0  0  0  0  0  0  0
   -0.2643   -0.4182    0.2445 H   0  0  0  0  0  0  0  0  0  0  0  0
    1.5013   -0.5676   -1.4824 H   0  0  0  0  0  0  0  0  0  0  0  0
   -0.1180   -0.9287   -5.8453 H   0  0  0  0  0  0  0  0  0  0  0  0
    1.5545   -1.3113   -6.2974 H   0  0  0  0  0  0  0  0  0  0  0  0
    0.3172   -3.3888   -5.6340 H   0  0  0  0  0  0  0  0  0  0  0  0
    1.6418   -3.0606   -4.5121 H   0  0  0  0  0  0  0  0  0  0  0  0
   -0.0198   -2.6850   -4.0467 H   0  0  0  0  0  0  0  0  0  0  0  0
   -3.0550    0.8243   -2.7531 H   0  0  0  0  0  0  0  0  0  0  0  0
   -6.6971    2.6425    2.1536 H   0  0  0  0  0  0  0  0  0  0  0  0
   -8.3422    2.9416    3.9114 H   0  0  0  0  0  0  0  0  0  0  0  0
   -9.6889    3.4171    5.4960 H   0  0  0  0  0  0  0  0  0  0  0  0
  -10.6734    2.6730    6.7626 H   0  0  0  0  0  0  0  0  0  0  0  0
  -11.7046    2.3003    4.5016 H   0  0  0  0  0  0  0  0  0  0  0  0
  -11.2499    0.7788    5.2771 H   0  0  0  0  0  0  0  0  0  0  0  0
  -10.2479    1.4415    3.9862 H   0  0  0  0  0  0  0  0  0  0  0  0
   -4.7072   -0.3327    4.5063 H   0  0  0  0  0  0  0  0  0  0  0  0
   -5.6365   -1.7323    2.8623 H   0  0  0  0  0  0  0  0  0  0  0  0
   -2.9087   -5.0895    0.8026 H   0  0  0  0  0  0  0  0  0  0  0  0
   -1.3068   -5.9046    2.4341 H   0  0  0  0  0  0  0  0  0  0  0  0
    0.8803   -5.9578    1.3277 H   0  0  0  0  0  0  0  0  0  0  0  0
    2.3093   -9.9255   -0.7538 H   0  0  0  0  0  0  0  0  0  0  0  0
    1.7348   -9.1576   -2.2557 H   0  0  0  0  0  0  0  0  0  0  0  0
    4.0852   -9.8922   -2.5432 H   0  0  0  0  0  0  0  0  0  0  0  0
    4.0022   -8.1305   -2.5824 H   0  0  0  0  0  0  0  0  0  0  0  0
    4.5770   -8.9479   -1.1303 H   0  0  0  0  0  0  0  0  0  0  0  0
   -2.4078   -9.4829    0.3515 H   0  0  0  0  0  0  0  0  0  0  0  0
   -5.7182   -7.8229    6.4655 H   0  0  0  0  0  0  0  0  0  0  0  0
   -7.3896   -7.0564    8.1038 H   0  0  0  0  0  0  0  0  0  0  0  0
  -10.5728   -3.3516    8.2460 H   0  0  0  0  0  0  0  0  0  0  0  0
  -10.5269   -3.7109    6.5097 H   0  0  0  0  0  0  0  0  0  0  0  0
   -8.0753   -3.0989    8.2551 H   0  0  0  0  0  0  0  0  0  0  0  0
   -8.0375   -3.3972    6.5154 H   0  0  0  0  0  0  0  0  0  0  0  0
   -8.8279   -1.9516    7.1464 H   0  0  0  0  0  0  0  0  0  0  0  0
   -8.0424   -6.0563    3.3303 H   0  0  0  0  0  0  0  0  0  0  0  0
   -6.2377   -9.8259    4.9810 H   0  0  0  0  0  0  0  0  0  0  0  0
   -4.5929  -11.7526    4.3592 H   0  0  0  0  0  0  0  0  0  0  0  0
  1  2  2  0  0  0  0
  2  3  1  0  0  0  0
  3  4  1  0  0  0  0
  4  5  2  0  0  0  0
  4  6  1  0  0  0  0
  3  7  2  0  0  0  0
  7  8  1  0  0  0  0
  8  9  1  0  0  0  0
  9 10  2  0  0  0  0
  7 11  1  0  0  0  0
 11 12  2  0  0  0  0
 12 13  1  0  0  0  0
 13 14  2  0  0  0  0
 14 15  1  0  0  0  0
 15 16  1  0  0  0  0
 16 17  2  0  0  0  0
 16 18  1  0  0  0  0
 15 19  2  0  0  0  0
 19 20  1  0  0  0  0
 20 21  1  0  0  0  0
 21 22  2  0  0  0  0
 19 23  1  0  0  0  0
 23 24  2  0  0  0  0
 24 25  1  0  0  0  0
 25 26  2  0  0  0  0
 26 27  1  0  0  0  0
 27 28  2  0  0  0  0
 28 29  1  0  0  0  0
 29 30  2  0  0  0  0
 30 31  1  0  0  0  0
 31 32  2  0  0  0  0
 32 33  1  0  0  0  0
 33 34  1  0  0  0  0
 34 35  1  0  0  0  0
 32 36  1  0  0  0  0
 36 37  1  0  0  0  0
 36 38  2  0  0  0  0
 28 39  1  0  0  0  0
 39 40  2  0  0  0  0
 40 41  1  0  0  0  0
 41 42  1  0  0  0  0
 42 43  2  0  0  0  0
 43 44  1  0  0  0  0
 44 45  2  0  0  0  0
 45 46  1  0  0  0  0
 46 47  1  0  0  0  0
 47 48  1  0  0  0  0
 45 49  1  0  0  0  0
 49 50  2  0  0  0  0
 49 51  1  0  0  0  0
 41 52  2  0  0  0  0
 52 53  1  0  0  0  0
 40 54  1  0  0  0  0
 54 55  2  0  0  0  0
 55 56  1  0  0  0  0
 55 57  1  0  0  0  0
 57 58  2  0  0  0  0
 58 59  1  0  0  0  0
 59 60  2  0  0  0  0
 60 61  1  0  0  0  0
 61 62  2  0  0  0  0
 62 63  1  0  0  0  0
 63 64  2  0  0  0  0
 64 65  1  0  0  0  0
 65 66  1  0  0  0  0
 66 67  1  0  0  0  0
 64 68  1  0  0  0  0
 68 69  1  0  0  0  0
 68 70  2  0  0  0  0
 60 71  1  0  0  0  0
 71 72  2  0  0  0  0
 72 73  1  0  0  0  0
 73 74  1  0  0  0  0
 74 75  2  0  0  0  0
 75 76  1  0  0  0  0
 76 77  2  0  0  0  0
 77 78  1  0  0  0  0
 78 79  1  0  0  0  0
 79 80  1  0  0  0  0
 77 81  1  0  0  0  0
 81 82  2  0  0  0  0
 81 83  1  0  0  0  0
 73 84  2  0  0  0  0
 84 85  1  0  0  0  0
 72 86  1  0  0  0  0
 86 87  2  0  0  0  0
 87 88  1  0  0  0  0
 87 89  1  0  0  0  0
 89 90  2  0  0  0  0
 90 91  1  0  0  0  0
 91 92  2  0  0  0  0
 92 93  1  0  0  0  0
 93 94  2  0  0  0  0
 94 95  1  0  0  0  0
 95 96  2  0  0  0  0
 96 97  1  0  0  0  0
 97 98  1  0  0  0  0
 98 99  1  0  0  0  0
 96100  1  0  0  0  0
100101  1  0  0  0  0
100102  2  0  0  0  0
 92103  1  0  0  0  0
103104  2  0  0  0  0
104105  1  0  0  0  0
105106  1  0  0  0  0
106107  2  0  0  0  0
107108  1  0  0  0  0
108109  2  0  0  0  0
109110  1  0  0  0  0
110111  1  0  0  0  0
111112  1  0  0  0  0
109113  1  0  0  0  0
113114  2  0  0  0  0
113115  1  0  0  0  0
105116  2  0  0  0  0
116117  1  0  0  0  0
104118  1  0  0  0  0
118119  2  0  0  0  0
119120  1  0  0  0  0
119121  1  0  0  0  0
121122  2  0  0  0  0
122123  1  0  0  0  0
123124  2  0  0  0  0
124125  1  0  0  0  0
125126  2  0  0  0  0
126127  1  0  0  0  0
127128  2  0  0  0  0
128129  1  0  0  0  0
129130  1  0  0  0  0
130131  1  0  0  0  0
128132  1  0  0  0  0
132133  1  0  0  0  0
132134  2  0  0  0  0
124135  1  0  0  0  0
135136  2  0  0  0  0
136137  1  0  0  0  0
137138  1  0  0  0  0
138139  2  0  0  0  0
139140  1  0  0  0  0
140141  2  0  0  0  0
141142  1  0  0  0  0
142143  1  0  0  0  0
143144  1  0  0  0  0
141145  1  0  0  0  0
145146  2  0  0  0  0
145147  1  0  0  0  0
137148  2  0  0  0  0
148149  1  0  0  0  0
136150  1  0  0  0  0
150151  2  0  0  0  0
151152  1  0  0  0  0
  6  1  1  0  0  0  0
 18 13  1  0  0  0  0
 53 25  1  0  0  0  0
 85 57  1  0  0  0  0
117 89  1  0  0  0  0
149121  1  0  0  0  0
  9  2  1  0  0  0  0
 21 14  1  0  0  0  0
 52 27  1  0  0  0  0
 84 59  1  0  0  0  0
116 91  1  0  0  0  0
148123  1  0  0  0  0
 38 29  1  0  0  0  0
 56 39  1  0  0  0  0
 70 61  1  0  0  0  0
 88 71  1  0  0  0  0
102 93  1  0  0  0  0
120103  1  0  0  0  0
134125  1  0  0  0  0
152135  1  0  0  0  0
 50 42  1  0  0  0  0
 82 74  1  0  0  0  0
114106  1  0  0  0  0
146138  1  0  0  0  0
  1153  1  0  0  0  0
 11154  1  0  0  0  0
 12155  1  0  0  0  0
 23156  1  0  0  0  0
 24157  1  0  0  0  0
 26158  1  0  0  0  0
 30159  1  0  0  0  0
 31160  1  0  0  0  0
 34161  1  0  0  0  0
 34162  1  0  0  0  0
 35163  1  0  0  0  0
 35164  1  0  0  0  0
 35165  1  0  0  0  0
 38166  1  0  0  0  0
 43167  1  0  0  0  0
 44168  1  0  0  0  0
 47169  1  0  0  0  0
 47170  1  0  0  0  0
 48171  1  0  0  0  0
 48172  1  0  0  0  0
 48173  1  0  0  0  0
 50174  1  0  0  0  0
 54175  1  0  0  0  0
 58176  1  0  0  0  0
 62177  1  0  0  0  0
 63178  1  0  0  0  0
 66179  1  0  0  0  0
 66180  1  0  0  0  0
 67181  1  0  0  0  0
 67182  1  0  0  0  0
 67183  1  0  0  0  0
 70184  1  0  0  0  0
 75185  1  0  0  0  0
 76186  1  0  0  0  0
 79187  1  0  0  0  0
 79188  1  0  0  0  0
 80189  1  0  0  0  0
 80190  1  0  0  0  0
 80191  1  0  0  0  0
 82192  1  0  0  0  0
 86193  1  0  0  0  0
 90194  1  0  0  0  0
 94195  1  0  0  0  0
 95196  1  0  0  0  0
 98197  1  0  0  0  0
 98198  1  0  0  0  0
 99199  1  0  0  0  0
 99200  1  0  0  0  0
 99201  1  0  0  0  0
102202  1  0  0  0  0
107203  1  0  0  0  0
108204  1  0  0  0  0
111205  1  0  0  0  0
111206  1  0  0  0  0
112207  1  0  0  0  0
112208  1  0  0  0  0
112209  1  0  0  0  0
114210  1  0  0  0  0
118211  1  0  0  0  0
122212  1  0  0  0  0
126213  1  0  0  0  0
127214  1  0  0  0  0
130215  1  0  0  0  0
130216  1  0  0  0  0
131217  1  0  0  0  0
131218  1  0  0  0  0
131219  1  0  0  0  0
134220  1  0  0  0  0
139221  1  0  0  0  0
140222  1  0  0  0  0
143223  1  0  0  0  0
143224  1  0  0  0  0
144225  1  0  0  0  0
144226  1  0  0  0  0
144227  1  0  0  0  0
146228  1  0  0  0  0
150229  1  0  0  0  0
151230  1  0  0  0  0
M  END
