
  xtb     03052206003D
 energy: -130.402454980926 gnorm: 0.000618705876 xtb: 6.4.1 (unknown)
 87 98  0     0  0            999 V2000
    2.7424   -1.4322    0.8110 C   0  0  0  0  0  0  0  0  0  0  0  0
    1.4741   -1.5643    1.5322 C   0  0  0  0  0  0  0  0  0  0  0  0
    1.1117   -3.0405    1.6960 C   0  0  0  0  0  0  0  0  0  0  0  0
    2.2662   -3.6824    1.0171 C   0  0  0  0  0  0  0  0  0  0  0  0
    3.1713   -2.6655    0.5249 C   0  0  0  0  0  0  0  0  0  0  0  0
    4.0645   -3.7556   -0.0506 C   0  0  0  0  0  0  0  0  0  0  0  0
    3.0049   -4.6968    0.5270 C   0  0  0  0  0  3  0  0  0  0  0  0
    0.7502   -0.5378    1.9899 C   0  0  0  0  0  0  0  0  0  0  0  0
   -0.6492   -0.5188    2.5387 C   0  0  0  0  0  0  0  0  0  0  0  0
   -0.6711    0.5559    3.6578 C   0  0  0  0  0  0  0  0  0  0  0  0
    0.5208    1.3442    3.2729 C   0  0  0  0  0  0  0  0  0  0  0  0
    0.9913    0.9467    1.8969 C   0  0  0  0  0  0  0  0  0  0  0  0
    2.3046    1.7024    2.2521 C   0  0  0  0  0  0  0  0  0  0  0  0
    1.6545    1.9669    3.5950 C   0  0  0  0  0  3  0  0  0  0  0  0
   -1.4809   -1.6897    2.8587 C   0  0  0  0  0  0  0  0  0  0  0  0
   -2.2539   -2.5014    1.9771 C   0  0  0  0  0  0  0  0  0  0  0  0
   -3.0594   -3.5282    2.7850 C   0  0  0  0  0  0  0  0  0  0  0  0
   -2.6388   -3.2066    4.1698 C   0  0  0  0  0  0  0  0  0  0  0  0
   -1.7326   -2.1069    4.1458 C   0  0  0  0  0  0  0  0  0  0  0  0
   -1.6111   -2.1742    5.6641 C   0  0  0  0  0  0  0  0  0  0  0  0
   -2.6030   -3.3324    5.5238 C   0  0  0  0  0  3  0  0  0  0  0  0
   -2.2848   -2.6475    0.5819 C   0  0  0  0  0  0  0  0  0  0  0  0
   -1.5184   -1.9521   -0.4588 C   0  0  0  0  0  0  0  0  0  0  0  0
   -1.5425   -2.7379   -1.7718 C   0  0  0  0  0  0  0  0  0  0  0  0
   -2.5621   -3.7717   -1.4482 C   0  0  0  0  0  0  0  0  0  0  0  0
   -2.9480   -3.6674   -0.0910 C   0  0  0  0  0  0  0  0  0  0  0  0
   -3.8534   -4.8837   -0.2599 C   0  0  0  0  0  0  0  0  0  0  0  0
   -3.3290   -4.8695   -1.6977 C   0  0  0  0  0  3  0  0  0  0  0  0
   -0.9325   -0.7367   -0.3376 C   0  0  0  0  0  0  0  0  0  0  0  0
   -1.4335    0.3464    0.9894 S   0  0  0  0  0  0  0  0  0  0  0  0
    0.0711   -0.0718   -1.1479 C   0  0  0  0  0  0  0  0  0  0  0  0
    0.5672   -0.4924   -2.3833 C   0  0  0  0  0  0  0  0  0  0  0  0
    1.5602    0.2227   -3.0250 C   0  0  0  0  0  0  0  0  0  0  0  0
    2.0782   -0.0959   -4.2426 O   0  0  0  0  0  0  0  0  0  0  0  0
    1.5335   -1.1886   -4.9387 C   0  0  0  0  0  0  0  0  0  0  0  0
    2.1102    1.3753   -2.4203 C   0  0  0  0  0  0  0  0  0  0  0  0
    3.0899    2.0016   -3.1249 O   0  0  0  0  0  0  0  0  0  0  0  0
    3.6304    3.1888   -2.6023 C   0  0  0  0  0  0  0  0  0  0  0  0
    1.6271    1.7841   -1.1906 C   0  0  0  0  0  0  0  0  0  0  0  0
    0.6029    1.0799   -0.5765 C   0  0  0  0  0  0  0  0  0  0  0  0
    0.0789    1.4668    0.7680 C   0  0  0  0  0  0  0  0  0  0  0  0
   -0.2940    2.8975    0.9329 C   0  0  0  0  0  0  0  0  0  0  0  0
   -0.6848    3.7251   -0.0358 C   0  0  0  0  0  0  0  0  0  0  0  0
   -0.8658    3.3937   -1.4442 C   0  0  0  0  0  0  0  0  0  0  0  0
   -0.1948    4.0233   -2.4822 C   0  0  0  0  0  0  0  0  0  0  0  0
   -0.5445    3.4419   -3.8336 C   0  0  0  0  0  0  0  0  0  0  0  0
   -1.5656    2.4375   -3.4257 C   0  0  0  0  0  0  0  0  0  0  0  0
   -1.6910    2.4176   -2.0125 C   0  0  0  0  0  0  0  0  0  0  0  0
   -2.8423    1.4229   -2.1263 C   0  0  0  0  0  0  0  0  0  0  0  0
   -2.5653    1.5260   -3.6282 C   0  0  0  0  0  3  0  0  0  0  0  0
    3.1705   -0.4812    0.5525 H   0  0  0  0  0  0  0  0  0  0  0  0
    1.0234   -3.3098    2.7500 H   0  0  0  0  0  0  0  0  0  0  0  0
    0.1597   -3.2740    1.2168 H   0  0  0  0  0  0  0  0  0  0  0  0
    5.0551   -3.8228    0.3979 H   0  0  0  0  0  0  0  0  0  0  0  0
    4.1545   -3.7487   -1.1363 H   0  0  0  0  0  0  0  0  0  0  0  0
    2.9225   -5.7670    0.5186 H   0  0  0  0  0  0  0  0  0  0  0  0
   -1.6048    1.1224    3.6475 H   0  0  0  0  0  0  0  0  0  0  0  0
   -0.5687    0.0850    4.6359 H   0  0  0  0  0  0  0  0  0  0  0  0
    3.1870    1.0685    2.3028 H   0  0  0  0  0  0  0  0  0  0  0  0
    2.5079    2.5756    1.6348 H   0  0  0  0  0  0  0  0  0  0  0  0
    2.0195    2.4639    4.4741 H   0  0  0  0  0  0  0  0  0  0  0  0
   -4.1323   -3.3994    2.6261 H   0  0  0  0  0  0  0  0  0  0  0  0
   -2.8033   -4.5477    2.4894 H   0  0  0  0  0  0  0  0  0  0  0  0
   -0.6222   -2.4429    6.0386 H   0  0  0  0  0  0  0  0  0  0  0  0
   -1.9823   -1.3025    6.2055 H   0  0  0  0  0  0  0  0  0  0  0  0
   -3.0791   -3.9586    6.2522 H   0  0  0  0  0  0  0  0  0  0  0  0
   -1.8320   -2.0915   -2.6022 H   0  0  0  0  0  0  0  0  0  0  0  0
   -0.5703   -3.1897   -1.9864 H   0  0  0  0  0  0  0  0  0  0  0  0
   -3.5780   -5.7596    0.3273 H   0  0  0  0  0  0  0  0  0  0  0  0
   -4.9186   -4.6863   -0.1425 H   0  0  0  0  0  0  0  0  0  0  0  0
   -3.5181   -5.5013   -2.5426 H   0  0  0  0  0  0  0  0  0  0  0  0
    0.1679   -1.3685   -2.8537 H   0  0  0  0  0  0  0  0  0  0  0  0
    1.6924   -2.1305   -4.4025 H   0  0  0  0  0  0  0  0  0  0  0  0
    0.4635   -1.0526   -5.1272 H   0  0  0  0  0  0  0  0  0  0  0  0
    2.0646   -1.2241   -5.8885 H   0  0  0  0  0  0  0  0  0  0  0  0
    4.3506    3.5344   -3.3423 H   0  0  0  0  0  0  0  0  0  0  0  0
    2.8591    3.9523   -2.4616 H   0  0  0  0  0  0  0  0  0  0  0  0
    4.1463    3.0142   -1.6517 H   0  0  0  0  0  0  0  0  0  0  0  0
    2.0162    2.6659   -0.7099 H   0  0  0  0  0  0  0  0  0  0  0  0
   -0.2210    3.2689    1.9471 H   0  0  0  0  0  0  0  0  0  0  0  0
   -0.8645    4.7621    0.2245 H   0  0  0  0  0  0  0  0  0  0  0  0
    0.5281    4.8103   -2.3616 H   0  0  0  0  0  0  0  0  0  0  0  0
    0.3286    2.9859   -4.3101 H   0  0  0  0  0  0  0  0  0  0  0  0
   -0.9366    4.1986   -4.5181 H   0  0  0  0  0  0  0  0  0  0  0  0
   -2.6876    0.4445   -1.6737 H   0  0  0  0  0  0  0  0  0  0  0  0
   -3.8086    1.8174   -1.8113 H   0  0  0  0  0  0  0  0  0  0  0  0
   -3.0215    1.0573   -4.4777 H   0  0  0  0  0  0  0  0  0  0  0  0
  1  2  2  0  0  0  0
  2  3  1  0  0  0  0
  3  4  1  0  0  0  0
  4  5  2  0  0  0  0
  5  6  1  0  0  0  0
  6  7  1  0  0  0  0
  2  8  1  0  0  0  0
  8  9  2  0  0  0  0
  9 10  1  0  0  0  0
 10 11  1  0  0  0  0
 11 12  2  0  0  0  0
 12 13  1  0  0  0  0
 13 14  1  0  0  0  0
  9 15  1  0  0  0  0
 15 16  2  0  0  0  0
 16 17  1  0  0  0  0
 17 18  1  0  0  0  0
 18 19  2  0  0  0  0
 19 20  1  0  0  0  0
 20 21  1  0  0  0  0
 16 22  1  0  0  0  0
 22 23  2  0  0  0  0
 23 24  1  0  0  0  0
 24 25  1  0  0  0  0
 25 26  2  0  0  0  0
 26 27  1  0  0  0  0
 27 28  1  0  0  0  0
 23 29  1  0  0  0  0
 29 30  1  0  0  0  0
 29 31  2  0  0  0  0
 31 32  1  0  0  0  0
 32 33  2  0  0  0  0
 33 34  1  0  0  0  0
 34 35  1  0  0  0  0
 33 36  1  0  0  0  0
 36 37  1  0  0  0  0
 37 38  1  0  0  0  0
 36 39  2  0  0  0  0
 39 40  1  0  0  0  0
 40 41  2  0  0  0  0
 41 42  1  0  0  0  0
 42 43  2  0  0  0  0
 43 44  1  0  0  0  0
 44 45  2  0  0  0  0
 45 46  1  0  0  0  0
 46 47  1  0  0  0  0
 47 48  2  0  0  0  0
 48 49  1  0  0  0  0
 49 50  1  0  0  0  0
  5  1  1  0  0  0  0
 12  8  1  0  0  0  0
 19 15  1  0  0  0  0
 26 22  1  0  0  0  0
 41 30  1  0  0  0  0
 48 44  1  0  0  0  0
  7  4  1  0  0  0  0
 14 11  1  0  0  0  0
 21 18  1  0  0  0  0
 28 25  1  0  0  0  0
 40 31  1  0  0  0  0
 50 47  1  0  0  0  0
  1 51  1  0  0  0  0
  3 52  1  0  0  0  0
  3 53  1  0  0  0  0
  6 54  1  0  0  0  0
  6 55  1  0  0  0  0
  7 56  1  0  0  0  0
 10 57  1  0  0  0  0
 10 58  1  0  0  0  0
 13 59  1  0  0  0  0
 13 60  1  0  0  0  0
 14 61  1  0  0  0  0
 17 62  1  0  0  0  0
 17 63  1  0  0  0  0
 20 64  1  0  0  0  0
 20 65  1  0  0  0  0
 21 66  1  0  0  0  0
 24 67  1  0  0  0  0
 24 68  1  0  0  0  0
 27 69  1  0  0  0  0
 27 70  1  0  0  0  0
 28 71  1  0  0  0  0
 32 72  1  0  0  0  0
 35 73  1  0  0  0  0
 35 74  1  0  0  0  0
 35 75  1  0  0  0  0
 38 76  1  0  0  0  0
 38 77  1  0  0  0  0
 38 78  1  0  0  0  0
 39 79  1  0  0  0  0
 42 80  1  0  0  0  0
 43 81  1  0  0  0  0
 45 82  1  0  0  0  0
 46 83  1  0  0  0  0
 46 84  1  0  0  0  0
 49 85  1  0  0  0  0
 49 86  1  0  0  0  0
 50 87  1  0  0  0  0
M  END
