128

C          1.32910        1.49460        4.01780
S         -0.15400        0.84920        4.56730
C          1.39960        2.85890        4.18320
C          2.46830        3.72170        3.83330
C          2.36390        5.05870        4.07660
O          3.30970        5.99180        3.79590
C          4.50910        5.56210        3.20330
C          1.17120        5.59860        4.68480
O          1.20960        6.94260        4.87280
C          0.10690        7.56310        5.48360
C          0.12760        4.78200        5.01780
C          0.21490        3.39250        4.78230
C         -0.75030        2.41310        5.04060
C         -1.99160        2.61300        5.70230
C         -3.06640        1.79300        5.81540
C         -3.35800        0.57340        5.13750
S         -4.25490       -0.64080        5.99010
C         -3.10960        0.16060        3.82370
C         -2.49930        0.90170        2.78730
C         -2.31300        0.33390        1.55720
O         -1.68070        0.91470        0.51010
C         -1.09480        2.17870        0.69990
C         -2.85800       -0.96740        1.26860
O         -2.67000       -1.37490       -0.01130
C         -3.41780       -2.46320       -0.50270
C         -3.51530       -1.66630        2.24160
C         -3.58720       -1.15470        3.55700
C         -4.17050       -1.76210        4.67470
C         -4.54470       -3.12340        4.87930
C         -3.86530       -4.17920        4.37390
C         -2.61480       -4.05210        3.68890
S         -2.36310       -4.89510        2.19010
C         -0.92950       -3.96480        1.84250
C         -0.56430       -3.21140        2.95720
C         -1.50580       -3.28440        4.01710
C         -1.25760       -2.69570        5.32750
O         -2.09020       -2.63010        6.21800
C          0.13300       -2.23130        5.53750
C          0.52420       -1.85470        6.81900
C          1.81310       -1.42040        7.06300
C          2.73100       -1.35270        6.02430
C          2.35030       -1.70660        4.74440
C          1.05330       -2.14640        4.48660
C          0.67220       -2.46210        3.09720
O          1.37810       -2.11740        2.15630
C         -0.42380       -3.89000        0.51210
S          0.33750       -2.42320       -0.02400
C          0.26700       -2.92810       -1.67110
C         -0.20110       -4.22390       -1.80270
C         -0.63350       -4.76090       -0.56300
C         -1.20080       -6.09530       -0.47050
O         -1.60880       -6.58400        0.57720
C         -1.27760       -6.85200       -1.73680
C         -1.85150       -8.12160       -1.71360
C         -1.96250       -8.86700       -2.87200
C         -1.49820       -8.35230       -4.07420
C         -0.92260       -7.09620       -4.10920
C         -0.80530       -6.33540       -2.94900
C         -0.17690       -5.00080       -3.04240
O          0.34340       -4.61290       -4.07610
C          0.68480       -2.03610       -2.71040
S          2.12250       -1.08680       -2.54030
C          1.92680       -0.40850       -4.12460
C          0.80320       -0.91280       -4.75680
C          0.08010       -1.81350       -3.92880
C         -1.20380       -2.39210       -4.33930
O         -2.02520       -2.84380       -3.56290
C         -1.43660       -2.35490       -5.79800
C         -2.46830       -3.12580       -6.32550
C         -2.72020       -3.13050       -7.68490
C         -1.95130       -2.34710       -8.53310
C         -0.93250       -1.56730       -8.01810
C         -0.65580       -1.56790       -6.65310
C          0.45080       -0.71060       -6.16560
O          1.03690        0.04870       -6.91860
C          2.88850        0.52340       -4.63280
S          4.59850        0.26080       -4.41870
C          4.97400        1.63850       -5.35650
C          3.85560        2.27680       -5.81880
C          2.65560        1.65300       -5.38150
C          1.33730        2.24870       -5.64690
O          0.35100        2.03310       -4.97240
C          1.34160        3.21360       -6.77150
C          0.12190        3.58150       -7.32990
C          0.06850        4.49070       -8.37070
C          1.23730        5.06070       -8.85310
C          2.45470        4.71400       -8.29660
C          2.52460        3.78410       -7.26250
C          3.85930        3.43930       -6.71610
O          4.87090        4.04140       -7.01800
H          2.06150        0.83850        3.59300
H          3.34480        3.28980        3.37910
H          4.33170        5.09930        2.22690
H          5.04390        4.85520        3.84640
H          5.11160        6.45950        3.07370
H          0.36210        8.61950        5.54820
H         -0.06830        7.17010        6.49080
H         -0.80350        7.44630        4.88600
H         -0.76910        5.18100        5.46210
H         -2.04660        3.54840        6.24620
H         -3.81370        2.07760        6.54680
H         -2.20720        1.91960        2.98010
H         -0.60280        2.41750       -0.24150
H         -1.84770        2.94340        0.91830
H         -0.35430        2.16170        1.50620
H         -4.49170       -2.26160       -0.44030
H         -3.20000       -3.39260        0.03360
H         -3.12200       -2.57330       -1.54570
H         -3.99400       -2.60640        2.02410
H         -5.40640       -3.30470        5.50790
H         -4.29110       -5.17110        4.43570
H         -0.20800       -1.91260        7.61050
H          2.10620       -1.13480        8.06220
H          3.74010       -1.01820        6.21420
H          3.04710       -1.65600        3.92020
H         -2.20610       -8.50310       -0.76760
H         -2.41000       -9.84910       -2.84040
H         -1.58500       -8.93200       -4.98120
H         -0.55170       -6.67440       -5.03180
H         -3.05810       -3.72230       -5.64500
H         -3.51590       -3.74150       -8.08450
H         -2.14750       -2.34480       -9.59500
H         -0.32660       -0.94470       -8.66000
H          5.99440        1.91070       -5.54330
H         -0.77630        3.13310       -6.93230
H         -0.88370        4.75950       -8.80350
H          1.19830        5.77590       -9.66130
H          3.37630        5.15080       -8.65220
