
  xtb     03042212183D
 energy: -212.715844607964 gnorm: 0.000389099437 xtb: 6.4.1 (unknown)
116123  0     0  0            999 V2000
    5.8803   -0.1071   -0.9526 C   0  0  0  0  0  0  0  0  0  0  0  0
    4.3706   -0.1391   -0.1009 S   0  0  0  0  0  0  0  0  0  0  0  0
    4.5797    1.5523    0.2539 C   0  0  0  0  0  0  0  0  0  0  0  0
    5.7781    1.9837   -0.3095 C   0  0  0  0  0  0  0  0  0  0  0  0
    6.4718    1.0241   -0.9683 N   0  0  0  0  0  0  0  0  0  0  0  0
    6.3716    3.3348   -0.2944 C   0  0  0  0  0  0  0  0  0  0  0  0
    7.3505    3.6462   -0.9213 O   0  0  0  0  0  0  0  0  0  0  0  0
    5.7049    4.1958    0.4944 O   0  0  0  0  0  0  0  0  0  0  0  0
    6.2292    5.5153    0.5391 C   0  0  0  0  0  0  0  0  0  0  0  0
    3.6137    2.2841    1.0001 C   0  0  0  0  0  0  0  0  0  0  0  0
    2.5424    1.7149    1.5908 C   0  0  0  0  0  0  0  0  0  0  0  0
    1.6126    2.4384    2.3891 C   0  0  0  0  0  0  0  0  0  0  0  0
    0.3979    1.5490    3.3088 S   0  0  0  0  0  0  0  0  0  0  0  0
   -0.1807    3.0494    3.9510 C   0  0  0  0  0  0  0  0  0  0  0  0
    0.5867    4.0875    3.4183 C   0  0  0  0  0  0  0  0  0  0  0  0
    1.5580    3.7183    2.5647 N   0  0  0  0  0  0  0  0  0  0  0  0
    0.4084    5.5167    3.7338 C   0  0  0  0  0  0  0  0  0  0  0  0
   -0.4521    5.9702    4.4538 O   0  0  0  0  0  0  0  0  0  0  0  0
    1.3268    6.2671    3.1239 O   0  0  0  0  0  0  0  0  0  0  0  0
    1.2436    7.6623    3.3652 C   0  0  0  0  0  0  0  0  0  0  0  0
   -1.2064    3.1595    4.9444 C   0  0  0  0  0  0  0  0  0  0  0  0
   -1.9916    2.1675    5.3932 C   0  0  0  0  0  0  0  0  0  0  0  0
   -2.0105    0.8326    4.8254 C   0  0  0  0  0  0  0  0  0  0  0  0
   -2.5965    0.5913    3.1689 S   0  0  0  0  0  0  0  0  0  0  0  0
   -2.1206   -1.0839    3.2759 C   0  0  0  0  0  0  0  0  0  0  0  0
   -1.6437   -1.3341    4.5680 C   0  0  0  0  0  0  0  0  0  0  0  0
   -1.6115   -0.2469    5.3797 N   0  0  0  0  0  0  0  0  0  0  0  0
   -1.1830   -2.5950    5.1557 C   0  0  0  0  0  0  0  0  0  0  0  0
   -1.0130   -3.6498    4.5805 O   0  0  0  0  0  0  0  0  0  0  0  0
   -0.9595   -2.4497    6.4672 O   0  0  0  0  0  0  0  0  0  0  0  0
   -0.5022   -3.6036    7.1484 C   0  0  0  0  0  0  0  0  0  0  0  0
   -2.2095   -1.8160    2.0697 C   0  0  0  0  0  0  0  0  0  0  0  0
   -1.6815   -3.0369    1.7876 C   0  0  0  0  0  0  0  0  0  0  0  0
   -1.6616   -3.5625    0.4826 C   0  0  0  0  0  0  0  0  0  0  0  0
   -2.3585   -2.6866   -0.8460 S   0  0  0  0  0  0  0  0  0  0  0  0
   -1.0262   -4.7242    0.0187 C   0  0  0  0  0  0  0  0  0  0  0  0
   -0.3511   -5.6865    0.7937 C   0  0  0  0  0  0  0  0  0  0  0  0
    0.2326   -6.7637    0.1833 C   0  0  0  0  0  0  0  0  0  0  0  0
    0.9057   -7.7546    0.8146 O   0  0  0  0  0  0  0  0  0  0  0  0
    1.0348   -7.6843    2.2145 C   0  0  0  0  0  0  0  0  0  0  0  0
    0.1614   -6.9137   -1.2472 C   0  0  0  0  0  0  0  0  0  0  0  0
    0.7822   -8.0231   -1.7197 O   0  0  0  0  0  0  0  0  0  0  0  0
    0.7539   -8.2685   -3.1031 C   0  0  0  0  0  0  0  0  0  0  0  0
   -0.4885   -5.9825   -2.0105 C   0  0  0  0  0  0  0  0  0  0  0  0
   -1.1024   -4.8703   -1.3958 C   0  0  0  0  0  0  0  0  0  0  0  0
   -1.7936   -3.8204   -2.0202 C   0  0  0  0  0  0  0  0  0  0  0  0
   -2.1253   -3.7100   -3.3985 C   0  0  0  0  0  0  0  0  0  0  0  0
   -2.6914   -2.6507   -4.0205 C   0  0  0  0  0  0  0  0  0  0  0  0
   -2.8834   -1.3361   -3.4670 C   0  0  0  0  0  0  0  0  0  0  0  0
   -1.5792   -0.4243   -2.7912 S   0  0  0  0  0  0  0  0  0  0  0  0
   -4.0694   -0.6021   -3.4756 C   0  0  0  0  0  0  0  0  0  0  0  0
   -5.3238   -1.0211   -3.9703 C   0  0  0  0  0  0  0  0  0  0  0  0
   -6.4074   -0.1964   -3.8583 C   0  0  0  0  0  0  0  0  0  0  0  0
   -7.6609   -0.4710   -4.3008 O   0  0  0  0  0  0  0  0  0  0  0  0
   -7.8863   -1.7068   -4.9309 C   0  0  0  0  0  0  0  0  0  0  0  0
   -6.2721    1.0884   -3.2251 C   0  0  0  0  0  0  0  0  0  0  0  0
   -7.4225    1.8052   -3.1766 O   0  0  0  0  0  0  0  0  0  0  0  0
   -7.3993    3.0715   -2.5669 C   0  0  0  0  0  0  0  0  0  0  0  0
   -5.0618    1.4981   -2.7328 C   0  0  0  0  0  0  0  0  0  0  0  0
   -3.9314    0.6634   -2.8422 C   0  0  0  0  0  0  0  0  0  0  0  0
   -2.6142    0.9215   -2.4107 C   0  0  0  0  0  0  0  0  0  0  0  0
   -2.2138    2.1102   -1.7683 C   0  0  0  0  0  0  0  0  0  0  0  0
   -0.9803    2.6249   -1.5052 C   0  0  0  0  0  0  0  0  0  0  0  0
    0.2711    2.0638   -1.8477 C   0  0  0  0  0  0  0  0  0  0  0  0
    1.7006    3.1137   -1.9574 S   0  0  0  0  0  0  0  0  0  0  0  0
    2.6173    1.7524   -2.5235 C   0  0  0  0  0  0  0  0  0  0  0  0
    1.8029    0.6265   -2.5323 C   0  0  0  0  0  0  0  0  0  0  0  0
    0.5220    0.8375   -2.1668 N   0  0  0  0  0  0  0  0  0  0  0  0
    2.2423   -0.7370   -2.8646 C   0  0  0  0  0  0  0  0  0  0  0  0
    3.3903   -1.0684   -3.0659 O   0  0  0  0  0  0  0  0  0  0  0  0
    1.2083   -1.5802   -2.9031 O   0  0  0  0  0  0  0  0  0  0  0  0
    1.4920   -2.9386   -3.1907 C   0  0  0  0  0  0  0  0  0  0  0  0
    3.9755    1.8610   -2.9664 C   0  0  0  0  0  0  0  0  0  0  0  0
    4.6809    2.9909   -2.9520 C   0  0  0  0  0  0  0  0  0  0  0  0
    6.2568   -0.9916   -1.4253 H   0  0  0  0  0  0  0  0  0  0  0  0
    6.2197    5.9613   -0.4576 H   0  0  0  0  0  0  0  0  0  0  0  0
    5.5856    6.0713    1.2157 H   0  0  0  0  0  0  0  0  0  0  0  0
    7.2573    5.5028    0.9066 H   0  0  0  0  0  0  0  0  0  0  0  0
    3.7730    3.3455    1.1086 H   0  0  0  0  0  0  0  0  0  0  0  0
    2.3694    0.6493    1.5120 H   0  0  0  0  0  0  0  0  0  0  0  0
    1.4240    7.8777    4.4208 H   0  0  0  0  0  0  0  0  0  0  0  0
    2.0084    8.1235    2.7459 H   0  0  0  0  0  0  0  0  0  0  0  0
    0.2531    8.0373    3.0978 H   0  0  0  0  0  0  0  0  0  0  0  0
   -1.2958    4.1474    5.3751 H   0  0  0  0  0  0  0  0  0  0  0  0
   -2.6622    2.3477    6.2218 H   0  0  0  0  0  0  0  0  0  0  0  0
    0.4679   -3.9199    6.7575 H   0  0  0  0  0  0  0  0  0  0  0  0
   -0.4172   -3.3227    8.1949 H   0  0  0  0  0  0  0  0  0  0  0  0
   -1.2116   -4.4261    7.0278 H   0  0  0  0  0  0  0  0  0  0  0  0
   -2.6764   -1.2702    1.2571 H   0  0  0  0  0  0  0  0  0  0  0  0
   -1.2107   -3.6100    2.5708 H   0  0  0  0  0  0  0  0  0  0  0  0
   -0.3121   -5.5554    1.8618 H   0  0  0  0  0  0  0  0  0  0  0  0
    0.0591   -7.7128    2.7096 H   0  0  0  0  0  0  0  0  0  0  0  0
    1.5693   -6.7805    2.5231 H   0  0  0  0  0  0  0  0  0  0  0  0
    1.6120   -8.5621    2.5000 H   0  0  0  0  0  0  0  0  0  0  0  0
   -0.2719   -8.3756   -3.4714 H   0  0  0  0  0  0  0  0  0  0  0  0
    1.2599   -7.4746   -3.6630 H   0  0  0  0  0  0  0  0  0  0  0  0
    1.2874   -9.2066   -3.2462 H   0  0  0  0  0  0  0  0  0  0  0  0
   -0.5399   -6.0838   -3.0819 H   0  0  0  0  0  0  0  0  0  0  0  0
   -1.9693   -4.6111   -3.9788 H   0  0  0  0  0  0  0  0  0  0  0  0
   -3.0489   -2.7894   -5.0346 H   0  0  0  0  0  0  0  0  0  0  0  0
   -5.3969   -1.9920   -4.4316 H   0  0  0  0  0  0  0  0  0  0  0  0
   -7.2817   -1.8114   -5.8380 H   0  0  0  0  0  0  0  0  0  0  0  0
   -7.6771   -2.5451   -4.2580 H   0  0  0  0  0  0  0  0  0  0  0  0
   -8.9416   -1.7128   -5.1983 H   0  0  0  0  0  0  0  0  0  0  0  0
   -6.7227    3.7568   -3.0884 H   0  0  0  0  0  0  0  0  0  0  0  0
   -8.4180    3.4494   -2.6362 H   0  0  0  0  0  0  0  0  0  0  0  0
   -7.1083    3.0055   -1.5133 H   0  0  0  0  0  0  0  0  0  0  0  0
   -4.9647    2.4605   -2.2588 H   0  0  0  0  0  0  0  0  0  0  0  0
   -3.0432    2.7440   -1.4788 H   0  0  0  0  0  0  0  0  0  0  0  0
   -0.9291    3.6090   -1.0607 H   0  0  0  0  0  0  0  0  0  0  0  0
    1.6571   -3.4878   -2.2607 H   0  0  0  0  0  0  0  0  0  0  0  0
    0.6189   -3.3358   -3.7041 H   0  0  0  0  0  0  0  0  0  0  0  0
    2.3831   -3.0148   -3.8177 H   0  0  0  0  0  0  0  0  0  0  0  0
    4.4059    0.9395   -3.3332 H   0  0  0  0  0  0  0  0  0  0  0  0
    4.2566    3.9119   -2.5832 H   0  0  0  0  0  0  0  0  0  0  0  0
    5.6980    3.0245   -3.2983 H   0  0  0  0  0  0  0  0  0  0  0  0
  1  2  1  0  0  0  0
  2  3  1  0  0  0  0
  3  4  2  0  0  0  0
  4  5  1  0  0  0  0
  4  6  1  0  0  0  0
  6  7  2  0  0  0  0
  6  8  1  0  0  0  0
  8  9  1  0  0  0  0
  3 10  1  0  0  0  0
 10 11  2  0  0  0  0
 11 12  1  0  0  0  0
 12 13  1  0  0  0  0
 13 14  1  0  0  0  0
 14 15  2  0  0  0  0
 15 16  1  0  0  0  0
 15 17  1  0  0  0  0
 17 18  2  0  0  0  0
 17 19  1  0  0  0  0
 19 20  1  0  0  0  0
 14 21  1  0  0  0  0
 21 22  2  0  0  0  0
 22 23  1  0  0  0  0
 23 24  1  0  0  0  0
 24 25  1  0  0  0  0
 25 26  2  0  0  0  0
 26 27  1  0  0  0  0
 26 28  1  0  0  0  0
 28 29  2  0  0  0  0
 28 30  1  0  0  0  0
 30 31  1  0  0  0  0
 25 32  1  0  0  0  0
 32 33  2  0  0  0  0
 33 34  1  0  0  0  0
 34 35  1  0  0  0  0
 34 36  2  0  0  0  0
 36 37  1  0  0  0  0
 37 38  2  0  0  0  0
 38 39  1  0  0  0  0
 39 40  1  0  0  0  0
 38 41  1  0  0  0  0
 41 42  1  0  0  0  0
 42 43  1  0  0  0  0
 41 44  2  0  0  0  0
 44 45  1  0  0  0  0
 45 46  2  0  0  0  0
 46 47  1  0  0  0  0
 47 48  2  0  0  0  0
 48 49  1  0  0  0  0
 49 50  1  0  0  0  0
 49 51  2  0  0  0  0
 51 52  1  0  0  0  0
 52 53  2  0  0  0  0
 53 54  1  0  0  0  0
 54 55  1  0  0  0  0
 53 56  1  0  0  0  0
 56 57  1  0  0  0  0
 57 58  1  0  0  0  0
 56 59  2  0  0  0  0
 59 60  1  0  0  0  0
 60 61  2  0  0  0  0
 61 62  1  0  0  0  0
 62 63  2  0  0  0  0
 63 64  1  0  0  0  0
 64 65  1  0  0  0  0
 65 66  1  0  0  0  0
 66 67  2  0  0  0  0
 67 68  1  0  0  0  0
 67 69  1  0  0  0  0
 69 70  2  0  0  0  0
 69 71  1  0  0  0  0
 71 72  1  0  0  0  0
 66 73  1  0  0  0  0
 73 74  2  0  0  0  0
  5  1  2  0  0  0  0
 16 12  2  0  0  0  0
 27 23  2  0  0  0  0
 46 35  1  0  0  0  0
 61 50  1  0  0  0  0
 68 64  2  0  0  0  0
 45 36  1  0  0  0  0
 60 51  1  0  0  0  0
  1 75  1  0  0  0  0
  9 76  1  0  0  0  0
  9 77  1  0  0  0  0
  9 78  1  0  0  0  0
 10 79  1  0  0  0  0
 11 80  1  0  0  0  0
 20 81  1  0  0  0  0
 20 82  1  0  0  0  0
 20 83  1  0  0  0  0
 21 84  1  0  0  0  0
 22 85  1  0  0  0  0
 31 86  1  0  0  0  0
 31 87  1  0  0  0  0
 31 88  1  0  0  0  0
 32 89  1  0  0  0  0
 33 90  1  0  0  0  0
 37 91  1  0  0  0  0
 40 92  1  0  0  0  0
 40 93  1  0  0  0  0
 40 94  1  0  0  0  0
 43 95  1  0  0  0  0
 43 96  1  0  0  0  0
 43 97  1  0  0  0  0
 44 98  1  0  0  0  0
 47 99  1  0  0  0  0
 48100  1  0  0  0  0
 52101  1  0  0  0  0
 55102  1  0  0  0  0
 55103  1  0  0  0  0
 55104  1  0  0  0  0
 58105  1  0  0  0  0
 58106  1  0  0  0  0
 58107  1  0  0  0  0
 59108  1  0  0  0  0
 62109  1  0  0  0  0
 63110  1  0  0  0  0
 72111  1  0  0  0  0
 72112  1  0  0  0  0
 72113  1  0  0  0  0
 73114  1  0  0  0  0
 74115  1  0  0  0  0
 74116  1  0  0  0  0
M  END
