
  xtb     03082206583D
 energy: -434.762437064737 gnorm: 0.000432479345 xtb: 6.4.1 (unknown)
252275  0     0  0            999 V2000
    1.9512    1.2859    8.7618 C   0  0  0  0  0  0  0  0  0  0  0  0
    0.5469    0.8720    7.8879 S   0  0  0  0  0  0  0  0  0  0  0  0
    3.0667    1.3283    7.9589 C   0  0  0  0  0  0  0  0  0  0  0  0
    4.3888    1.6553    8.3498 C   0  0  0  0  0  0  0  0  0  0  0  0
    5.3793    1.6726    7.4142 C   0  0  0  0  0  0  0  0  0  0  0  0
    6.6855    1.9647    7.6495 O   0  0  0  0  0  0  0  0  0  0  0  0
    7.0607    2.2944    8.9630 C   0  0  0  0  0  0  0  0  0  0  0  0
    5.0846    1.3630    6.0350 C   0  0  0  0  0  0  0  0  0  0  0  0
    6.1678    1.4531    5.2203 O   0  0  0  0  0  0  0  0  0  0  0  0
    5.9749    1.3147    3.8371 C   0  0  0  0  0  0  0  0  0  0  0  0
    3.8190    1.0254    5.6455 C   0  0  0  0  0  0  0  0  0  0  0  0
    2.7759    0.9978    6.5967 C   0  0  0  0  0  0  0  0  0  0  0  0
    1.4223    0.7220    6.3904 C   0  0  0  0  0  0  0  0  0  0  0  0
    0.7444    0.3935    5.1908 C   0  0  0  0  0  0  0  0  0  0  0  0
   -0.6039    0.3914    5.0713 C   0  0  0  0  0  0  0  0  0  0  0  0
   -1.3364    0.1140    3.8872 C   0  0  0  0  0  0  0  0  0  0  0  0
   -2.6660    0.3619    3.6853 C   0  0  0  0  0  0  0  0  0  0  0  0
   -3.1192    0.0871    2.3721 C   0  0  0  0  0  0  0  0  0  0  0  0
   -4.4165    0.2691    1.8492 C   0  0  0  0  0  0  0  0  0  0  0  0
   -5.5429    0.6312    2.7159 C   0  0  0  0  0  0  0  0  0  0  0  0
   -6.4533    1.6238    2.3576 C   0  0  0  0  0  0  0  0  0  0  0  0
   -7.5061    1.9472    3.1842 C   0  0  0  0  0  0  0  0  0  0  0  0
   -7.7023    1.2975    4.3996 C   0  0  0  0  0  0  0  0  0  0  0  0
   -9.0576    1.8370    5.4036 S   0  0  0  0  0  0  0  0  0  0  0  0
   -9.7698    0.2795    6.0505 C   0  0  0  0  0  0  0  0  0  0  0  0
  -10.2007   -0.6512    4.9350 C   0  0  0  0  0  0  0  0  0  0  0  0
   -6.7844    0.3132    4.7508 C   0  0  0  0  0  0  0  0  0  0  0  0
   -6.8938   -0.3503    5.9252 F   0  0  0  0  0  0  0  0  0  0  0  0
   -5.7320   -0.0295    3.9273 C   0  0  0  0  0  0  0  0  0  0  0  0
   -4.5651    0.0707    0.4846 C   0  0  0  0  0  0  0  0  0  0  0  0
   -3.5159   -0.4055   -0.3368 C   0  0  0  0  0  0  0  0  0  0  0  0
   -2.2650   -0.7458    0.2167 C   0  0  0  0  0  0  0  0  0  0  0  0
   -1.2981   -1.5385   -0.5483 C   0  0  0  0  0  0  0  0  0  0  0  0
    0.0778   -1.3453   -0.4637 C   0  0  0  0  0  0  0  0  0  0  0  0
    0.9625   -2.1856   -1.1105 C   0  0  0  0  0  0  0  0  0  0  0  0
    0.5123   -3.2511   -1.8797 C   0  0  0  0  0  0  0  0  0  0  0  0
    1.5531   -4.3705   -2.7594 S   0  0  0  0  0  0  0  0  0  0  0  0
    3.1245   -4.3292   -1.8310 C   0  0  0  0  0  0  0  0  0  0  0  0
    2.9830   -4.8969   -0.4322 C   0  0  0  0  0  0  0  0  0  0  0  0
   -0.8683   -3.4225   -1.9787 C   0  0  0  0  0  0  0  0  0  0  0  0
   -1.7604   -2.6029   -1.3274 C   0  0  0  0  0  0  0  0  0  0  0  0
   -1.3582   -4.4411   -2.7187 F   0  0  0  0  0  0  0  0  0  0  0  0
   -2.0740   -0.4092    1.5504 C   0  0  0  0  0  0  0  0  0  0  0  0
   -0.5855   -0.5617    2.4530 S   0  0  0  0  0  0  0  0  0  0  0  0
   -3.8974   -0.4870   -1.6975 C   0  0  0  0  0  0  0  0  0  0  0  0
   -5.2097   -0.1835   -1.9357 C   0  0  0  0  0  0  0  0  0  0  0  0
   -6.0285    0.2837   -0.4480 S   0  0  0  0  0  0  0  0  0  0  0  0
   -5.9138   -0.1790   -3.1712 C   0  0  0  0  0  0  0  0  0  0  0  0
   -7.4732    0.5905   -3.2738 S   0  0  0  0  0  0  0  0  0  0  0  0
   -5.5328   -0.6806   -4.4181 C   0  0  0  0  0  0  0  0  0  0  0  0
   -4.3888   -1.4328   -4.7708 C   0  0  0  0  0  0  0  0  0  0  0  0
   -4.1656   -1.7907   -6.0708 C   0  0  0  0  0  0  0  0  0  0  0  0
   -3.0944   -2.4807   -6.5210 O   0  0  0  0  0  0  0  0  0  0  0  0
   -2.1138   -2.8902   -5.5976 C   0  0  0  0  0  0  0  0  0  0  0  0
   -5.1158   -1.4438   -7.1008 C   0  0  0  0  0  0  0  0  0  0  0  0
   -4.7655   -1.8568   -8.3422 O   0  0  0  0  0  0  0  0  0  0  0  0
   -5.6196   -1.5496   -9.4158 C   0  0  0  0  0  0  0  0  0  0  0  0
   -6.2528   -0.7660   -6.7788 C   0  0  0  0  0  0  0  0  0  0  0  0
   -6.4785   -0.3595   -5.4408 C   0  0  0  0  0  0  0  0  0  0  0  0
   -7.5796    0.3448   -4.9797 C   0  0  0  0  0  0  0  0  0  0  0  0
   -8.5686    0.9797   -5.8465 C   0  0  0  0  0  0  0  0  0  0  0  0
   -8.1719    1.9168   -6.7160 C   0  0  0  0  0  0  0  0  0  0  0  0
   -6.8144    2.4311   -6.5742 C   0  0  0  0  0  0  0  0  0  0  0  0
   -6.3476    2.9409   -5.4085 C   0  0  0  0  0  0  0  0  0  0  0  0
   -4.9390    3.0775   -5.3591 C   0  0  0  0  0  0  0  0  0  0  0  0
   -4.1703    3.4415   -4.2470 C   0  0  0  0  0  0  0  0  0  0  0  0
   -4.7703    3.8563   -2.9738 C   0  0  0  0  0  0  0  0  0  0  0  0
   -5.7680    4.8240   -2.9062 C   0  0  0  0  0  0  0  0  0  0  0  0
   -6.3014    5.2227   -1.6943 C   0  0  0  0  0  0  0  0  0  0  0  0
   -5.8360    4.6855   -0.4991 C   0  0  0  0  0  0  0  0  0  0  0  0
   -6.4015    5.1222    1.1098 S   0  0  0  0  0  0  0  0  0  0  0  0
   -7.9037    6.1151    0.7835 C   0  0  0  0  0  0  0  0  0  0  0  0
   -8.6029    6.3832    2.1028 C   0  0  0  0  0  0  0  0  0  0  0  0
   -4.8226    3.7306   -0.5823 C   0  0  0  0  0  0  0  0  0  0  0  0
   -4.3052    3.2171    0.5552 F   0  0  0  0  0  0  0  0  0  0  0  0
   -4.3162    3.2934   -1.7814 C   0  0  0  0  0  0  0  0  0  0  0  0
   -2.8002    3.2947   -4.3848 C   0  0  0  0  0  0  0  0  0  0  0  0
   -2.1699    2.8166   -5.5588 C   0  0  0  0  0  0  0  0  0  0  0  0
   -2.9436    2.5299   -6.6990 C   0  0  0  0  0  0  0  0  0  0  0  0
   -2.3085    2.1404   -7.9624 C   0  0  0  0  0  0  0  0  0  0  0  0
   -1.2517    2.8962   -8.4720 C   0  0  0  0  0  0  0  0  0  0  0  0
   -0.6884    2.5840   -9.6894 C   0  0  0  0  0  0  0  0  0  0  0  0
   -1.1417    1.5021  -10.4433 C   0  0  0  0  0  0  0  0  0  0  0  0
   -0.3178    1.1956  -11.9768 S   0  0  0  0  0  0  0  0  0  0  0  0
   -1.6410    0.6177  -13.1024 C   0  0  0  0  0  0  0  0  0  0  0  0
   -2.7635    1.6282  -13.2279 C   0  0  0  0  0  0  0  0  0  0  0  0
   -2.1660    0.7305   -9.9017 C   0  0  0  0  0  0  0  0  0  0  0  0
   -2.7529    1.0438   -8.6925 C   0  0  0  0  0  0  0  0  0  0  0  0
   -2.6293   -0.3571  -10.5529 F   0  0  0  0  0  0  0  0  0  0  0  0
   -4.3213    2.6431   -6.5566 C   0  0  0  0  0  0  0  0  0  0  0  0
   -5.5297    2.1998   -7.7430 S   0  0  0  0  0  0  0  0  0  0  0  0
   -0.7871    2.5517   -5.3405 C   0  0  0  0  0  0  0  0  0  0  0  0
   -0.3706    2.8488   -4.0771 C   0  0  0  0  0  0  0  0  0  0  0  0
   -1.6481    3.5802   -3.1169 S   0  0  0  0  0  0  0  0  0  0  0  0
    0.7732    2.4292   -3.3330 C   0  0  0  0  0  0  0  0  0  0  0  0
    0.9049    2.6175   -1.9873 C   0  0  0  0  0  0  0  0  0  0  0  0
    1.8528    1.7689   -1.3767 C   0  0  0  0  0  0  0  0  0  0  0  0
    2.0416    1.5676    0.0016 C   0  0  0  0  0  0  0  0  0  0  0  0
    1.2123    2.2132    1.0261 C   0  0  0  0  0  0  0  0  0  0  0  0
   -0.1720    2.3173    0.8890 C   0  0  0  0  0  0  0  0  0  0  0  0
   -0.9564    2.8603    1.8879 C   0  0  0  0  0  0  0  0  0  0  0  0
   -0.3877    3.3073    3.0756 C   0  0  0  0  0  0  0  0  0  0  0  0
   -1.2763    3.9981    4.4259 S   0  0  0  0  0  0  0  0  0  0  0  0
   -2.8074    4.6589    3.6669 C   0  0  0  0  0  0  0  0  0  0  0  0
   -3.9853    3.7126    3.7762 C   0  0  0  0  0  0  0  0  0  0  0  0
    0.9954    3.1776    3.2135 C   0  0  0  0  0  0  0  0  0  0  0  0
    1.5876    3.5922    4.3512 F   0  0  0  0  0  0  0  0  0  0  0  0
    1.7881    2.6573    2.2166 C   0  0  0  0  0  0  0  0  0  0  0  0
    2.9699    0.5955    0.3473 C   0  0  0  0  0  0  0  0  0  0  0  0
    3.7072   -0.1498   -0.6043 C   0  0  0  0  0  0  0  0  0  0  0  0
    3.5039    0.0469   -1.9856 C   0  0  0  0  0  0  0  0  0  0  0  0
    4.1962   -0.8240   -2.9438 C   0  0  0  0  0  0  0  0  0  0  0  0
    5.5687   -1.0396   -2.8379 C   0  0  0  0  0  0  0  0  0  0  0  0
    6.2140   -1.9732   -3.6255 C   0  0  0  0  0  0  0  0  0  0  0  0
    5.5080   -2.7222   -4.5601 C   0  0  0  0  0  0  0  0  0  0  0  0
    6.1635   -4.0197   -5.5530 S   0  0  0  0  0  0  0  0  0  0  0  0
    7.9299   -4.1099   -5.0955 C   0  0  0  0  0  0  0  0  0  0  0  0
    8.7621   -3.0424   -5.7806 C   0  0  0  0  0  0  0  0  0  0  0  0
    4.1447   -2.4492   -4.7029 C   0  0  0  0  0  0  0  0  0  0  0  0
    3.4885   -1.5287   -3.9172 C   0  0  0  0  0  0  0  0  0  0  0  0
    3.4398   -3.1355   -5.6205 F   0  0  0  0  0  0  0  0  0  0  0  0
    2.5441    0.9822   -2.3353 C   0  0  0  0  0  0  0  0  0  0  0  0
    1.9550    1.2946   -3.9529 S   0  0  0  0  0  0  0  0  0  0  0  0
    4.4577   -1.1836    0.0106 C   0  0  0  0  0  0  0  0  0  0  0  0
    4.2926   -1.2540    1.3624 C   0  0  0  0  0  0  0  0  0  0  0  0
    3.2327   -0.0029    1.9626 S   0  0  0  0  0  0  0  0  0  0  0  0
    4.8411   -2.2365    2.2393 C   0  0  0  0  0  0  0  0  0  0  0  0
    5.5939   -3.3144    1.8777 C   0  0  0  0  0  0  0  0  0  0  0  0
    5.9481   -4.1475    2.9669 C   0  0  0  0  0  0  0  0  0  0  0  0
    6.6452   -5.3659    2.9268 C   0  0  0  0  0  0  0  0  0  0  0  0
    7.1512   -5.8559    1.6382 C   0  0  0  0  0  0  0  0  0  0  0  0
    7.9244   -5.0238    0.8274 C   0  0  0  0  0  0  0  0  0  0  0  0
    8.2831   -5.4157   -0.4431 C   0  0  0  0  0  0  0  0  0  0  0  0
    7.8976   -6.6533   -0.9565 C   0  0  0  0  0  0  0  0  0  0  0  0
    8.3795   -7.0156   -2.6201 S   0  0  0  0  0  0  0  0  0  0  0  0
    6.9550   -7.9327   -3.3156 C   0  0  0  0  0  0  0  0  0  0  0  0
    5.6669   -7.1399   -3.2312 C   0  0  0  0  0  0  0  0  0  0  0  0
    7.1987   -7.5053   -0.1062 C   0  0  0  0  0  0  0  0  0  0  0  0
    6.8496   -8.7465   -0.5067 F   0  0  0  0  0  0  0  0  0  0  0  0
    6.8156   -7.1181    1.1637 C   0  0  0  0  0  0  0  0  0  0  0  0
    6.7784   -6.0423    4.1295 C   0  0  0  0  0  0  0  0  0  0  0  0
    6.2759   -5.5429    5.3587 C   0  0  0  0  0  0  0  0  0  0  0  0
    5.5876   -4.3235    5.3973 C   0  0  0  0  0  0  0  0  0  0  0  0
    5.0082   -3.7495    6.6197 C   0  0  0  0  0  0  0  0  0  0  0  0
    5.3075   -2.4389    6.9888 C   0  0  0  0  0  0  0  0  0  0  0  0
    4.6931   -1.8597    8.0769 C   0  0  0  0  0  0  0  0  0  0  0  0
    3.7492   -2.5538    8.8295 C   0  0  0  0  0  0  0  0  0  0  0  0
    3.0108   -1.6996   10.1900 S   0  0  0  0  0  0  0  0  0  0  0  0
    1.2383   -2.1803   10.1079 C   0  0  0  0  0  0  0  0  0  0  0  0
    0.8307   -3.0899   11.2493 C   0  0  0  0  0  0  0  0  0  0  0  0
    3.4922   -3.8747    8.4757 C   0  0  0  0  0  0  0  0  0  0  0  0
    4.1013   -4.4699    7.3884 C   0  0  0  0  0  0  0  0  0  0  0  0
    2.6235   -4.6252    9.1885 F   0  0  0  0  0  0  0  0  0  0  0  0
    5.4367   -3.6576    4.1907 C   0  0  0  0  0  0  0  0  0  0  0  0
    4.5369   -2.1831    3.9636 S   0  0  0  0  0  0  0  0  0  0  0  0
    6.5954   -6.4096    6.4457 C   0  0  0  0  0  0  0  0  0  0  0  0
    7.2868   -7.5011    6.0615 C   0  0  0  0  0  0  0  0  0  0  0  0
    7.6051   -7.5604    4.3607 S   0  0  0  0  0  0  0  0  0  0  0  0
    1.8908    1.4808    9.8138 H   0  0  0  0  0  0  0  0  0  0  0  0
    4.5712    1.8874    9.3862 H   0  0  0  0  0  0  0  0  0  0  0  0
    6.5341    3.1858    9.3193 H   0  0  0  0  0  0  0  0  0  0  0  0
    8.1293    2.4983    8.9225 H   0  0  0  0  0  0  0  0  0  0  0  0
    6.8752    1.4652    9.6544 H   0  0  0  0  0  0  0  0  0  0  0  0
    5.6454    0.3044    3.5773 H   0  0  0  0  0  0  0  0  0  0  0  0
    5.2450    2.0388    3.4613 H   0  0  0  0  0  0  0  0  0  0  0  0
    6.9449    1.5078    3.3812 H   0  0  0  0  0  0  0  0  0  0  0  0
    3.5934    0.7867    4.6201 H   0  0  0  0  0  0  0  0  0  0  0  0
    1.3576    0.1635    4.3285 H   0  0  0  0  0  0  0  0  0  0  0  0
   -1.2058    0.6764    5.9254 H   0  0  0  0  0  0  0  0  0  0  0  0
   -3.2894    0.7800    4.4546 H   0  0  0  0  0  0  0  0  0  0  0  0
   -6.3267    2.1624    1.4350 H   0  0  0  0  0  0  0  0  0  0  0  0
   -8.2015    2.7212    2.9004 H   0  0  0  0  0  0  0  0  0  0  0  0
   -9.0489   -0.1889    6.7169 H   0  0  0  0  0  0  0  0  0  0  0  0
  -10.6255    0.6180    6.6347 H   0  0  0  0  0  0  0  0  0  0  0  0
  -10.6839   -1.5303    5.3569 H   0  0  0  0  0  0  0  0  0  0  0  0
   -9.3429   -0.9778    4.3497 H   0  0  0  0  0  0  0  0  0  0  0  0
  -10.9017   -0.1514    4.2696 H   0  0  0  0  0  0  0  0  0  0  0  0
   -5.0702   -0.8233    4.2380 H   0  0  0  0  0  0  0  0  0  0  0  0
    0.4672   -0.5204    0.1092 H   0  0  0  0  0  0  0  0  0  0  0  0
    2.0193   -2.0073   -1.0107 H   0  0  0  0  0  0  0  0  0  0  0  0
    3.7860   -4.9447   -2.4405 H   0  0  0  0  0  0  0  0  0  0  0  0
    3.5062   -3.3095   -1.8262 H   0  0  0  0  0  0  0  0  0  0  0  0
    2.3231   -4.2775    0.1722 H   0  0  0  0  0  0  0  0  0  0  0  0
    2.5705   -5.9023   -0.4744 H   0  0  0  0  0  0  0  0  0  0  0  0
    3.9557   -4.9399    0.0554 H   0  0  0  0  0  0  0  0  0  0  0  0
   -2.8141   -2.8253   -1.3940 H   0  0  0  0  0  0  0  0  0  0  0  0
   -3.1844   -0.6959   -2.4711 H   0  0  0  0  0  0  0  0  0  0  0  0
   -3.7082   -1.7553   -4.0050 H   0  0  0  0  0  0  0  0  0  0  0  0
   -1.3477   -3.3949   -6.1827 H   0  0  0  0  0  0  0  0  0  0  0  0
   -1.6664   -2.0336   -5.0814 H   0  0  0  0  0  0  0  0  0  0  0  0
   -2.5204   -3.5887   -4.8611 H   0  0  0  0  0  0  0  0  0  0  0  0
   -5.7809   -0.4698   -9.5055 H   0  0  0  0  0  0  0  0  0  0  0  0
   -5.1094   -1.9132  -10.3057 H   0  0  0  0  0  0  0  0  0  0  0  0
   -6.5873   -2.0521   -9.3147 H   0  0  0  0  0  0  0  0  0  0  0  0
   -6.9987   -0.5251   -7.5184 H   0  0  0  0  0  0  0  0  0  0  0  0
   -9.5952    0.6423   -5.8036 H   0  0  0  0  0  0  0  0  0  0  0  0
   -8.8266    2.3222   -7.4734 H   0  0  0  0  0  0  0  0  0  0  0  0
   -6.9882    3.1557   -4.5725 H   0  0  0  0  0  0  0  0  0  0  0  0
   -6.1182    5.2929   -3.8133 H   0  0  0  0  0  0  0  0  0  0  0  0
   -7.0731    5.9752   -1.6866 H   0  0  0  0  0  0  0  0  0  0  0  0
   -7.5992    7.0481    0.3083 H   0  0  0  0  0  0  0  0  0  0  0  0
   -8.5401    5.5388    0.1117 H   0  0  0  0  0  0  0  0  0  0  0  0
   -8.8850    5.4498    2.5844 H   0  0  0  0  0  0  0  0  0  0  0  0
   -7.9490    6.9319    2.7768 H   0  0  0  0  0  0  0  0  0  0  0  0
   -9.5008    6.9727    1.9311 H   0  0  0  0  0  0  0  0  0  0  0  0
   -3.5795    2.5068   -1.7731 H   0  0  0  0  0  0  0  0  0  0  0  0
   -0.8961    3.7541   -7.9214 H   0  0  0  0  0  0  0  0  0  0  0  0
    0.1161    3.1821  -10.0886 H   0  0  0  0  0  0  0  0  0  0  0  0
   -1.1194    0.4906  -14.0512 H   0  0  0  0  0  0  0  0  0  0  0  0
   -1.9988   -0.3514  -12.7623 H   0  0  0  0  0  0  0  0  0  0  0  0
   -3.2793    1.7568  -12.2782 H   0  0  0  0  0  0  0  0  0  0  0  0
   -3.4850    1.2839  -13.9661 H   0  0  0  0  0  0  0  0  0  0  0  0
   -2.3741    2.5941  -13.5430 H   0  0  0  0  0  0  0  0  0  0  0  0
   -3.5251    0.3957   -8.3128 H   0  0  0  0  0  0  0  0  0  0  0  0
   -0.1513    2.0841   -6.0718 H   0  0  0  0  0  0  0  0  0  0  0  0
    0.3007    3.3186   -1.4413 H   0  0  0  0  0  0  0  0  0  0  0  0
   -0.6574    1.9257    0.0081 H   0  0  0  0  0  0  0  0  0  0  0  0
   -2.0233    2.9105    1.7429 H   0  0  0  0  0  0  0  0  0  0  0  0
   -2.5824    4.9118    2.6328 H   0  0  0  0  0  0  0  0  0  0  0  0
   -2.9996    5.5766    4.2233 H   0  0  0  0  0  0  0  0  0  0  0  0
   -4.8766    4.1893    3.3747 H   0  0  0  0  0  0  0  0  0  0  0  0
   -4.1686    3.4507    4.8157 H   0  0  0  0  0  0  0  0  0  0  0  0
   -3.8085    2.8028    3.2115 H   0  0  0  0  0  0  0  0  0  0  0  0
    2.8559    2.6269    2.3666 H   0  0  0  0  0  0  0  0  0  0  0  0
    6.1428   -0.4631   -2.1277 H   0  0  0  0  0  0  0  0  0  0  0  0
    7.2732   -2.1198   -3.4926 H   0  0  0  0  0  0  0  0  0  0  0  0
    8.2315   -5.1032   -5.4280 H   0  0  0  0  0  0  0  0  0  0  0  0
    8.0089   -4.0766   -4.0098 H   0  0  0  0  0  0  0  0  0  0  0  0
    8.6823   -3.1414   -6.8606 H   0  0  0  0  0  0  0  0  0  0  0  0
    8.4300   -2.0434   -5.5061 H   0  0  0  0  0  0  0  0  0  0  0  0
    9.8074   -3.1531   -5.4979 H   0  0  0  0  0  0  0  0  0  0  0  0
    2.4251   -1.4017   -4.0420 H   0  0  0  0  0  0  0  0  0  0  0  0
    5.0660   -1.8794   -0.5368 H   0  0  0  0  0  0  0  0  0  0  0  0
    5.8699   -3.5245    0.8611 H   0  0  0  0  0  0  0  0  0  0  0  0
    8.2404   -4.0618    1.2018 H   0  0  0  0  0  0  0  0  0  0  0  0
    8.8669   -4.7618   -1.0728 H   0  0  0  0  0  0  0  0  0  0  0  0
    7.2473   -8.0966   -4.3528 H   0  0  0  0  0  0  0  0  0  0  0  0
    6.8776   -8.8943   -2.8132 H   0  0  0  0  0  0  0  0  0  0  0  0
    4.8625   -7.7011   -3.7017 H   0  0  0  0  0  0  0  0  0  0  0  0
    5.7687   -6.1867   -3.7462 H   0  0  0  0  0  0  0  0  0  0  0  0
    5.3937   -6.9540   -2.1935 H   0  0  0  0  0  0  0  0  0  0  0  0
    6.2416   -7.8059    1.7648 H   0  0  0  0  0  0  0  0  0  0  0  0
    6.0283   -1.8699    6.4219 H   0  0  0  0  0  0  0  0  0  0  0  0
    4.9205   -0.8428    8.3527 H   0  0  0  0  0  0  0  0  0  0  0  0
    0.6942   -1.2362   10.1473 H   0  0  0  0  0  0  0  0  0  0  0  0
    1.0715   -2.6402    9.1368 H   0  0  0  0  0  0  0  0  0  0  0  0
    1.3774   -4.0280   11.2105 H   0  0  0  0  0  0  0  0  0  0  0  0
   -0.2337   -3.3053   11.1798 H   0  0  0  0  0  0  0  0  0  0  0  0
    1.0286   -2.6101   12.2050 H   0  0  0  0  0  0  0  0  0  0  0  0
    3.8444   -5.4882    7.1390 H   0  0  0  0  0  0  0  0  0  0  0  0
    6.3218   -6.2006    7.4640 H   0  0  0  0  0  0  0  0  0  0  0  0
    7.6463   -8.3042    6.6748 H   0  0  0  0  0  0  0  0  0  0  0  0
  1  2  1  0  0  0  0
  1  3  2  0  0  0  0
  3  4  1  0  0  0  0
  4  5  2  0  0  0  0
  5  6  1  0  0  0  0
  6  7  1  0  0  0  0
  5  8  1  0  0  0  0
  8  9  1  0  0  0  0
  9 10  1  0  0  0  0
  8 11  2  0  0  0  0
 11 12  1  0  0  0  0
 12 13  2  0  0  0  0
 13 14  1  0  0  0  0
 14 15  2  0  0  0  0
 15 16  1  0  0  0  0
 16 17  2  0  0  0  0
 17 18  1  0  0  0  0
 18 19  2  0  0  0  0
 19 20  1  0  0  0  0
 20 21  2  0  0  0  0
 21 22  1  0  0  0  0
 22 23  2  0  0  0  0
 23 24  1  0  0  0  0
 24 25  1  0  0  0  0
 25 26  1  0  0  0  0
 23 27  1  0  0  0  0
 27 28  1  0  0  0  0
 27 29  2  0  0  0  0
 19 30  1  0  0  0  0
 30 31  2  0  0  0  0
 31 32  1  0  0  0  0
 32 33  1  0  0  0  0
 33 34  2  0  0  0  0
 34 35  1  0  0  0  0
 35 36  2  0  0  0  0
 36 37  1  0  0  0  0
 37 38  1  0  0  0  0
 38 39  1  0  0  0  0
 36 40  1  0  0  0  0
 40 41  2  0  0  0  0
 40 42  1  0  0  0  0
 32 43  2  0  0  0  0
 43 44  1  0  0  0  0
 31 45  1  0  0  0  0
 45 46  2  0  0  0  0
 46 47  1  0  0  0  0
 46 48  1  0  0  0  0
 48 49  1  0  0  0  0
 48 50  2  0  0  0  0
 50 51  1  0  0  0  0
 51 52  2  0  0  0  0
 52 53  1  0  0  0  0
 53 54  1  0  0  0  0
 52 55  1  0  0  0  0
 55 56  1  0  0  0  0
 56 57  1  0  0  0  0
 55 58  2  0  0  0  0
 58 59  1  0  0  0  0
 59 60  2  0  0  0  0
 60 61  1  0  0  0  0
 61 62  2  0  0  0  0
 62 63  1  0  0  0  0
 63 64  2  0  0  0  0
 64 65  1  0  0  0  0
 65 66  2  0  0  0  0
 66 67  1  0  0  0  0
 67 68  2  0  0  0  0
 68 69  1  0  0  0  0
 69 70  2  0  0  0  0
 70 71  1  0  0  0  0
 71 72  1  0  0  0  0
 72 73  1  0  0  0  0
 70 74  1  0  0  0  0
 74 75  1  0  0  0  0
 74 76  2  0  0  0  0
 66 77  1  0  0  0  0
 77 78  2  0  0  0  0
 78 79  1  0  0  0  0
 79 80  1  0  0  0  0
 80 81  2  0  0  0  0
 81 82  1  0  0  0  0
 82 83  2  0  0  0  0
 83 84  1  0  0  0  0
 84 85  1  0  0  0  0
 85 86  1  0  0  0  0
 83 87  1  0  0  0  0
 87 88  2  0  0  0  0
 87 89  1  0  0  0  0
 79 90  2  0  0  0  0
 90 91  1  0  0  0  0
 78 92  1  0  0  0  0
 92 93  2  0  0  0  0
 93 94  1  0  0  0  0
 93 95  1  0  0  0  0
 95 96  2  0  0  0  0
 96 97  1  0  0  0  0
 97 98  2  0  0  0  0
 98 99  1  0  0  0  0
 99100  2  0  0  0  0
100101  1  0  0  0  0
101102  2  0  0  0  0
102103  1  0  0  0  0
103104  1  0  0  0  0
104105  1  0  0  0  0
102106  1  0  0  0  0
106107  1  0  0  0  0
106108  2  0  0  0  0
 98109  1  0  0  0  0
109110  2  0  0  0  0
110111  1  0  0  0  0
111112  1  0  0  0  0
112113  2  0  0  0  0
113114  1  0  0  0  0
114115  2  0  0  0  0
115116  1  0  0  0  0
116117  1  0  0  0  0
117118  1  0  0  0  0
115119  1  0  0  0  0
119120  2  0  0  0  0
119121  1  0  0  0  0
111122  2  0  0  0  0
122123  1  0  0  0  0
110124  1  0  0  0  0
124125  2  0  0  0  0
125126  1  0  0  0  0
125127  1  0  0  0  0
127128  2  0  0  0  0
128129  1  0  0  0  0
129130  2  0  0  0  0
130131  1  0  0  0  0
131132  2  0  0  0  0
132133  1  0  0  0  0
133134  2  0  0  0  0
134135  1  0  0  0  0
135136  1  0  0  0  0
136137  1  0  0  0  0
134138  1  0  0  0  0
138139  1  0  0  0  0
138140  2  0  0  0  0
130141  1  0  0  0  0
141142  2  0  0  0  0
142143  1  0  0  0  0
143144  1  0  0  0  0
144145  2  0  0  0  0
145146  1  0  0  0  0
146147  2  0  0  0  0
147148  1  0  0  0  0
148149  1  0  0  0  0
149150  1  0  0  0  0
147151  1  0  0  0  0
151152  2  0  0  0  0
151153  1  0  0  0  0
143154  2  0  0  0  0
154155  1  0  0  0  0
142156  1  0  0  0  0
156157  2  0  0  0  0
157158  1  0  0  0  0
 13  2  1  0  0  0  0
 44 16  1  0  0  0  0
 60 49  1  0  0  0  0
 91 63  1  0  0  0  0
123 95  1  0  0  0  0
155127  1  0  0  0  0
 12  3  1  0  0  0  0
 43 18  1  0  0  0  0
 59 50  1  0  0  0  0
 90 65  1  0  0  0  0
122 97  1  0  0  0  0
154129  1  0  0  0  0
 29 20  1  0  0  0  0
 47 30  1  0  0  0  0
 76 67  1  0  0  0  0
 94 77  1  0  0  0  0
108 99  1  0  0  0  0
126109  1  0  0  0  0
140131  1  0  0  0  0
158141  1  0  0  0  0
 41 33  1  0  0  0  0
 88 80  1  0  0  0  0
120112  1  0  0  0  0
152144  1  0  0  0  0
  1159  1  0  0  0  0
  4160  1  0  0  0  0
  7161  1  0  0  0  0
  7162  1  0  0  0  0
  7163  1  0  0  0  0
 10164  1  0  0  0  0
 10165  1  0  0  0  0
 10166  1  0  0  0  0
 11167  1  0  0  0  0
 14168  1  0  0  0  0
 15169  1  0  0  0  0
 17170  1  0  0  0  0
 21171  1  0  0  0  0
 22172  1  0  0  0  0
 25173  1  0  0  0  0
 25174  1  0  0  0  0
 26175  1  0  0  0  0
 26176  1  0  0  0  0
 26177  1  0  0  0  0
 29178  1  0  0  0  0
 34179  1  0  0  0  0
 35180  1  0  0  0  0
 38181  1  0  0  0  0
 38182  1  0  0  0  0
 39183  1  0  0  0  0
 39184  1  0  0  0  0
 39185  1  0  0  0  0
 41186  1  0  0  0  0
 45187  1  0  0  0  0
 51188  1  0  0  0  0
 54189  1  0  0  0  0
 54190  1  0  0  0  0
 54191  1  0  0  0  0
 57192  1  0  0  0  0
 57193  1  0  0  0  0
 57194  1  0  0  0  0
 58195  1  0  0  0  0
 61196  1  0  0  0  0
 62197  1  0  0  0  0
 64198  1  0  0  0  0
 68199  1  0  0  0  0
 69200  1  0  0  0  0
 72201  1  0  0  0  0
 72202  1  0  0  0  0
 73203  1  0  0  0  0
 73204  1  0  0  0  0
 73205  1  0  0  0  0
 76206  1  0  0  0  0
 81207  1  0  0  0  0
 82208  1  0  0  0  0
 85209  1  0  0  0  0
 85210  1  0  0  0  0
 86211  1  0  0  0  0
 86212  1  0  0  0  0
 86213  1  0  0  0  0
 88214  1  0  0  0  0
 92215  1  0  0  0  0
 96216  1  0  0  0  0
100217  1  0  0  0  0
101218  1  0  0  0  0
104219  1  0  0  0  0
104220  1  0  0  0  0
105221  1  0  0  0  0
105222  1  0  0  0  0
105223  1  0  0  0  0
108224  1  0  0  0  0
113225  1  0  0  0  0
114226  1  0  0  0  0
117227  1  0  0  0  0
117228  1  0  0  0  0
118229  1  0  0  0  0
118230  1  0  0  0  0
118231  1  0  0  0  0
120232  1  0  0  0  0
124233  1  0  0  0  0
128234  1  0  0  0  0
132235  1  0  0  0  0
133236  1  0  0  0  0
136237  1  0  0  0  0
136238  1  0  0  0  0
137239  1  0  0  0  0
137240  1  0  0  0  0
137241  1  0  0  0  0
140242  1  0  0  0  0
145243  1  0  0  0  0
146244  1  0  0  0  0
149245  1  0  0  0  0
149246  1  0  0  0  0
150247  1  0  0  0  0
150248  1  0  0  0  0
150249  1  0  0  0  0
152250  1  0  0  0  0
156251  1  0  0  0  0
157252  1  0  0  0  0
M  END
