
  xtb     03082209413D
 energy: -199.630935763099 gnorm: 0.000516203998 xtb: 6.4.1 (unknown)
104111  0     0  0            999 V2000
    2.7563    4.3468   -0.5576 C   0  0  0  0  0  0  0  0  0  0  0  0
    1.4741    3.7320   -1.4914 S   0  0  0  0  0  0  0  0  0  0  0  0
    3.4595    3.3505    0.0843 C   0  0  0  0  0  0  0  0  0  0  0  0
    4.5497    3.5046    0.9741 C   0  0  0  0  0  0  0  0  0  0  0  0
    5.0989    2.4061    1.5657 C   0  0  0  0  0  0  0  0  0  0  0  0
    6.1283    2.4117    2.4515 O   0  0  0  0  0  0  0  0  0  0  0  0
    6.6939    3.6506    2.8000 C   0  0  0  0  0  0  0  0  0  0  0  0
    4.5676    1.0948    1.2896 C   0  0  0  0  0  0  0  0  0  0  0  0
    5.1751    0.0891    1.9765 O   0  0  0  0  0  0  0  0  0  0  0  0
    4.8201   -1.2385    1.6744 C   0  0  0  0  0  0  0  0  0  0  0  0
    3.5230    0.9282    0.4267 C   0  0  0  0  0  0  0  0  0  0  0  0
    2.9524    2.0471   -0.2162 C   0  0  0  0  0  0  0  0  0  0  0  0
    1.8579    2.0870   -1.0850 C   0  0  0  0  0  0  0  0  0  0  0  0
    1.0428    1.0489   -1.6015 C   0  0  0  0  0  0  0  0  0  0  0  0
    1.4247   -0.2418   -1.7518 C   0  0  0  0  0  0  0  0  0  0  0  0
    0.5616   -1.3024   -2.1346 C   0  0  0  0  0  0  0  0  0  0  0  0
    1.2335   -2.9154   -2.2642 S   0  0  0  0  0  0  0  0  0  0  0  0
   -0.3204   -3.6336   -2.5222 C   0  0  0  0  0  0  0  0  0  0  0  0
   -1.2771   -2.6258   -2.6194 C   0  0  0  0  0  0  0  0  0  0  0  0
   -0.7867   -1.3262   -2.3745 C   0  0  0  0  0  0  0  0  0  0  0  0
   -2.6352   -2.8618   -2.8923 N   0  0  0  0  0  4  0  0  0  0  0  0
   -3.3287   -1.8877   -3.1622 O   0  0  0  0  0  1  0  0  0  0  0  0
   -3.0610   -4.0034   -2.8590 O   0  0  0  0  0  0  0  0  0  0  0  0
   -0.4898   -5.0457   -2.7125 C   0  0  0  0  0  0  0  0  0  0  0  0
   -0.0077   -6.0389   -1.9339 C   0  0  0  0  0  0  0  0  0  0  0  0
    0.5680   -5.9455   -0.6308 C   0  0  0  0  0  0  0  0  0  0  0  0
    0.7492   -4.4396    0.2306 S   0  0  0  0  0  0  0  0  0  0  0  0
    1.1504   -5.2183    1.7271 C   0  0  0  0  0  0  0  0  0  0  0  0
    1.2098   -6.6011    1.5115 C   0  0  0  0  0  0  0  0  0  0  0  0
    0.8654   -6.9944    0.2037 C   0  0  0  0  0  0  0  0  0  0  0  0
    1.5413   -7.5649    2.4914 N   0  0  0  0  0  4  0  0  0  0  0  0
    1.6093   -8.7260    2.1291 O   0  0  0  0  0  1  0  0  0  0  0  0
    1.7493   -7.1953    3.6351 O   0  0  0  0  0  0  0  0  0  0  0  0
    1.5164   -4.4803    2.8817 C   0  0  0  0  0  0  0  0  0  0  0  0
    1.2604   -3.1698    3.1582 C   0  0  0  0  0  0  0  0  0  0  0  0
    0.3443   -2.2894    2.5268 C   0  0  0  0  0  0  0  0  0  0  0  0
   -1.1416   -2.8421    1.8265 S   0  0  0  0  0  0  0  0  0  0  0  0
    0.4335   -0.8897    2.4292 C   0  0  0  0  0  0  0  0  0  0  0  0
    1.4265   -0.0563    2.9793 C   0  0  0  0  0  0  0  0  0  0  0  0
    1.3765    1.2980    2.7741 C   0  0  0  0  0  0  0  0  0  0  0  0
    2.2251    2.2013    3.3086 O   0  0  0  0  0  0  0  0  0  0  0  0
    3.1465    1.7715    4.2858 C   0  0  0  0  0  0  0  0  0  0  0  0
    0.3380    1.8709    1.9548 C   0  0  0  0  0  0  0  0  0  0  0  0
    0.4087    3.2105    1.8249 O   0  0  0  0  0  0  0  0  0  0  0  0
   -0.6676    3.8821    1.2023 C   0  0  0  0  0  0  0  0  0  0  0  0
   -0.6338    1.0705    1.4137 C   0  0  0  0  0  0  0  0  0  0  0  0
   -0.6201   -0.3158    1.6583 C   0  0  0  0  0  0  0  0  0  0  0  0
   -1.5683   -1.2642    1.2445 C   0  0  0  0  0  0  0  0  0  0  0  0
   -2.7260   -1.0835    0.4613 C   0  0  0  0  0  0  0  0  0  0  0  0
   -3.5962   -2.0794    0.1473 C   0  0  0  0  0  0  0  0  0  0  0  0
   -4.7325   -1.9254   -0.6847 C   0  0  0  0  0  0  0  0  0  0  0  0
   -5.0865   -0.4125   -1.4753 S   0  0  0  0  0  0  0  0  0  0  0  0
   -6.4478   -1.0670   -2.3131 C   0  0  0  0  0  0  0  0  0  0  0  0
   -6.6147   -2.4027   -1.9521 C   0  0  0  0  0  0  0  0  0  0  0  0
   -5.6468   -2.8829   -1.0529 C   0  0  0  0  0  0  0  0  0  0  0  0
   -7.6453   -3.2539   -2.4351 N   0  0  0  0  0  4  0  0  0  0  0  0
   -8.3563   -2.8567   -3.3399 O   0  0  0  0  0  1  0  0  0  0  0  0
   -7.7650   -4.3361   -1.8977 O   0  0  0  0  0  0  0  0  0  0  0  0
   -7.2718   -0.2750   -3.1820 C   0  0  0  0  0  0  0  0  0  0  0  0
   -6.8837    0.8405   -3.8172 C   0  0  0  0  0  0  0  0  0  0  0  0
   -5.5122    1.3342   -3.7640 C   0  0  0  0  0  0  0  0  0  0  0  0
   -4.2734    0.5353   -4.6903 S   0  0  0  0  0  0  0  0  0  0  0  0
   -3.0220    1.4732   -3.9668 C   0  0  0  0  0  0  0  0  0  0  0  0
   -3.5674    2.3675   -3.0551 C   0  0  0  0  0  0  0  0  0  0  0  0
   -4.9814    2.3073   -2.9775 C   0  0  0  0  0  0  0  0  0  0  0  0
   -2.8601    3.1363   -2.1058 N   0  0  0  0  0  4  0  0  0  0  0  0
   -3.3930    4.1343   -1.6655 O   0  0  0  0  0  1  0  0  0  0  0  0
   -1.7768    2.7206   -1.7193 O   0  0  0  0  0  0  0  0  0  0  0  0
   -1.6760    1.2785   -4.4476 C   0  0  0  0  0  0  0  0  0  0  0  0
   -0.6735    2.1507   -4.3793 C   0  0  0  0  0  0  0  0  0  0  0  0
    2.9330    5.4032   -0.5186 H   0  0  0  0  0  0  0  0  0  0  0  0
    4.9067    4.5005    1.1773 H   0  0  0  0  0  0  0  0  0  0  0  0
    7.1281    4.1528    1.9294 H   0  0  0  0  0  0  0  0  0  0  0  0
    7.4821    3.4240    3.5159 H   0  0  0  0  0  0  0  0  0  0  0  0
    5.9560    4.3110    3.2672 H   0  0  0  0  0  0  0  0  0  0  0  0
    3.7713   -1.4476    1.9116 H   0  0  0  0  0  0  0  0  0  0  0  0
    5.4620   -1.8616    2.2949 H   0  0  0  0  0  0  0  0  0  0  0  0
    5.0008   -1.4688    0.6198 H   0  0  0  0  0  0  0  0  0  0  0  0
    3.0947   -0.0456    0.2704 H   0  0  0  0  0  0  0  0  0  0  0  0
    0.0485    1.3460   -1.9026 H   0  0  0  0  0  0  0  0  0  0  0  0
    2.4504   -0.5274   -1.5763 H   0  0  0  0  0  0  0  0  0  0  0  0
   -1.4220   -0.4619   -2.3465 H   0  0  0  0  0  0  0  0  0  0  0  0
   -1.1108   -5.3248   -3.5549 H   0  0  0  0  0  0  0  0  0  0  0  0
   -0.1808   -7.0563   -2.2583 H   0  0  0  0  0  0  0  0  0  0  0  0
    0.8202   -8.0286   -0.0871 H   0  0  0  0  0  0  0  0  0  0  0  0
    2.1158   -5.0310    3.5948 H   0  0  0  0  0  0  0  0  0  0  0  0
    1.8160   -2.7353    3.9812 H   0  0  0  0  0  0  0  0  0  0  0  0
    2.1996   -0.4922    3.5905 H   0  0  0  0  0  0  0  0  0  0  0  0
    3.6311    2.6767    4.6468 H   0  0  0  0  0  0  0  0  0  0  0  0
    2.6365    1.2769    5.1187 H   0  0  0  0  0  0  0  0  0  0  0  0
    3.9050    1.1024    3.8721 H   0  0  0  0  0  0  0  0  0  0  0  0
   -0.8059    3.5580    0.1687 H   0  0  0  0  0  0  0  0  0  0  0  0
   -1.5974    3.7317    1.7593 H   0  0  0  0  0  0  0  0  0  0  0  0
   -0.4028    4.9373    1.2189 H   0  0  0  0  0  0  0  0  0  0  0  0
   -1.4173    1.4898    0.8067 H   0  0  0  0  0  0  0  0  0  0  0  0
   -2.9101   -0.0857    0.0850 H   0  0  0  0  0  0  0  0  0  0  0  0
   -3.4262   -3.0778    0.5298 H   0  0  0  0  0  0  0  0  0  0  0  0
   -5.6221   -3.9037   -0.7178 H   0  0  0  0  0  0  0  0  0  0  0  0
   -8.2751   -0.6484   -3.3348 H   0  0  0  0  0  0  0  0  0  0  0  0
   -7.5872    1.3846   -4.4309 H   0  0  0  0  0  0  0  0  0  0  0  0
   -5.5486    2.9213   -2.3018 H   0  0  0  0  0  0  0  0  0  0  0  0
   -1.5278    0.3311   -4.9494 H   0  0  0  0  0  0  0  0  0  0  0  0
    0.2924    1.9080   -4.7853 H   0  0  0  0  0  0  0  0  0  0  0  0
   -0.7659    3.1208   -3.9240 H   0  0  0  0  0  0  0  0  0  0  0  0
  1  2  1  0  0  0  0
  1  3  2  0  0  0  0
  3  4  1  0  0  0  0
  4  5  2  0  0  0  0
  5  6  1  0  0  0  0
  6  7  1  0  0  0  0
  5  8  1  0  0  0  0
  8  9  1  0  0  0  0
  9 10  1  0  0  0  0
  8 11  2  0  0  0  0
 11 12  1  0  0  0  0
 12 13  2  0  0  0  0
 13 14  1  0  0  0  0
 14 15  2  0  0  0  0
 15 16  1  0  0  0  0
 16 17  1  0  0  0  0
 17 18  1  0  0  0  0
 18 19  2  0  0  0  0
 19 20  1  0  0  0  0
 19 21  1  0  0  0  0
 21 22  1  0  0  0  0
 21 23  2  0  0  0  0
 18 24  1  0  0  0  0
 24 25  2  0  0  0  0
 25 26  1  0  0  0  0
 26 27  1  0  0  0  0
 27 28  1  0  0  0  0
 28 29  2  0  0  0  0
 29 30  1  0  0  0  0
 29 31  1  0  0  0  0
 31 32  1  0  0  0  0
 31 33  2  0  0  0  0
 28 34  1  0  0  0  0
 34 35  2  0  0  0  0
 35 36  1  0  0  0  0
 36 37  1  0  0  0  0
 36 38  2  0  0  0  0
 38 39  1  0  0  0  0
 39 40  2  0  0  0  0
 40 41  1  0  0  0  0
 41 42  1  0  0  0  0
 40 43  1  0  0  0  0
 43 44  1  0  0  0  0
 44 45  1  0  0  0  0
 43 46  2  0  0  0  0
 46 47  1  0  0  0  0
 47 48  2  0  0  0  0
 48 49  1  0  0  0  0
 49 50  2  0  0  0  0
 50 51  1  0  0  0  0
 51 52  1  0  0  0  0
 52 53  1  0  0  0  0
 53 54  2  0  0  0  0
 54 55  1  0  0  0  0
 54 56  1  0  0  0  0
 56 57  1  0  0  0  0
 56 58  2  0  0  0  0
 53 59  1  0  0  0  0
 59 60  2  0  0  0  0
 60 61  1  0  0  0  0
 61 62  1  0  0  0  0
 62 63  1  0  0  0  0
 63 64  2  0  0  0  0
 64 65  1  0  0  0  0
 64 66  1  0  0  0  0
 66 67  1  0  0  0  0
 66 68  2  0  0  0  0
 63 69  1  0  0  0  0
 69 70  2  0  0  0  0
 13  2  1  0  0  0  0
 20 16  2  0  0  0  0
 30 26  2  0  0  0  0
 48 37  1  0  0  0  0
 55 51  2  0  0  0  0
 65 61  2  0  0  0  0
 12  3  1  0  0  0  0
 47 38  1  0  0  0  0
  1 71  1  0  0  0  0
  4 72  1  0  0  0  0
  7 73  1  0  0  0  0
  7 74  1  0  0  0  0
  7 75  1  0  0  0  0
 10 76  1  0  0  0  0
 10 77  1  0  0  0  0
 10 78  1  0  0  0  0
 11 79  1  0  0  0  0
 14 80  1  0  0  0  0
 15 81  1  0  0  0  0
 20 82  1  0  0  0  0
 24 83  1  0  0  0  0
 25 84  1  0  0  0  0
 30 85  1  0  0  0  0
 34 86  1  0  0  0  0
 35 87  1  0  0  0  0
 39 88  1  0  0  0  0
 42 89  1  0  0  0  0
 42 90  1  0  0  0  0
 42 91  1  0  0  0  0
 45 92  1  0  0  0  0
 45 93  1  0  0  0  0
 45 94  1  0  0  0  0
 46 95  1  0  0  0  0
 49 96  1  0  0  0  0
 50 97  1  0  0  0  0
 55 98  1  0  0  0  0
 59 99  1  0  0  0  0
 60100  1  0  0  0  0
 65101  1  0  0  0  0
 69102  1  0  0  0  0
 70103  1  0  0  0  0
 70104  1  0  0  0  0
M  CHG  1  21   1
M  CHG  1  22  -1
M  CHG  1  31   1
M  CHG  1  32  -1
M  CHG  1  56   1
M  CHG  1  57  -1
M  CHG  1  66   1
M  CHG  1  67  -1
M  END
