
  xtb     03042217133D
 energy: -434.788685317390 gnorm: 0.000266166111 xtb: 6.4.1 (unknown)
252275  0     0  0            999 V2000
   -1.9521   -4.9873    7.8820 C   0  0  0  0  0  0  0  0  0  0  0  0
   -2.1965   -3.7170    7.5060 C   0  0  0  0  0  0  0  0  0  0  0  0
   -1.9943   -3.5016    6.1108 C   0  0  0  0  0  0  0  0  0  0  0  0
   -2.1696   -2.3147    5.3885 C   0  0  0  0  0  0  0  0  0  0  0  0
   -2.5986   -1.0471    5.9940 C   0  0  0  0  0  0  0  0  0  0  0  0
   -3.6321   -0.3141    5.4135 C   0  0  0  0  0  0  0  0  0  0  0  0
   -3.9904    0.9294    5.8931 C   0  0  0  0  0  0  0  0  0  0  0  0
   -3.3224    1.4908    6.9757 C   0  0  0  0  0  0  0  0  0  0  0  0
   -3.6515    3.0919    7.6284 S   0  0  0  0  0  0  0  0  0  0  0  0
   -4.4516    3.9332    6.2089 C   0  0  0  0  0  0  0  0  0  0  0  0
   -4.4175    5.4322    6.4367 C   0  0  0  0  0  0  0  0  0  0  0  0
   -2.3323    0.7207    7.5845 C   0  0  0  0  0  0  0  0  0  0  0  0
   -1.6957    1.2162    8.6657 F   0  0  0  0  0  0  0  0  0  0  0  0
   -1.9673   -0.5218    7.1185 C   0  0  0  0  0  0  0  0  0  0  0  0
   -1.9310   -2.3866    4.0240 C   0  0  0  0  0  0  0  0  0  0  0  0
   -1.5401   -3.5667    3.3471 C   0  0  0  0  0  0  0  0  0  0  0  0
   -1.3518   -4.7552    4.0758 C   0  0  0  0  0  0  0  0  0  0  0  0
   -0.9290   -5.9864    3.3990 C   0  0  0  0  0  0  0  0  0  0  0  0
    0.1086   -5.9714    2.4657 C   0  0  0  0  0  0  0  0  0  0  0  0
    0.4667   -7.1124    1.7848 C   0  0  0  0  0  0  0  0  0  0  0  0
   -0.1996   -8.3212    1.9857 C   0  0  0  0  0  0  0  0  0  0  0  0
    0.2762   -9.6752    0.9667 S   0  0  0  0  0  0  0  0  0  0  0  0
   -0.0141  -11.1559    2.0111 C   0  0  0  0  0  0  0  0  0  0  0  0
    0.8991  -12.2695    1.5396 C   0  0  0  0  0  0  0  0  0  0  0  0
   -1.2274   -8.3276    2.9248 C   0  0  0  0  0  0  0  0  0  0  0  0
   -1.5795   -7.1945    3.6302 C   0  0  0  0  0  0  0  0  0  0  0  0
   -1.9511   -9.4442    3.1487 F   0  0  0  0  0  0  0  0  0  0  0  0
   -1.6028   -4.6880    5.4425 C   0  0  0  0  0  0  0  0  0  0  0  0
   -1.4841   -6.0123    6.5717 S   0  0  0  0  0  0  0  0  0  0  0  0
   -1.4389   -3.3548    1.9428 C   0  0  0  0  0  0  0  0  0  0  0  0
   -1.6827   -2.0696    1.5668 C   0  0  0  0  0  0  0  0  0  0  0  0
   -2.0551   -1.0378    2.9349 S   0  0  0  0  0  0  0  0  0  0  0  0
   -1.6695   -1.4460    0.2850 C   0  0  0  0  0  0  0  0  0  0  0  0
   -1.8468   -0.1114    0.0862 C   0  0  0  0  0  0  0  0  0  0  0  0
   -1.7117    0.2984   -1.2585 C   0  0  0  0  0  0  0  0  0  0  0  0
   -1.8517    1.6068   -1.7529 C   0  0  0  0  0  0  0  0  0  0  0  0
   -2.2194    2.6995   -0.8429 C   0  0  0  0  0  0  0  0  0  0  0  0
   -3.2976    3.5387   -1.1221 C   0  0  0  0  0  0  0  0  0  0  0  0
   -3.6942    4.4981   -0.2150 C   0  0  0  0  0  0  0  0  0  0  0  0
   -3.0445    4.6651    1.0103 C   0  0  0  0  0  0  0  0  0  0  0  0
   -3.7247    5.8879    2.0937 S   0  0  0  0  0  0  0  0  0  0  0  0
   -2.3953    6.3785    3.2536 C   0  0  0  0  0  0  0  0  0  0  0  0
   -1.2101    7.0224    2.5645 C   0  0  0  0  0  0  0  0  0  0  0  0
   -1.9662    3.8276    1.2700 C   0  0  0  0  0  0  0  0  0  0  0  0
   -1.2923    3.8876    2.4402 F   0  0  0  0  0  0  0  0  0  0  0  0
   -1.5479    2.8774    0.3621 C   0  0  0  0  0  0  0  0  0  0  0  0
   -1.6655    1.7653   -3.1142 C   0  0  0  0  0  0  0  0  0  0  0  0
   -1.4029    0.6841   -3.9936 C   0  0  0  0  0  0  0  0  0  0  0  0
   -1.3869   -0.6444   -3.5102 C   0  0  0  0  0  0  0  0  0  0  0  0
   -1.3811   -1.7799   -4.4362 C   0  0  0  0  0  0  0  0  0  0  0  0
   -2.0938   -1.7123   -5.6389 C   0  0  0  0  0  0  0  0  0  0  0  0
   -2.1063   -2.7705   -6.5182 C   0  0  0  0  0  0  0  0  0  0  0  0
   -1.4261   -3.9579   -6.2437 C   0  0  0  0  0  0  0  0  0  0  0  0
   -1.4718   -5.2064   -7.4878 S   0  0  0  0  0  0  0  0  0  0  0  0
   -1.3264   -6.7872   -6.5628 C   0  0  0  0  0  0  0  0  0  0  0  0
   -1.8739   -7.9068   -7.4257 C   0  0  0  0  0  0  0  0  0  0  0  0
   -0.7486   -4.0307   -5.0304 C   0  0  0  0  0  0  0  0  0  0  0  0
   -0.7326   -2.9758   -4.1407 C   0  0  0  0  0  0  0  0  0  0  0  0
   -0.0743   -5.1447   -4.6775 F   0  0  0  0  0  0  0  0  0  0  0  0
   -1.4731   -0.7939   -2.1284 C   0  0  0  0  0  0  0  0  0  0  0  0
   -1.3885   -2.2917   -1.2211 S   0  0  0  0  0  0  0  0  0  0  0  0
   -1.1625    1.1367   -5.3174 C   0  0  0  0  0  0  0  0  0  0  0  0
   -1.2812    2.4906   -5.4862 C   0  0  0  0  0  0  0  0  0  0  0  0
   -1.6854    3.2843   -3.9687 S   0  0  0  0  0  0  0  0  0  0  0  0
   -1.0949    3.3208   -6.6263 C   0  0  0  0  0  0  0  0  0  0  0  0
   -1.1484    5.0363   -6.3618 S   0  0  0  0  0  0  0  0  0  0  0  0
   -0.8123    3.0465   -7.9678 C   0  0  0  0  0  0  0  0  0  0  0  0
   -0.7373    1.7965   -8.6202 C   0  0  0  0  0  0  0  0  0  0  0  0
   -0.4159    1.7267   -9.9474 C   0  0  0  0  0  0  0  0  0  0  0  0
   -0.3462    0.5937  -10.6798 O   0  0  0  0  0  0  0  0  0  0  0  0
   -0.6707   -0.6316  -10.0675 C   0  0  0  0  0  0  0  0  0  0  0  0
   -0.1255    2.9266  -10.6956 C   0  0  0  0  0  0  0  0  0  0  0  0
    0.2164    2.7036  -11.9864 O   0  0  0  0  0  0  0  0  0  0  0  0
    0.5454    3.8099  -12.7885 C   0  0  0  0  0  0  0  0  0  0  0  0
   -0.2257    4.1479  -10.0968 C   0  0  0  0  0  0  0  0  0  0  0  0
   -0.5943    4.2383   -8.7336 C   0  0  0  0  0  0  0  0  0  0  0  0
   -0.7139    5.4057   -7.9919 C   0  0  0  0  0  0  0  0  0  0  0  0
   -0.4671    6.7834   -8.3896 C   0  0  0  0  0  0  0  0  0  0  0  0
    0.3519    7.5910   -7.7018 C   0  0  0  0  0  0  0  0  0  0  0  0
    1.1132    7.0044   -6.6031 C   0  0  0  0  0  0  0  0  0  0  0  0
    0.9216    7.0742   -5.2648 C   0  0  0  0  0  0  0  0  0  0  0  0
    1.4717    5.9625   -4.5542 C   0  0  0  0  0  0  0  0  0  0  0  0
    1.1690    5.5636   -3.2403 C   0  0  0  0  0  0  0  0  0  0  0  0
    0.4368    6.4912   -2.3701 C   0  0  0  0  0  0  0  0  0  0  0  0
   -0.7571    6.1297   -1.7562 C   0  0  0  0  0  0  0  0  0  0  0  0
   -1.4984    7.0549   -1.0477 C   0  0  0  0  0  0  0  0  0  0  0  0
   -1.0669    8.3689   -0.9151 C   0  0  0  0  0  0  0  0  0  0  0  0
   -1.9467    9.6364   -0.0601 S   0  0  0  0  0  0  0  0  0  0  0  0
   -3.6692    9.0259   -0.0254 C   0  0  0  0  0  0  0  0  0  0  0  0
   -4.2821    8.9504   -1.4100 C   0  0  0  0  0  0  0  0  0  0  0  0
    0.1596    8.7039   -1.4899 C   0  0  0  0  0  0  0  0  0  0  0  0
    0.6289    9.9614   -1.3567 F   0  0  0  0  0  0  0  0  0  0  0  0
    0.8993    7.7976   -2.2149 C   0  0  0  0  0  0  0  0  0  0  0  0
    1.5010    4.2620   -2.8903 C   0  0  0  0  0  0  0  0  0  0  0  0
    2.1516    3.3697   -3.7787 C   0  0  0  0  0  0  0  0  0  0  0  0
    2.4833    3.7772   -5.0786 C   0  0  0  0  0  0  0  0  0  0  0  0
    2.9279    2.8559   -6.1294 C   0  0  0  0  0  0  0  0  0  0  0  0
    3.9523    3.1925   -7.0118 C   0  0  0  0  0  0  0  0  0  0  0  0
    4.2395    2.3884   -8.0950 C   0  0  0  0  0  0  0  0  0  0  0  0
    3.5068    1.2326   -8.3539 C   0  0  0  0  0  0  0  0  0  0  0  0
    3.8615    0.3356   -9.8391 S   0  0  0  0  0  0  0  0  0  0  0  0
    3.9438   -1.4007   -9.2610 C   0  0  0  0  0  0  0  0  0  0  0  0
    5.0690   -1.6053   -8.2659 C   0  0  0  0  0  0  0  0  0  0  0  0
    2.4873    0.9125   -7.4650 C   0  0  0  0  0  0  0  0  0  0  0  0
    2.2079    1.6876   -6.3606 C   0  0  0  0  0  0  0  0  0  0  0  0
    1.7027   -0.1743   -7.6733 F   0  0  0  0  0  0  0  0  0  0  0  0
    2.1392    5.0726   -5.4255 C   0  0  0  0  0  0  0  0  0  0  0  0
    2.1825    5.6823   -7.0553 S   0  0  0  0  0  0  0  0  0  0  0  0
    2.3357    2.0859   -3.2184 C   0  0  0  0  0  0  0  0  0  0  0  0
    1.7963    1.9363   -1.9705 C   0  0  0  0  0  0  0  0  0  0  0  0
    1.1225    3.4579   -1.3877 S   0  0  0  0  0  0  0  0  0  0  0  0
    1.7345    0.7480   -1.1924 C   0  0  0  0  0  0  0  0  0  0  0  0
    1.4891    0.8145    0.5255 S   0  0  0  0  0  0  0  0  0  0  0  0
    1.8875   -0.5784   -1.6177 C   0  0  0  0  0  0  0  0  0  0  0  0
    2.0387   -1.0702   -2.9338 C   0  0  0  0  0  0  0  0  0  0  0  0
    2.2471   -2.4028   -3.1549 C   0  0  0  0  0  0  0  0  0  0  0  0
    2.4328   -2.9779   -4.3661 O   0  0  0  0  0  0  0  0  0  0  0  0
    2.3606   -2.1668   -5.5093 C   0  0  0  0  0  0  0  0  0  0  0  0
    2.2506   -3.3335   -2.0558 C   0  0  0  0  0  0  0  0  0  0  0  0
    2.4509   -4.6222   -2.4151 O   0  0  0  0  0  0  0  0  0  0  0  0
    2.3179   -5.6174   -1.4326 C   0  0  0  0  0  0  0  0  0  0  0  0
    2.0225   -2.8855   -0.7855 C   0  0  0  0  0  0  0  0  0  0  0  0
    1.8471   -1.5074   -0.5379 C   0  0  0  0  0  0  0  0  0  0  0  0
    1.6268   -0.9033    0.7069 C   0  0  0  0  0  0  0  0  0  0  0  0
    1.5667   -1.5701    1.9479 C   0  0  0  0  0  0  0  0  0  0  0  0
    1.3452   -1.0291    3.1702 C   0  0  0  0  0  0  0  0  0  0  0  0
    1.3594   -1.8056    4.3641 C   0  0  0  0  0  0  0  0  0  0  0  0
    1.5981   -3.1447    4.5111 C   0  0  0  0  0  0  0  0  0  0  0  0
    1.5774   -3.5995    5.8490 C   0  0  0  0  0  0  0  0  0  0  0  0
    1.7785   -4.9104    6.3171 C   0  0  0  0  0  0  0  0  0  0  0  0
    2.1610   -6.0004    5.4136 C   0  0  0  0  0  0  0  0  0  0  0  0
    3.1774   -5.8272    4.4762 C   0  0  0  0  0  0  0  0  0  0  0  0
    3.5643   -6.8511    3.6336 C   0  0  0  0  0  0  0  0  0  0  0  0
    2.9450   -8.0938    3.6933 C   0  0  0  0  0  0  0  0  0  0  0  0
    3.3357   -9.4871    2.6925 S   0  0  0  0  0  0  0  0  0  0  0  0
    4.2856   -8.7897    1.2974 C   0  0  0  0  0  0  0  0  0  0  0  0
    5.7811   -8.7776    1.5549 C   0  0  0  0  0  0  0  0  0  0  0  0
    1.9392   -8.2575    4.6456 C   0  0  0  0  0  0  0  0  0  0  0  0
    1.3135   -9.4504    4.7318 F   0  0  0  0  0  0  0  0  0  0  0  0
    1.5468   -7.2492    5.4925 C   0  0  0  0  0  0  0  0  0  0  0  0
    1.6336   -5.1046    7.6847 C   0  0  0  0  0  0  0  0  0  0  0  0
    1.3375   -4.0571    8.5896 C   0  0  0  0  0  0  0  0  0  0  0  0
    1.1605   -2.7450    8.1231 C   0  0  0  0  0  0  0  0  0  0  0  0
    0.8729   -1.6376    9.0446 C   0  0  0  0  0  0  0  0  0  0  0  0
    1.6258   -0.4650    9.0086 C   0  0  0  0  0  0  0  0  0  0  0  0
    1.3462    0.5764    9.8662 C   0  0  0  0  0  0  0  0  0  0  0  0
    0.3053    0.4977   10.7891 C   0  0  0  0  0  0  0  0  0  0  0  0
    0.0423    1.8776   11.8525 S   0  0  0  0  0  0  0  0  0  0  0  0
   -1.7878    1.9470   12.0065 C   0  0  0  0  0  0  0  0  0  0  0  0
   -2.2106    3.3876   12.2118 C   0  0  0  0  0  0  0  0  0  0  0  0
   -0.4258   -0.6860   10.8288 C   0  0  0  0  0  0  0  0  0  0  0  0
   -0.1593   -1.7358    9.9741 C   0  0  0  0  0  0  0  0  0  0  0  0
   -1.4269   -0.8552   11.7230 F   0  0  0  0  0  0  0  0  0  0  0  0
    1.2868   -2.5493    6.7558 C   0  0  0  0  0  0  0  0  0  0  0  0
    1.0856   -1.0327    5.9134 S   0  0  0  0  0  0  0  0  0  0  0  0
    1.3253   -4.5179    9.9401 C   0  0  0  0  0  0  0  0  0  0  0  0
    1.5833   -5.8364   10.0484 C   0  0  0  0  0  0  0  0  0  0  0  0
    1.8625   -6.6149    8.5291 S   0  0  0  0  0  0  0  0  0  0  0  0
   -2.0264   -5.4157    8.8626 H   0  0  0  0  0  0  0  0  0  0  0  0
   -2.5290   -2.9457    8.1761 H   0  0  0  0  0  0  0  0  0  0  0  0
   -4.1792   -0.7284    4.5808 H   0  0  0  0  0  0  0  0  0  0  0  0
   -4.7975    1.4621    5.4171 H   0  0  0  0  0  0  0  0  0  0  0  0
   -3.8926    3.6591    5.3145 H   0  0  0  0  0  0  0  0  0  0  0  0
   -5.4794    3.5777    6.1315 H   0  0  0  0  0  0  0  0  0  0  0  0
   -4.8760    5.9413    5.5912 H   0  0  0  0  0  0  0  0  0  0  0  0
   -4.9635    5.6937    7.3401 H   0  0  0  0  0  0  0  0  0  0  0  0
   -3.3917    5.7776    6.5428 H   0  0  0  0  0  0  0  0  0  0  0  0
   -1.1661   -1.0458    7.6121 H   0  0  0  0  0  0  0  0  0  0  0  0
    0.6483   -5.0551    2.2857 H   0  0  0  0  0  0  0  0  0  0  0  0
    1.2685   -7.0918    1.0622 H   0  0  0  0  0  0  0  0  0  0  0  0
   -1.0630  -11.4357    1.9226 H   0  0  0  0  0  0  0  0  0  0  0  0
    0.2145  -10.8740    3.0360 H   0  0  0  0  0  0  0  0  0  0  0  0
    0.7286  -13.1583    2.1427 H   0  0  0  0  0  0  0  0  0  0  0  0
    0.7063  -12.5119    0.4965 H   0  0  0  0  0  0  0  0  0  0  0  0
    1.9397  -11.9712    1.6441 H   0  0  0  0  0  0  0  0  0  0  0  0
   -2.4029   -7.2610    4.3237 H   0  0  0  0  0  0  0  0  0  0  0  0
   -1.2255   -4.1326    1.2316 H   0  0  0  0  0  0  0  0  0  0  0  0
   -2.0742    0.5575    0.8950 H   0  0  0  0  0  0  0  0  0  0  0  0
   -3.8403    3.4249   -2.0477 H   0  0  0  0  0  0  0  0  0  0  0  0
   -4.5407    5.1317   -0.4342 H   0  0  0  0  0  0  0  0  0  0  0  0
   -2.8997    7.0912    3.9074 H   0  0  0  0  0  0  0  0  0  0  0  0
   -2.1060    5.5076    3.8367 H   0  0  0  0  0  0  0  0  0  0  0  0
   -1.5086    7.9299    2.0459 H   0  0  0  0  0  0  0  0  0  0  0  0
   -0.4623    7.2833    3.3102 H   0  0  0  0  0  0  0  0  0  0  0  0
   -0.7522    6.3454    1.8464 H   0  0  0  0  0  0  0  0  0  0  0  0
   -0.6828    2.2867    0.6153 H   0  0  0  0  0  0  0  0  0  0  0  0
   -2.6791   -0.8347   -5.8653 H   0  0  0  0  0  0  0  0  0  0  0  0
   -2.6586   -2.7040   -7.4429 H   0  0  0  0  0  0  0  0  0  0  0  0
   -1.9030   -6.6787   -5.6457 H   0  0  0  0  0  0  0  0  0  0  0  0
   -0.2770   -6.9508   -6.3228 H   0  0  0  0  0  0  0  0  0  0  0  0
   -1.3121   -7.9838   -8.3540 H   0  0  0  0  0  0  0  0  0  0  0  0
   -2.9186   -7.7266   -7.6694 H   0  0  0  0  0  0  0  0  0  0  0  0
   -1.7966   -8.8512   -6.8916 H   0  0  0  0  0  0  0  0  0  0  0  0
   -0.1716   -3.0990   -3.2300 H   0  0  0  0  0  0  0  0  0  0  0  0
   -0.8624    0.4713   -6.1043 H   0  0  0  0  0  0  0  0  0  0  0  0
   -0.9539    0.8994   -8.0686 H   0  0  0  0  0  0  0  0  0  0  0  0
   -1.7006   -0.6318   -9.6956 H   0  0  0  0  0  0  0  0  0  0  0  0
   -0.5680   -1.3845  -10.8467 H   0  0  0  0  0  0  0  0  0  0  0  0
    0.0095   -0.8674   -9.2455 H   0  0  0  0  0  0  0  0  0  0  0  0
   -0.3039    4.4924  -12.8998 H   0  0  0  0  0  0  0  0  0  0  0  0
    0.8086    3.3997  -13.7617 H   0  0  0  0  0  0  0  0  0  0  0  0
    1.4008    4.3588  -12.3812 H   0  0  0  0  0  0  0  0  0  0  0  0
   -0.0308    5.0615  -10.6335 H   0  0  0  0  0  0  0  0  0  0  0  0
   -0.9847    7.1418   -9.2699 H   0  0  0  0  0  0  0  0  0  0  0  0
    0.4826    8.6305   -7.9620 H   0  0  0  0  0  0  0  0  0  0  0  0
    0.2851    7.8071   -4.8024 H   0  0  0  0  0  0  0  0  0  0  0  0
   -1.1351    5.1253   -1.8633 H   0  0  0  0  0  0  0  0  0  0  0  0
   -2.4285    6.7426   -0.6051 H   0  0  0  0  0  0  0  0  0  0  0  0
   -4.1831    9.7671    0.5867 H   0  0  0  0  0  0  0  0  0  0  0  0
   -3.6998    8.0685    0.4934 H   0  0  0  0  0  0  0  0  0  0  0  0
   -5.3189    8.6283   -1.3344 H   0  0  0  0  0  0  0  0  0  0  0  0
   -4.2552    9.9263   -1.8894 H   0  0  0  0  0  0  0  0  0  0  0  0
   -3.7438    8.2431   -2.0379 H   0  0  0  0  0  0  0  0  0  0  0  0
    1.8328    8.1117   -2.6557 H   0  0  0  0  0  0  0  0  0  0  0  0
    4.5315    4.0869   -6.8411 H   0  0  0  0  0  0  0  0  0  0  0  0
    5.0325    2.6535   -8.7764 H   0  0  0  0  0  0  0  0  0  0  0  0
    2.9777   -1.6845   -8.8501 H   0  0  0  0  0  0  0  0  0  0  0  0
    4.1194   -1.9666  -10.1753 H   0  0  0  0  0  0  0  0  0  0  0  0
    4.9133   -0.9976   -7.3760 H   0  0  0  0  0  0  0  0  0  0  0  0
    5.1147   -2.6506   -7.9672 H   0  0  0  0  0  0  0  0  0  0  0  0
    6.0224   -1.3261   -8.7089 H   0  0  0  0  0  0  0  0  0  0  0  0
    1.3821    1.4145   -5.7222 H   0  0  0  0  0  0  0  0  0  0  0  0
    2.9083    1.3279   -3.7163 H   0  0  0  0  0  0  0  0  0  0  0  0
    1.9549   -0.3926   -3.7629 H   0  0  0  0  0  0  0  0  0  0  0  0
    1.3780   -1.6944   -5.6047 H   0  0  0  0  0  0  0  0  0  0  0  0
    3.1378   -1.3948   -5.5031 H   0  0  0  0  0  0  0  0  0  0  0  0
    2.5200   -2.8324   -6.3555 H   0  0  0  0  0  0  0  0  0  0  0  0
    3.0759   -5.5094   -0.6480 H   0  0  0  0  0  0  0  0  0  0  0  0
    1.3198   -5.6017   -0.9821 H   0  0  0  0  0  0  0  0  0  0  0  0
    2.4631   -6.5641   -1.9497 H   0  0  0  0  0  0  0  0  0  0  0  0
    1.9757   -3.5760    0.0392 H   0  0  0  0  0  0  0  0  0  0  0  0
    1.7308   -2.6364    1.8879 H   0  0  0  0  0  0  0  0  0  0  0  0
    1.1610    0.0316    3.2697 H   0  0  0  0  0  0  0  0  0  0  0  0
    1.7758   -3.8074    3.6864 H   0  0  0  0  0  0  0  0  0  0  0  0
    3.7034   -4.8852    4.4301 H   0  0  0  0  0  0  0  0  0  0  0  0
    4.3660   -6.6742    2.9346 H   0  0  0  0  0  0  0  0  0  0  0  0
    3.8892   -7.7973    1.0888 H   0  0  0  0  0  0  0  0  0  0  0  0
    4.0443   -9.4433    0.4590 H   0  0  0  0  0  0  0  0  0  0  0  0
    6.3027   -8.3714    0.6901 H   0  0  0  0  0  0  0  0  0  0  0  0
    6.0283   -8.1748    2.4261 H   0  0  0  0  0  0  0  0  0  0  0  0
    6.1384   -9.7891    1.7316 H   0  0  0  0  0  0  0  0  0  0  0  0
    0.7499   -7.4425    6.1907 H   0  0  0  0  0  0  0  0  0  0  0  0
    2.4410   -0.3758    8.3073 H   0  0  0  0  0  0  0  0  0  0  0  0
    1.9295    1.4829    9.8321 H   0  0  0  0  0  0  0  0  0  0  0  0
   -2.1963    1.5527   11.0795 H   0  0  0  0  0  0  0  0  0  0  0  0
   -2.0857    1.3197   12.8459 H   0  0  0  0  0  0  0  0  0  0  0  0
   -1.9072    3.9934   11.3613 H   0  0  0  0  0  0  0  0  0  0  0  0
   -1.7574    3.7976   13.1118 H   0  0  0  0  0  0  0  0  0  0  0  0
   -3.2929    3.4404   12.3092 H   0  0  0  0  0  0  0  0  0  0  0  0
   -0.7727   -2.6226   10.0308 H   0  0  0  0  0  0  0  0  0  0  0  0
    1.1526   -3.8748   10.7835 H   0  0  0  0  0  0  0  0  0  0  0  0
    1.6328   -6.4272   10.9422 H   0  0  0  0  0  0  0  0  0  0  0  0
  1  2  2  0  0  0  0
  2  3  1  0  0  0  0
  3  4  2  0  0  0  0
  4  5  1  0  0  0  0
  5  6  2  0  0  0  0
  6  7  1  0  0  0  0
  7  8  2  0  0  0  0
  8  9  1  0  0  0  0
  9 10  1  0  0  0  0
 10 11  1  0  0  0  0
  8 12  1  0  0  0  0
 12 13  1  0  0  0  0
 12 14  2  0  0  0  0
  4 15  1  0  0  0  0
 15 16  2  0  0  0  0
 16 17  1  0  0  0  0
 17 18  1  0  0  0  0
 18 19  2  0  0  0  0
 19 20  1  0  0  0  0
 20 21  2  0  0  0  0
 21 22  1  0  0  0  0
 22 23  1  0  0  0  0
 23 24  1  0  0  0  0
 21 25  1  0  0  0  0
 25 26  2  0  0  0  0
 25 27  1  0  0  0  0
 17 28  2  0  0  0  0
 28 29  1  0  0  0  0
 16 30  1  0  0  0  0
 30 31  2  0  0  0  0
 31 32  1  0  0  0  0
 31 33  1  0  0  0  0
 33 34  2  0  0  0  0
 34 35  1  0  0  0  0
 35 36  2  0  0  0  0
 36 37  1  0  0  0  0
 37 38  2  0  0  0  0
 38 39  1  0  0  0  0
 39 40  2  0  0  0  0
 40 41  1  0  0  0  0
 41 42  1  0  0  0  0
 42 43  1  0  0  0  0
 40 44  1  0  0  0  0
 44 45  1  0  0  0  0
 44 46  2  0  0  0  0
 36 47  1  0  0  0  0
 47 48  2  0  0  0  0
 48 49  1  0  0  0  0
 49 50  1  0  0  0  0
 50 51  2  0  0  0  0
 51 52  1  0  0  0  0
 52 53  2  0  0  0  0
 53 54  1  0  0  0  0
 54 55  1  0  0  0  0
 55 56  1  0  0  0  0
 53 57  1  0  0  0  0
 57 58  2  0  0  0  0
 57 59  1  0  0  0  0
 49 60  2  0  0  0  0
 60 61  1  0  0  0  0
 48 62  1  0  0  0  0
 62 63  2  0  0  0  0
 63 64  1  0  0  0  0
 63 65  1  0  0  0  0
 65 66  1  0  0  0  0
 65 67  2  0  0  0  0
 67 68  1  0  0  0  0
 68 69  2  0  0  0  0
 69 70  1  0  0  0  0
 70 71  1  0  0  0  0
 69 72  1  0  0  0  0
 72 73  1  0  0  0  0
 73 74  1  0  0  0  0
 72 75  2  0  0  0  0
 75 76  1  0  0  0  0
 76 77  2  0  0  0  0
 77 78  1  0  0  0  0
 78 79  2  0  0  0  0
 79 80  1  0  0  0  0
 80 81  2  0  0  0  0
 81 82  1  0  0  0  0
 82 83  2  0  0  0  0
 83 84  1  0  0  0  0
 84 85  2  0  0  0  0
 85 86  1  0  0  0  0
 86 87  2  0  0  0  0
 87 88  1  0  0  0  0
 88 89  1  0  0  0  0
 89 90  1  0  0  0  0
 87 91  1  0  0  0  0
 91 92  1  0  0  0  0
 91 93  2  0  0  0  0
 83 94  1  0  0  0  0
 94 95  2  0  0  0  0
 95 96  1  0  0  0  0
 96 97  1  0  0  0  0
 97 98  2  0  0  0  0
 98 99  1  0  0  0  0
 99100  2  0  0  0  0
100101  1  0  0  0  0
101102  1  0  0  0  0
102103  1  0  0  0  0
100104  1  0  0  0  0
104105  2  0  0  0  0
104106  1  0  0  0  0
 96107  2  0  0  0  0
107108  1  0  0  0  0
 95109  1  0  0  0  0
109110  2  0  0  0  0
110111  1  0  0  0  0
110112  1  0  0  0  0
112113  1  0  0  0  0
112114  2  0  0  0  0
114115  1  0  0  0  0
115116  2  0  0  0  0
116117  1  0  0  0  0
117118  1  0  0  0  0
116119  1  0  0  0  0
119120  1  0  0  0  0
120121  1  0  0  0  0
119122  2  0  0  0  0
122123  1  0  0  0  0
123124  2  0  0  0  0
124125  1  0  0  0  0
125126  2  0  0  0  0
126127  1  0  0  0  0
127128  2  0  0  0  0
128129  1  0  0  0  0
129130  2  0  0  0  0
130131  1  0  0  0  0
131132  2  0  0  0  0
132133  1  0  0  0  0
133134  2  0  0  0  0
134135  1  0  0  0  0
135136  1  0  0  0  0
136137  1  0  0  0  0
134138  1  0  0  0  0
138139  1  0  0  0  0
138140  2  0  0  0  0
130141  1  0  0  0  0
141142  2  0  0  0  0
142143  1  0  0  0  0
143144  1  0  0  0  0
144145  2  0  0  0  0
145146  1  0  0  0  0
146147  2  0  0  0  0
147148  1  0  0  0  0
148149  1  0  0  0  0
149150  1  0  0  0  0
147151  1  0  0  0  0
151152  2  0  0  0  0
151153  1  0  0  0  0
143154  2  0  0  0  0
154155  1  0  0  0  0
142156  1  0  0  0  0
156157  2  0  0  0  0
157158  1  0  0  0  0
 29  1  1  0  0  0  0
 61 33  1  0  0  0  0
 77 66  1  0  0  0  0
108 80  1  0  0  0  0
124113  1  0  0  0  0
155127  1  0  0  0  0
 28  3  1  0  0  0  0
 60 35  1  0  0  0  0
 76 67  1  0  0  0  0
107 82  1  0  0  0  0
123114  1  0  0  0  0
154129  1  0  0  0  0
 14  5  1  0  0  0  0
 32 15  1  0  0  0  0
 46 37  1  0  0  0  0
 64 47  1  0  0  0  0
 93 84  1  0  0  0  0
111 94  1  0  0  0  0
140131  1  0  0  0  0
158141  1  0  0  0  0
 26 18  1  0  0  0  0
 58 50  1  0  0  0  0
105 97  1  0  0  0  0
152144  1  0  0  0  0
  1159  1  0  0  0  0
  2160  1  0  0  0  0
  6161  1  0  0  0  0
  7162  1  0  0  0  0
 10163  1  0  0  0  0
 10164  1  0  0  0  0
 11165  1  0  0  0  0
 11166  1  0  0  0  0
 11167  1  0  0  0  0
 14168  1  0  0  0  0
 19169  1  0  0  0  0
 20170  1  0  0  0  0
 23171  1  0  0  0  0
 23172  1  0  0  0  0
 24173  1  0  0  0  0
 24174  1  0  0  0  0
 24175  1  0  0  0  0
 26176  1  0  0  0  0
 30177  1  0  0  0  0
 34178  1  0  0  0  0
 38179  1  0  0  0  0
 39180  1  0  0  0  0
 42181  1  0  0  0  0
 42182  1  0  0  0  0
 43183  1  0  0  0  0
 43184  1  0  0  0  0
 43185  1  0  0  0  0
 46186  1  0  0  0  0
 51187  1  0  0  0  0
 52188  1  0  0  0  0
 55189  1  0  0  0  0
 55190  1  0  0  0  0
 56191  1  0  0  0  0
 56192  1  0  0  0  0
 56193  1  0  0  0  0
 58194  1  0  0  0  0
 62195  1  0  0  0  0
 68196  1  0  0  0  0
 71197  1  0  0  0  0
 71198  1  0  0  0  0
 71199  1  0  0  0  0
 74200  1  0  0  0  0
 74201  1  0  0  0  0
 74202  1  0  0  0  0
 75203  1  0  0  0  0
 78204  1  0  0  0  0
 79205  1  0  0  0  0
 81206  1  0  0  0  0
 85207  1  0  0  0  0
 86208  1  0  0  0  0
 89209  1  0  0  0  0
 89210  1  0  0  0  0
 90211  1  0  0  0  0
 90212  1  0  0  0  0
 90213  1  0  0  0  0
 93214  1  0  0  0  0
 98215  1  0  0  0  0
 99216  1  0  0  0  0
102217  1  0  0  0  0
102218  1  0  0  0  0
103219  1  0  0  0  0
103220  1  0  0  0  0
103221  1  0  0  0  0
105222  1  0  0  0  0
109223  1  0  0  0  0
115224  1  0  0  0  0
118225  1  0  0  0  0
118226  1  0  0  0  0
118227  1  0  0  0  0
121228  1  0  0  0  0
121229  1  0  0  0  0
121230  1  0  0  0  0
122231  1  0  0  0  0
125232  1  0  0  0  0
126233  1  0  0  0  0
128234  1  0  0  0  0
132235  1  0  0  0  0
133236  1  0  0  0  0
136237  1  0  0  0  0
136238  1  0  0  0  0
137239  1  0  0  0  0
137240  1  0  0  0  0
137241  1  0  0  0  0
140242  1  0  0  0  0
145243  1  0  0  0  0
146244  1  0  0  0  0
149245  1  0  0  0  0
149246  1  0  0  0  0
150247  1  0  0  0  0
150248  1  0  0  0  0
150249  1  0  0  0  0
152250  1  0  0  0  0
156251  1  0  0  0  0
157252  1  0  0  0  0
M  END
