252

C          5.11170        9.54250       -3.67020
C          3.86460       10.04880       -3.60380
C          2.92320        9.14240       -3.02900
C          1.55680        9.35170       -2.78080
C          0.88580       10.59440       -3.18340
C          0.11110       11.32170       -2.28620
C         -0.53120       12.48340       -2.67090
C         -0.41970       12.96080       -3.97120
S         -1.19650       14.40830       -4.61020
C         -1.81370       15.28210       -3.13100
C         -0.69400       15.90740       -2.32070
C          0.35150       12.21440       -4.86420
F          0.47040       12.63980       -6.13920
C          0.99620       11.05670       -4.49370
C          0.87110        8.31830       -2.16110
C          1.47690        7.07900       -1.84090
C          2.84750        6.87560       -2.06730
C          3.49040        5.63810       -1.60570
C          4.58410        5.70210       -0.74590
C          5.11080        4.56100       -0.17280
C          4.57400        3.31030       -0.45440
S          5.08260        1.80260        0.31300
C          6.79870        2.14690        0.82920
C          7.71850        2.37600       -0.35190
C          3.51350        3.25420       -1.35980
C          2.97080        4.38570       -1.92810
F          2.99300        2.05490       -1.68250
C          3.54080        7.92790       -2.64550
S          5.24280        7.93640       -3.03490
C          0.55950        6.18300       -1.24420
C         -0.69660        6.68880       -1.08750
S         -0.81490        8.33270       -1.69150
C         -1.76380        5.96170       -0.48320
S         -1.74230        4.23970       -0.67640
C         -2.74710        6.34840        0.42210
C         -3.09930        7.65620        0.82150
C         -4.06990        7.83890        1.76490
O         -4.50260        9.04330        2.22050
C         -3.92930       10.20260        1.67260
C         -4.73420        6.70790        2.36700
O         -5.67220        7.03900        3.29020
C         -6.37900        5.99240        3.90830
C         -4.40290        5.43660        1.99760
C         -3.40180        5.22760        1.02170
C         -2.96340        4.00930        0.52360
C         -3.21850        2.66330        0.97140
C         -3.53260        1.64350        0.15090
C         -4.05910        1.75510       -1.17040
S         -4.93630        3.16070       -1.69830
C         -4.18420        0.73150       -2.10360
C         -3.55400       -0.53240       -2.07800
C         -3.75420       -1.41350       -3.09910
O         -3.17630       -2.64120       -3.20200
C         -2.16510       -2.97810       -2.28540
C         -4.62310       -1.07340       -4.20030
O         -4.72560       -2.04410       -5.14880
C         -5.57920       -1.81300       -6.23920
C         -5.24180        0.13990       -4.24250
C         -5.04030        1.07240       -3.19470
C         -5.57220        2.34760       -3.08980
C         -6.67410        2.90990       -3.87010
C         -7.89360        2.36630       -3.80350
C         -8.08400        1.26850       -2.85170
C         -7.93800       -0.06220       -3.04840
C         -7.58720       -0.77680       -1.86460
C         -7.05190       -2.07510       -1.78400
C         -7.24190       -3.01940       -2.88680
C         -6.24460       -3.87900       -3.33810
C         -6.46340       -4.74800       -4.38870
C         -7.69030       -4.79300       -5.03800
S         -8.10620       -5.83850       -6.39200
C         -6.58410       -6.79160       -6.72390
C         -5.54660       -5.99640       -7.49480
C         -8.68860       -3.93490       -4.57080
F         -9.90070       -3.95290       -5.16790
C         -8.48570       -3.06800       -3.52360
C         -6.30080       -2.33700       -0.64270
C         -6.21440       -1.44970        0.46270
C         -6.96940       -0.26690        0.47090
C         -7.15010        0.61060        1.63430
C         -8.45320        0.96470        1.99060
C         -8.69690        1.76490        3.08460
C         -7.65350        2.26880        3.85770
S         -8.07700        3.31390        5.22420
C         -6.95080        2.75390        6.55630
C         -7.12730        1.28100        6.86610
C         -6.36000        1.95130        3.46160
C         -6.10170        1.12230        2.38790
F         -5.29060        2.45770        4.12250
C         -7.55870        0.07210       -0.73860
S         -8.06720        1.68870       -1.14500
C         -5.22050       -1.85530        1.39390
C         -4.56260       -2.98610        1.02600
S         -5.24950       -3.70930       -0.41670
C         -3.27010       -3.43630        1.46850
C         -2.20070       -2.61380        1.66030
C         -0.96990       -3.30190        1.81760
C          0.31810       -2.74670        1.92990
C          0.54330       -1.30780        1.74910
C          1.35540       -0.56780        2.60150
C          1.56090        0.78470        2.40060
C          0.95900        1.44790        1.33750
S          1.09120        3.16310        0.99370
C          2.18280        3.79820        2.31640
C          2.28340        5.30490        2.16890
C          0.16880        0.68870        0.47070
F         -0.41220        1.28640       -0.58710
C         -0.04000       -0.65630        0.66090
C          1.35970       -3.64350        2.11870
C          1.16390       -5.04610        2.15370
C         -0.11660       -5.60190        1.99200
C         -0.28380       -7.05950        1.98440
C          0.27070       -7.83730        2.99900
C          0.21690       -9.21550        2.95480
C         -0.38810       -9.86920        1.88660
S         -0.46320      -11.61890        1.69550
C          0.93600      -12.22610        2.70410
C          2.28170      -11.79270        2.15690
C         -0.99170       -9.07750        0.90840
C         -0.94940       -7.70110        0.94300
F         -1.61550       -9.67470       -0.12650
C         -1.15720       -4.70660        1.80770
S         -2.82880       -5.12690        1.53040
C          2.39000       -5.74510        2.25530
C          3.48360       -4.93520        2.31510
S          3.05550       -3.23740        2.24400
C          4.83400       -5.38210        2.41760
C          5.99040       -4.66530        2.46170
C          7.15520       -5.47440        2.55960
C          8.49850       -5.07140        2.61320
C          8.88120       -3.65820        2.51360
C          9.73380       -3.07940        3.44900
C         10.10540       -1.75310        3.35120
C          9.65360       -0.96360        2.30060
S         10.05350        0.74100        2.08070
C         11.63800        0.92920        2.96790
C         12.75070        0.12120        2.32940
C          8.79750       -1.55570        1.37170
F          8.34080       -0.82080        0.33860
C          8.40570       -2.87200        1.46630
C          9.44770       -6.07640        2.74450
C          9.12350       -7.45370        2.78770
C          7.78440       -7.85880        2.71940
C          7.37540       -9.26990        2.71890
C          7.90280      -10.17540        1.80410
C          7.45740      -11.48310        1.75460
C          6.46520      -11.93060        2.61900
S          5.80250      -13.56410        2.66520
C          6.28680      -14.28910        1.06210
C          5.54570      -13.65730       -0.10030
C          5.96570      -11.01770        3.54900
C          6.39850       -9.71350        3.60820
F          5.01590      -11.42320        4.41770
C          6.83520       -6.85250        2.62300
S          5.11760       -7.11180        2.50930
C         10.28880       -8.26700        2.91710
C         11.42900       -7.54910        2.94380
S         11.17590       -5.84040        2.82370
H          5.99610       10.01310       -4.05310
H          3.60660       11.03850       -3.93450
H          0.01890       10.98300       -1.26570
H         -1.12630       13.01130       -1.94370
H         -2.41970       14.59220       -2.54520
H         -2.46680       16.05050       -3.54480
H         -0.13270       16.60640       -2.93610
H         -1.10780       16.44640       -1.47030
H         -0.00710       15.14890       -1.95160
H          1.56150       10.50920       -5.23160
H          5.00310        6.66270       -0.48690
H          5.93140        4.65710        0.51990
H          6.79770        2.98370        1.52710
H          7.08780        1.24690        1.36930
H          8.73360        2.53310        0.00580
H          7.40810        3.24360       -0.93100
H          7.71360        1.50230       -0.99800
H          2.15070        4.28180       -2.62060
H          0.82070        5.20140       -0.89530
H         -2.59720        8.48860        0.35660
H         -2.85350       10.25270        1.87320
H         -4.42760       11.03750        2.16290
H         -4.09640       10.26180        0.59180
H         -6.94960        5.40760        3.17950
H         -7.06780        6.46540        4.60550
H         -5.70670        5.32650        4.45820
H         -4.88610        4.57430        2.42400
H         -3.04170        2.47660        2.02440
H         -3.48790        0.62620        0.52320
H         -2.89480       -0.76300       -1.25800
H         -1.34550       -2.25260       -2.31340
H         -1.79510       -3.95310       -2.59870
H         -2.55140       -3.05320       -1.26340
H         -5.51710       -2.70380       -6.86170
H         -6.61620       -1.67520       -5.91500
H         -5.26310       -0.94290       -6.82380
H         -5.86620        0.43330       -5.07030
H         -6.48140        3.78160       -4.48120
H         -8.72420        2.73450       -4.38710
H         -7.94150       -0.51340       -4.02340
H         -5.25900       -3.84950       -2.90720
H         -5.65270       -5.38510       -4.69840
H         -6.20230       -7.16880       -5.77640
H         -6.93830       -7.63510       -7.31690
H         -5.19500       -5.14300       -6.91940
H         -5.97080       -5.63270       -8.42810
H         -4.69360       -6.63190       -7.72550
H         -9.30400       -2.44640       -3.19430
H         -9.28210        0.58410        1.41370
H         -9.70780        2.01620        3.36480
H         -5.92630        2.99170        6.27920
H         -7.24140        3.37250        7.40510
H         -8.16360        1.06580        7.11710
H         -6.84520        0.66870        6.01130
H         -6.49780        1.00510        7.70980
H         -5.07610        0.93460        2.12110
H         -4.97240       -1.30220        2.28060
H         -2.28390       -1.54210        1.66250
H          1.82010       -1.04840        3.44870
H          2.19910        1.32020        3.08360
H          3.15720        3.32250        2.20410
H          1.73780        3.53260        3.27540
H          2.71890        5.56670        1.20740
H          1.29670        5.75850        2.23470
H          2.91000        5.71300        2.95910
H         -0.63020       -1.20260       -0.05790
H          0.74040       -7.35410        3.84270
H          0.65560       -9.78210        3.76020
H          0.82780      -13.30940        2.65270
H          0.79070      -11.91410        3.73710
H          2.38850      -10.71010        2.18740
H          3.07590      -12.23640        2.75310
H          2.39130      -12.11910        1.12500
H         -1.40270       -7.14220        0.13970
H          2.46610       -6.81760        2.25550
H          6.00650       -3.59040        2.43660
H         10.09400       -3.66730        4.27910
H         10.74860       -1.33450        4.10830
H         11.48720        0.67410        4.01620
H         11.84140        1.99780        2.89750
H         12.53050       -0.94400        2.36600
H         13.68610        0.30070        2.85560
H         12.87550        0.41070        1.28850
H          7.75880       -3.28370        0.70760
H          8.65430       -9.84650        1.10200
H          7.89090      -12.15240        1.02920
H          7.36860      -14.21690        0.95760
H          6.01950      -15.34050        1.16810
H          5.75860      -12.59240       -0.16820
H          5.84610      -14.13270       -1.03210
H          4.47330      -13.78540        0.02510
H          5.97880       -9.05450        4.35140
H         10.25250       -9.33830        2.99710
H         12.43490       -7.90970        3.03450
