
  xtb     03042207473D
 energy: -434.705218685471 gnorm: 0.000203558047 xtb: 6.4.1 (unknown)
252275  0     0  0            999 V2000
    2.2131   -5.7470    6.6381 C   0  0  0  0  0  0  0  0  0  0  0  0
    1.7842   -4.5032    6.3436 C   0  0  0  0  0  0  0  0  0  0  0  0
    0.5579   -4.4967    5.6156 C   0  0  0  0  0  0  0  0  0  0  0  0
   -0.1766   -3.3875    5.1778 C   0  0  0  0  0  0  0  0  0  0  0  0
    0.3455   -2.0172    5.2497 C   0  0  0  0  0  0  0  0  0  0  0  0
    1.5905   -1.7210    4.6936 C   0  0  0  0  0  0  0  0  0  0  0  0
    2.0274   -0.4198    4.6171 C   0  0  0  0  0  0  0  0  0  0  0  0
    1.2684    0.6472    5.1065 C   0  0  0  0  0  0  0  0  0  0  0  0
    1.9745    2.2401    4.8424 S   0  0  0  0  0  0  0  0  0  0  0  0
    0.9639    3.4332    5.8028 C   0  0  0  0  0  0  0  0  0  0  0  0
    1.6127    4.7990    5.6917 C   0  0  0  0  0  0  0  0  0  0  0  0
    0.0436    0.3302    5.6866 C   0  0  0  0  0  0  0  0  0  0  0  0
   -0.7681    1.2863    6.1946 F   0  0  0  0  0  0  0  0  0  0  0  0
   -0.4175   -0.9713    5.7522 C   0  0  0  0  0  0  0  0  0  0  0  0
   -1.3770   -3.6528    4.5360 C   0  0  0  0  0  0  0  0  0  0  0  0
   -1.8383   -4.9617    4.2542 C   0  0  0  0  0  0  0  0  0  0  0  0
   -1.1071   -6.0728    4.7049 C   0  0  0  0  0  0  0  0  0  0  0  0
   -1.5903   -7.4400    4.4856 C   0  0  0  0  0  0  0  0  0  0  0  0
   -2.9048   -7.7835    4.8014 C   0  0  0  0  0  0  0  0  0  0  0  0
   -3.3528   -9.0757    4.6349 C   0  0  0  0  0  0  0  0  0  0  0  0
   -2.5188  -10.0727    4.1325 C   0  0  0  0  0  0  0  0  0  0  0  0
   -3.2138  -11.6861    3.9242 S   0  0  0  0  0  0  0  0  0  0  0  0
   -1.8770  -12.8129    4.4689 C   0  0  0  0  0  0  0  0  0  0  0  0
   -1.4391  -12.5271    5.8911 C   0  0  0  0  0  0  0  0  0  0  0  0
   -1.2205   -9.7080    3.7892 C   0  0  0  0  0  0  0  0  0  0  0  0
   -0.7500   -8.4242    3.9762 C   0  0  0  0  0  0  0  0  0  0  0  0
   -0.3701  -10.6079    3.2498 F   0  0  0  0  0  0  0  0  0  0  0  0
    0.0791   -5.8071    5.3786 C   0  0  0  0  0  0  0  0  0  0  0  0
    1.1672   -6.9954    6.0526 S   0  0  0  0  0  0  0  0  0  0  0  0
   -2.9812   -4.9465    3.4065 C   0  0  0  0  0  0  0  0  0  0  0  0
   -3.4061   -3.6942    3.0898 C   0  0  0  0  0  0  0  0  0  0  0  0
   -2.4294   -2.4462    3.8514 S   0  0  0  0  0  0  0  0  0  0  0  0
   -4.3635   -3.2601    2.1191 C   0  0  0  0  0  0  0  0  0  0  0  0
   -4.9057   -2.0150    2.0218 C   0  0  0  0  0  0  0  0  0  0  0  0
   -5.5154   -1.7542    0.7695 C   0  0  0  0  0  0  0  0  0  0  0  0
   -6.0382   -0.5358    0.3093 C   0  0  0  0  0  0  0  0  0  0  0  0
   -6.1354    0.6592    1.1581 C   0  0  0  0  0  0  0  0  0  0  0  0
   -5.0358    1.1496    1.8600 C   0  0  0  0  0  0  0  0  0  0  0  0
   -5.1493    2.2842    2.6350 C   0  0  0  0  0  0  0  0  0  0  0  0
   -6.3528    2.9797    2.7320 C   0  0  0  0  0  0  0  0  0  0  0  0
   -6.3647    4.4490    3.7187 S   0  0  0  0  0  0  0  0  0  0  0  0
   -7.9754    4.3860    4.5878 C   0  0  0  0  0  0  0  0  0  0  0  0
   -8.1323    3.1172    5.4013 C   0  0  0  0  0  0  0  0  0  0  0  0
   -7.4307    2.5008    1.9943 C   0  0  0  0  0  0  0  0  0  0  0  0
   -8.6178    3.1464    2.0035 F   0  0  0  0  0  0  0  0  0  0  0  0
   -7.3362    1.3571    1.2276 C   0  0  0  0  0  0  0  0  0  0  0  0
   -6.3508   -0.4688   -1.0382 C   0  0  0  0  0  0  0  0  0  0  0  0
   -6.2110   -1.5635   -1.9250 C   0  0  0  0  0  0  0  0  0  0  0  0
   -5.8216   -2.8236   -1.4333 C   0  0  0  0  0  0  0  0  0  0  0  0
   -5.7560   -3.9809   -2.3317 C   0  0  0  0  0  0  0  0  0  0  0  0
   -6.8357   -4.2792   -3.1639 C   0  0  0  0  0  0  0  0  0  0  0  0
   -6.8019   -5.3793   -3.9918 C   0  0  0  0  0  0  0  0  0  0  0  0
   -5.6876   -6.2168   -4.0437 C   0  0  0  0  0  0  0  0  0  0  0  0
   -5.7594   -7.5734   -5.1728 S   0  0  0  0  0  0  0  0  0  0  0  0
   -4.8562   -8.9243   -4.3298 C   0  0  0  0  0  0  0  0  0  0  0  0
   -5.4568   -9.2542   -2.9783 C   0  0  0  0  0  0  0  0  0  0  0  0
   -4.6015   -5.8818   -3.2406 C   0  0  0  0  0  0  0  0  0  0  0  0
   -4.6325   -4.7983   -2.3861 C   0  0  0  0  0  0  0  0  0  0  0  0
   -3.4647   -6.6094   -3.2694 F   0  0  0  0  0  0  0  0  0  0  0  0
   -5.4425   -2.8737   -0.0991 C   0  0  0  0  0  0  0  0  0  0  0  0
   -4.7011   -4.2395    0.7030 S   0  0  0  0  0  0  0  0  0  0  0  0
   -6.2496   -1.1505   -3.2822 C   0  0  0  0  0  0  0  0  0  0  0  0
   -6.3774    0.2012   -3.4375 C   0  0  0  0  0  0  0  0  0  0  0  0
   -6.6639    1.0123   -1.9038 S   0  0  0  0  0  0  0  0  0  0  0  0
   -5.9348    0.9964   -4.5408 C   0  0  0  0  0  0  0  0  0  0  0  0
   -5.1024    0.5754   -5.5409 C   0  0  0  0  0  0  0  0  0  0  0  0
   -4.3195    1.6143   -6.0998 C   0  0  0  0  0  0  0  0  0  0  0  0
   -3.1916    1.4718   -6.9291 C   0  0  0  0  0  0  0  0  0  0  0  0
   -2.7713    0.1859   -7.5011 C   0  0  0  0  0  0  0  0  0  0  0  0
   -2.5003    0.0867   -8.8623 C   0  0  0  0  0  0  0  0  0  0  0  0
   -2.0657   -1.0992   -9.4212 C   0  0  0  0  0  0  0  0  0  0  0  0
   -1.8675   -2.2266   -8.6325 C   0  0  0  0  0  0  0  0  0  0  0  0
   -1.3223   -3.7961   -9.2204 S   0  0  0  0  0  0  0  0  0  0  0  0
   -0.5305   -3.4104  -10.8206 C   0  0  0  0  0  0  0  0  0  0  0  0
    0.7334   -2.5888  -10.6527 C   0  0  0  0  0  0  0  0  0  0  0  0
   -2.1408   -2.1120   -7.2687 C   0  0  0  0  0  0  0  0  0  0  0  0
   -1.9589   -3.1823   -6.4691 F   0  0  0  0  0  0  0  0  0  0  0  0
   -2.5805   -0.9376   -6.7002 C   0  0  0  0  0  0  0  0  0  0  0  0
   -2.3887    2.5889   -7.0716 C   0  0  0  0  0  0  0  0  0  0  0  0
   -2.7025    3.8475   -6.5057 C   0  0  0  0  0  0  0  0  0  0  0  0
   -3.9106    4.0317   -5.8024 C   0  0  0  0  0  0  0  0  0  0  0  0
   -4.2405    5.3641   -5.2885 C   0  0  0  0  0  0  0  0  0  0  0  0
   -4.6660    5.5883   -3.9829 C   0  0  0  0  0  0  0  0  0  0  0  0
   -4.9223    6.8651   -3.5197 C   0  0  0  0  0  0  0  0  0  0  0  0
   -4.7601    7.9715   -4.3461 C   0  0  0  0  0  0  0  0  0  0  0  0
   -5.0287    9.6460   -3.8819 S   0  0  0  0  0  0  0  0  0  0  0  0
   -5.6800    9.5159   -2.1754 C   0  0  0  0  0  0  0  0  0  0  0  0
   -6.0346   10.9067   -1.6841 C   0  0  0  0  0  0  0  0  0  0  0  0
   -4.3340    7.7334   -5.6549 C   0  0  0  0  0  0  0  0  0  0  0  0
   -4.0793    6.4689   -6.1285 C   0  0  0  0  0  0  0  0  0  0  0  0
   -4.1520    8.7840   -6.4867 F   0  0  0  0  0  0  0  0  0  0  0  0
   -4.6508    2.8848   -5.5574 C   0  0  0  0  0  0  0  0  0  0  0  0
   -5.9684    2.7461   -4.4200 S   0  0  0  0  0  0  0  0  0  0  0  0
   -1.5873    4.7161   -6.4898 C   0  0  0  0  0  0  0  0  0  0  0  0
   -0.4360    4.1474   -6.9717 C   0  0  0  0  0  0  0  0  0  0  0  0
   -0.7475    2.5624   -7.6753 S   0  0  0  0  0  0  0  0  0  0  0  0
    0.8913    4.5433   -6.6728 C   0  0  0  0  0  0  0  0  0  0  0  0
    2.0943    3.2975   -6.5085 S   0  0  0  0  0  0  0  0  0  0  0  0
    1.3467    5.7431   -6.1086 C   0  0  0  0  0  0  0  0  0  0  0  0
    0.7096    7.0007   -6.1301 C   0  0  0  0  0  0  0  0  0  0  0  0
    1.2660    8.0618   -5.4681 C   0  0  0  0  0  0  0  0  0  0  0  0
    0.7390    9.3063   -5.4028 O   0  0  0  0  0  0  0  0  0  0  0  0
   -0.5151    9.5372   -6.0002 C   0  0  0  0  0  0  0  0  0  0  0  0
    2.5134    7.9059   -4.7662 C   0  0  0  0  0  0  0  0  0  0  0  0
    2.9543    9.0337   -4.1586 O   0  0  0  0  0  0  0  0  0  0  0  0
    4.1627    8.9789   -3.4419 C   0  0  0  0  0  0  0  0  0  0  0  0
    3.1577    6.6976   -4.7628 C   0  0  0  0  0  0  0  0  0  0  0  0
    2.5924    5.5958   -5.4332 C   0  0  0  0  0  0  0  0  0  0  0  0
    3.1088    4.2904   -5.4973 C   0  0  0  0  0  0  0  0  0  0  0  0
    4.1153    3.7009   -4.7139 C   0  0  0  0  0  0  0  0  0  0  0  0
    4.5422    2.4128   -4.8771 C   0  0  0  0  0  0  0  0  0  0  0  0
    5.2226    1.6360   -3.9281 C   0  0  0  0  0  0  0  0  0  0  0  0
    5.3267    2.1016   -2.2523 S   0  0  0  0  0  0  0  0  0  0  0  0
    5.7155    0.3296   -4.1030 C   0  0  0  0  0  0  0  0  0  0  0  0
    5.8261   -0.3792   -5.3150 C   0  0  0  0  0  0  0  0  0  0  0  0
    6.3158   -1.6578   -5.3172 C   0  0  0  0  0  0  0  0  0  0  0  0
    6.4700   -2.4397   -6.4142 O   0  0  0  0  0  0  0  0  0  0  0  0
    6.0832   -1.9220   -7.6626 C   0  0  0  0  0  0  0  0  0  0  0  0
    6.7207   -2.2801   -4.0856 C   0  0  0  0  0  0  0  0  0  0  0  0
    7.1862   -3.5457   -4.2248 O   0  0  0  0  0  0  0  0  0  0  0  0
    7.5822   -4.2441   -3.0704 C   0  0  0  0  0  0  0  0  0  0  0  0
    6.6193   -1.5992   -2.9026 C   0  0  0  0  0  0  0  0  0  0  0  0
    6.1152   -0.2832   -2.8864 C   0  0  0  0  0  0  0  0  0  0  0  0
    5.9166    0.5384   -1.7626 C   0  0  0  0  0  0  0  0  0  0  0  0
    6.0130    0.1407   -0.4175 C   0  0  0  0  0  0  0  0  0  0  0  0
    5.7221    0.8862    0.6817 C   0  0  0  0  0  0  0  0  0  0  0  0
    5.6685    0.3326    1.9900 C   0  0  0  0  0  0  0  0  0  0  0  0
    5.6718   -0.9893    2.3496 C   0  0  0  0  0  0  0  0  0  0  0  0
    5.5646   -1.2143    3.7406 C   0  0  0  0  0  0  0  0  0  0  0  0
    5.4779   -2.4501    4.4062 C   0  0  0  0  0  0  0  0  0  0  0  0
    5.5435   -3.7170    3.6702 C   0  0  0  0  0  0  0  0  0  0  0  0
    4.5883   -4.7135    3.8705 C   0  0  0  0  0  0  0  0  0  0  0  0
    4.6255   -5.8818    3.1417 C   0  0  0  0  0  0  0  0  0  0  0  0
    5.6160   -6.1122    2.1874 C   0  0  0  0  0  0  0  0  0  0  0  0
    5.5716   -7.6497    1.3213 S   0  0  0  0  0  0  0  0  0  0  0  0
    6.1982   -7.2161   -0.3526 C   0  0  0  0  0  0  0  0  0  0  0  0
    5.6695   -8.2253   -1.3523 C   0  0  0  0  0  0  0  0  0  0  0  0
    6.5862   -5.1273    2.0271 C   0  0  0  0  0  0  0  0  0  0  0  0
    7.6084   -5.2926    1.1524 F   0  0  0  0  0  0  0  0  0  0  0  0
    6.5544   -3.9479    2.7419 C   0  0  0  0  0  0  0  0  0  0  0  0
    5.3097   -2.4035    5.7821 C   0  0  0  0  0  0  0  0  0  0  0  0
    5.1998   -1.1949    6.5082 C   0  0  0  0  0  0  0  0  0  0  0  0
    5.2445    0.0398    5.8392 C   0  0  0  0  0  0  0  0  0  0  0  0
    5.0061    1.2984    6.5522 C   0  0  0  0  0  0  0  0  0  0  0  0
    5.8136    2.4166    6.3605 C   0  0  0  0  0  0  0  0  0  0  0  0
    5.5516    3.5950    7.0270 C   0  0  0  0  0  0  0  0  0  0  0  0
    4.4728    3.7089    7.8997 C   0  0  0  0  0  0  0  0  0  0  0  0
    4.1832    5.2853    8.6575 S   0  0  0  0  0  0  0  0  0  0  0  0
    3.8227    4.8539   10.3997 C   0  0  0  0  0  0  0  0  0  0  0  0
    4.9680    4.0967   11.0413 C   0  0  0  0  0  0  0  0  0  0  0  0
    3.6599    2.5921    8.0630 C   0  0  0  0  0  0  0  0  0  0  0  0
    3.9190    1.4026    7.4162 C   0  0  0  0  0  0  0  0  0  0  0  0
    2.5679    2.6428    8.8612 F   0  0  0  0  0  0  0  0  0  0  0  0
    5.4589    0.0006    4.4683 C   0  0  0  0  0  0  0  0  0  0  0  0
    5.5188    1.3770    3.3951 S   0  0  0  0  0  0  0  0  0  0  0  0
    5.0977   -1.4367    7.9112 C   0  0  0  0  0  0  0  0  0  0  0  0
    5.1204   -2.7474    8.2251 C   0  0  0  0  0  0  0  0  0  0  0  0
    5.2653   -3.7866    6.8473 S   0  0  0  0  0  0  0  0  0  0  0  0
    3.1027   -6.0290    7.1667 H   0  0  0  0  0  0  0  0  0  0  0  0
    2.2933   -3.6041    6.6415 H   0  0  0  0  0  0  0  0  0  0  0  0
    2.1976   -2.5117    4.2794 H   0  0  0  0  0  0  0  0  0  0  0  0
    2.9707   -0.1935    4.1488 H   0  0  0  0  0  0  0  0  0  0  0  0
   -0.0415    3.4438    5.3860 H   0  0  0  0  0  0  0  0  0  0  0  0
    0.9329    3.0913    6.8356 H   0  0  0  0  0  0  0  0  0  0  0  0
    2.6310    4.7766    6.0734 H   0  0  0  0  0  0  0  0  0  0  0  0
    1.0413    5.5220    6.2691 H   0  0  0  0  0  0  0  0  0  0  0  0
    1.6427    5.1238    4.6540 H   0  0  0  0  0  0  0  0  0  0  0  0
   -1.3818   -1.1508    6.2020 H   0  0  0  0  0  0  0  0  0  0  0  0
   -3.5664   -7.0361    5.2124 H   0  0  0  0  0  0  0  0  0  0  0  0
   -4.3652   -9.3415    4.8966 H   0  0  0  0  0  0  0  0  0  0  0  0
   -2.3350  -13.7988    4.3883 H   0  0  0  0  0  0  0  0  0  0  0  0
   -1.0496  -12.7476    3.7660 H   0  0  0  0  0  0  0  0  0  0  0  0
   -0.7009  -13.2639    6.2013 H   0  0  0  0  0  0  0  0  0  0  0  0
   -2.2885  -12.5752    6.5696 H   0  0  0  0  0  0  0  0  0  0  0  0
   -0.9903  -11.5384    5.9685 H   0  0  0  0  0  0  0  0  0  0  0  0
    0.2645   -8.1992    3.6872 H   0  0  0  0  0  0  0  0  0  0  0  0
   -3.4412   -5.8351    3.0120 H   0  0  0  0  0  0  0  0  0  0  0  0
   -4.8299   -1.2898    2.8117 H   0  0  0  0  0  0  0  0  0  0  0  0
   -4.0821    0.6507    1.7812 H   0  0  0  0  0  0  0  0  0  0  0  0
   -4.2977    2.6584    3.1817 H   0  0  0  0  0  0  0  0  0  0  0  0
   -7.9443    5.2649    5.2320 H   0  0  0  0  0  0  0  0  0  0  0  0
   -8.7758    4.5069    3.8613 H   0  0  0  0  0  0  0  0  0  0  0  0
   -7.3030    3.0041    6.0966 H   0  0  0  0  0  0  0  0  0  0  0  0
   -9.0610    3.1578    5.9669 H   0  0  0  0  0  0  0  0  0  0  0  0
   -8.1626    2.2424    4.7542 H   0  0  0  0  0  0  0  0  0  0  0  0
   -8.2068    1.0213    0.6855 H   0  0  0  0  0  0  0  0  0  0  0  0
   -7.7173   -3.6567   -3.1344 H   0  0  0  0  0  0  0  0  0  0  0  0
   -7.6468   -5.6172   -4.6193 H   0  0  0  0  0  0  0  0  0  0  0  0
   -3.8047   -8.6566   -4.2565 H   0  0  0  0  0  0  0  0  0  0  0  0
   -4.9624   -9.7602   -5.0216 H   0  0  0  0  0  0  0  0  0  0  0  0
   -5.3510   -8.4178   -2.2901 H   0  0  0  0  0  0  0  0  0  0  0  0
   -4.9454  -10.1144   -2.5511 H   0  0  0  0  0  0  0  0  0  0  0  0
   -6.5147   -9.4889   -3.0771 H   0  0  0  0  0  0  0  0  0  0  0  0
   -3.7539   -4.5851   -1.7984 H   0  0  0  0  0  0  0  0  0  0  0  0
   -6.0751   -1.8251   -4.1007 H   0  0  0  0  0  0  0  0  0  0  0  0
   -4.9760   -0.4599   -5.7962 H   0  0  0  0  0  0  0  0  0  0  0  0
   -2.6446    0.9488   -9.4959 H   0  0  0  0  0  0  0  0  0  0  0  0
   -1.8866   -1.1390  -10.4833 H   0  0  0  0  0  0  0  0  0  0  0  0
   -1.2601   -2.9252  -11.4675 H   0  0  0  0  0  0  0  0  0  0  0  0
   -0.3030   -4.3935  -11.2326 H   0  0  0  0  0  0  0  0  0  0  0  0
    1.4414   -3.1173  -10.0185 H   0  0  0  0  0  0  0  0  0  0  0  0
    0.5159   -1.6256  -10.1955 H   0  0  0  0  0  0  0  0  0  0  0  0
    1.1948   -2.4171  -11.6233 H   0  0  0  0  0  0  0  0  0  0  0  0
   -2.7318   -0.8973   -5.6328 H   0  0  0  0  0  0  0  0  0  0  0  0
   -4.7718    4.7599   -3.3009 H   0  0  0  0  0  0  0  0  0  0  0  0
   -5.2404    6.9899   -2.4980 H   0  0  0  0  0  0  0  0  0  0  0  0
   -4.9067    9.0683   -1.5508 H   0  0  0  0  0  0  0  0  0  0  0  0
   -6.5615    8.8752   -2.2025 H   0  0  0  0  0  0  0  0  0  0  0  0
   -5.1544   11.5454   -1.6797 H   0  0  0  0  0  0  0  0  0  0  0  0
   -6.4308   10.8501   -0.6726 H   0  0  0  0  0  0  0  0  0  0  0  0
   -6.7847   11.3587   -2.3288 H   0  0  0  0  0  0  0  0  0  0  0  0
   -3.7688    6.3442   -7.1543 H   0  0  0  0  0  0  0  0  0  0  0  0
   -1.6004    5.6554   -5.9705 H   0  0  0  0  0  0  0  0  0  0  0  0
   -0.1978    7.1166   -6.6974 H   0  0  0  0  0  0  0  0  0  0  0  0
   -1.2884    8.8908   -5.5736 H   0  0  0  0  0  0  0  0  0  0  0  0
   -0.4798    9.3923   -7.0843 H   0  0  0  0  0  0  0  0  0  0  0  0
   -0.7587   10.5756   -5.7849 H   0  0  0  0  0  0  0  0  0  0  0  0
    5.0058    8.7268   -4.0937 H   0  0  0  0  0  0  0  0  0  0  0  0
    4.1102    8.2561   -2.6210 H   0  0  0  0  0  0  0  0  0  0  0  0
    4.3082    9.9778   -3.0347 H   0  0  0  0  0  0  0  0  0  0  0  0
    4.1028    6.5692   -4.2618 H   0  0  0  0  0  0  0  0  0  0  0  0
    4.4886    4.2785   -3.8787 H   0  0  0  0  0  0  0  0  0  0  0  0
    4.2562    1.8992   -5.7870 H   0  0  0  0  0  0  0  0  0  0  0  0
    5.5259    0.1032   -6.2301 H   0  0  0  0  0  0  0  0  0  0  0  0
    5.0165   -1.6753   -7.6823 H   0  0  0  0  0  0  0  0  0  0  0  0
    6.6658   -1.0334   -7.9277 H   0  0  0  0  0  0  0  0  0  0  0  0
    6.2844   -2.7127   -8.3833 H   0  0  0  0  0  0  0  0  0  0  0  0
    7.8968   -5.2278   -3.4141 H   0  0  0  0  0  0  0  0  0  0  0  0
    6.7529   -4.3559   -2.3642 H   0  0  0  0  0  0  0  0  0  0  0  0
    8.4209   -3.7524   -2.5674 H   0  0  0  0  0  0  0  0  0  0  0  0
    6.9304   -2.0537   -1.9770 H   0  0  0  0  0  0  0  0  0  0  0  0
    6.2975   -0.8920   -0.2717 H   0  0  0  0  0  0  0  0  0  0  0  0
    5.4916    1.9370    0.5751 H   0  0  0  0  0  0  0  0  0  0  0  0
    5.6954   -1.7898    1.6342 H   0  0  0  0  0  0  0  0  0  0  0  0
    3.7941   -4.5606    4.5849 H   0  0  0  0  0  0  0  0  0  0  0  0
    3.8750   -6.6421    3.2923 H   0  0  0  0  0  0  0  0  0  0  0  0
    5.8362   -6.2138   -0.5778 H   0  0  0  0  0  0  0  0  0  0  0  0
    7.2868   -7.2193   -0.3269 H   0  0  0  0  0  0  0  0  0  0  0  0
    6.0115   -9.2262   -1.0998 H   0  0  0  0  0  0  0  0  0  0  0  0
    6.0253   -7.9757   -2.3497 H   0  0  0  0  0  0  0  0  0  0  0  0
    4.5819   -8.2241   -1.3578 H   0  0  0  0  0  0  0  0  0  0  0  0
    7.3449   -3.2287    2.5915 H   0  0  0  0  0  0  0  0  0  0  0  0
    6.6662    2.3557    5.7026 H   0  0  0  0  0  0  0  0  0  0  0  0
    6.1831    4.4574    6.8808 H   0  0  0  0  0  0  0  0  0  0  0  0
    2.8903    4.2954   10.4407 H   0  0  0  0  0  0  0  0  0  0  0  0
    3.6764    5.8240   10.8745 H   0  0  0  0  0  0  0  0  0  0  0  0
    5.1193    3.1358   10.5520 H   0  0  0  0  0  0  0  0  0  0  0  0
    4.7470    3.9171   12.0916 H   0  0  0  0  0  0  0  0  0  0  0  0
    5.8910    4.6684   10.9707 H   0  0  0  0  0  0  0  0  0  0  0  0
    3.2398    0.5751    7.5553 H   0  0  0  0  0  0  0  0  0  0  0  0
    5.0391   -0.6534    8.6449 H   0  0  0  0  0  0  0  0  0  0  0  0
    5.0645   -3.1943    9.1984 H   0  0  0  0  0  0  0  0  0  0  0  0
  1  2  2  0  0  0  0
  2  3  1  0  0  0  0
  3  4  2  0  0  0  0
  4  5  1  0  0  0  0
  5  6  2  0  0  0  0
  6  7  1  0  0  0  0
  7  8  2  0  0  0  0
  8  9  1  0  0  0  0
  9 10  1  0  0  0  0
 10 11  1  0  0  0  0
  8 12  1  0  0  0  0
 12 13  1  0  0  0  0
 12 14  2  0  0  0  0
  4 15  1  0  0  0  0
 15 16  2  0  0  0  0
 16 17  1  0  0  0  0
 17 18  1  0  0  0  0
 18 19  2  0  0  0  0
 19 20  1  0  0  0  0
 20 21  2  0  0  0  0
 21 22  1  0  0  0  0
 22 23  1  0  0  0  0
 23 24  1  0  0  0  0
 21 25  1  0  0  0  0
 25 26  2  0  0  0  0
 25 27  1  0  0  0  0
 17 28  2  0  0  0  0
 28 29  1  0  0  0  0
 16 30  1  0  0  0  0
 30 31  2  0  0  0  0
 31 32  1  0  0  0  0
 31 33  1  0  0  0  0
 33 34  2  0  0  0  0
 34 35  1  0  0  0  0
 35 36  2  0  0  0  0
 36 37  1  0  0  0  0
 37 38  2  0  0  0  0
 38 39  1  0  0  0  0
 39 40  2  0  0  0  0
 40 41  1  0  0  0  0
 41 42  1  0  0  0  0
 42 43  1  0  0  0  0
 40 44  1  0  0  0  0
 44 45  1  0  0  0  0
 44 46  2  0  0  0  0
 36 47  1  0  0  0  0
 47 48  2  0  0  0  0
 48 49  1  0  0  0  0
 49 50  1  0  0  0  0
 50 51  2  0  0  0  0
 51 52  1  0  0  0  0
 52 53  2  0  0  0  0
 53 54  1  0  0  0  0
 54 55  1  0  0  0  0
 55 56  1  0  0  0  0
 53 57  1  0  0  0  0
 57 58  2  0  0  0  0
 57 59  1  0  0  0  0
 49 60  2  0  0  0  0
 60 61  1  0  0  0  0
 48 62  1  0  0  0  0
 62 63  2  0  0  0  0
 63 64  1  0  0  0  0
 63 65  1  0  0  0  0
 65 66  2  0  0  0  0
 66 67  1  0  0  0  0
 67 68  2  0  0  0  0
 68 69  1  0  0  0  0
 69 70  2  0  0  0  0
 70 71  1  0  0  0  0
 71 72  2  0  0  0  0
 72 73  1  0  0  0  0
 73 74  1  0  0  0  0
 74 75  1  0  0  0  0
 72 76  1  0  0  0  0
 76 77  1  0  0  0  0
 76 78  2  0  0  0  0
 68 79  1  0  0  0  0
 79 80  2  0  0  0  0
 80 81  1  0  0  0  0
 81 82  1  0  0  0  0
 82 83  2  0  0  0  0
 83 84  1  0  0  0  0
 84 85  2  0  0  0  0
 85 86  1  0  0  0  0
 86 87  1  0  0  0  0
 87 88  1  0  0  0  0
 85 89  1  0  0  0  0
 89 90  2  0  0  0  0
 89 91  1  0  0  0  0
 81 92  2  0  0  0  0
 92 93  1  0  0  0  0
 80 94  1  0  0  0  0
 94 95  2  0  0  0  0
 95 96  1  0  0  0  0
 95 97  1  0  0  0  0
 97 98  1  0  0  0  0
 97 99  2  0  0  0  0
 99100  1  0  0  0  0
100101  2  0  0  0  0
101102  1  0  0  0  0
102103  1  0  0  0  0
101104  1  0  0  0  0
104105  1  0  0  0  0
105106  1  0  0  0  0
104107  2  0  0  0  0
107108  1  0  0  0  0
108109  2  0  0  0  0
109110  1  0  0  0  0
110111  2  0  0  0  0
111112  1  0  0  0  0
112113  1  0  0  0  0
112114  2  0  0  0  0
114115  1  0  0  0  0
115116  2  0  0  0  0
116117  1  0  0  0  0
117118  1  0  0  0  0
116119  1  0  0  0  0
119120  1  0  0  0  0
120121  1  0  0  0  0
119122  2  0  0  0  0
122123  1  0  0  0  0
123124  2  0  0  0  0
124125  1  0  0  0  0
125126  2  0  0  0  0
126127  1  0  0  0  0
127128  2  0  0  0  0
128129  1  0  0  0  0
129130  2  0  0  0  0
130131  1  0  0  0  0
131132  2  0  0  0  0
132133  1  0  0  0  0
133134  2  0  0  0  0
134135  1  0  0  0  0
135136  1  0  0  0  0
136137  1  0  0  0  0
134138  1  0  0  0  0
138139  1  0  0  0  0
138140  2  0  0  0  0
130141  1  0  0  0  0
141142  2  0  0  0  0
142143  1  0  0  0  0
143144  1  0  0  0  0
144145  2  0  0  0  0
145146  1  0  0  0  0
146147  2  0  0  0  0
147148  1  0  0  0  0
148149  1  0  0  0  0
149150  1  0  0  0  0
147151  1  0  0  0  0
151152  2  0  0  0  0
151153  1  0  0  0  0
143154  2  0  0  0  0
154155  1  0  0  0  0
142156  1  0  0  0  0
156157  2  0  0  0  0
157158  1  0  0  0  0
 29  1  1  0  0  0  0
 61 33  1  0  0  0  0
 93 65  1  0  0  0  0
109 98  1  0  0  0  0
124113  1  0  0  0  0
155127  1  0  0  0  0
 28  3  1  0  0  0  0
 60 35  1  0  0  0  0
 92 67  1  0  0  0  0
108 99  1  0  0  0  0
123114  1  0  0  0  0
154129  1  0  0  0  0
 14  5  1  0  0  0  0
 32 15  1  0  0  0  0
 46 37  1  0  0  0  0
 64 47  1  0  0  0  0
 78 69  1  0  0  0  0
 96 79  1  0  0  0  0
140131  1  0  0  0  0
158141  1  0  0  0  0
 26 18  1  0  0  0  0
 58 50  1  0  0  0  0
 90 82  1  0  0  0  0
152144  1  0  0  0  0
  1159  1  0  0  0  0
  2160  1  0  0  0  0
  6161  1  0  0  0  0
  7162  1  0  0  0  0
 10163  1  0  0  0  0
 10164  1  0  0  0  0
 11165  1  0  0  0  0
 11166  1  0  0  0  0
 11167  1  0  0  0  0
 14168  1  0  0  0  0
 19169  1  0  0  0  0
 20170  1  0  0  0  0
 23171  1  0  0  0  0
 23172  1  0  0  0  0
 24173  1  0  0  0  0
 24174  1  0  0  0  0
 24175  1  0  0  0  0
 26176  1  0  0  0  0
 30177  1  0  0  0  0
 34178  1  0  0  0  0
 38179  1  0  0  0  0
 39180  1  0  0  0  0
 42181  1  0  0  0  0
 42182  1  0  0  0  0
 43183  1  0  0  0  0
 43184  1  0  0  0  0
 43185  1  0  0  0  0
 46186  1  0  0  0  0
 51187  1  0  0  0  0
 52188  1  0  0  0  0
 55189  1  0  0  0  0
 55190  1  0  0  0  0
 56191  1  0  0  0  0
 56192  1  0  0  0  0
 56193  1  0  0  0  0
 58194  1  0  0  0  0
 62195  1  0  0  0  0
 66196  1  0  0  0  0
 70197  1  0  0  0  0
 71198  1  0  0  0  0
 74199  1  0  0  0  0
 74200  1  0  0  0  0
 75201  1  0  0  0  0
 75202  1  0  0  0  0
 75203  1  0  0  0  0
 78204  1  0  0  0  0
 83205  1  0  0  0  0
 84206  1  0  0  0  0
 87207  1  0  0  0  0
 87208  1  0  0  0  0
 88209  1  0  0  0  0
 88210  1  0  0  0  0
 88211  1  0  0  0  0
 90212  1  0  0  0  0
 94213  1  0  0  0  0
100214  1  0  0  0  0
103215  1  0  0  0  0
103216  1  0  0  0  0
103217  1  0  0  0  0
106218  1  0  0  0  0
106219  1  0  0  0  0
106220  1  0  0  0  0
107221  1  0  0  0  0
110222  1  0  0  0  0
111223  1  0  0  0  0
115224  1  0  0  0  0
118225  1  0  0  0  0
118226  1  0  0  0  0
118227  1  0  0  0  0
121228  1  0  0  0  0
121229  1  0  0  0  0
121230  1  0  0  0  0
122231  1  0  0  0  0
125232  1  0  0  0  0
126233  1  0  0  0  0
128234  1  0  0  0  0
132235  1  0  0  0  0
133236  1  0  0  0  0
136237  1  0  0  0  0
136238  1  0  0  0  0
137239  1  0  0  0  0
137240  1  0  0  0  0
137241  1  0  0  0  0
140242  1  0  0  0  0
145243  1  0  0  0  0
146244  1  0  0  0  0
149245  1  0  0  0  0
149246  1  0  0  0  0
150247  1  0  0  0  0
150248  1  0  0  0  0
150249  1  0  0  0  0
152250  1  0  0  0  0
156251  1  0  0  0  0
157252  1  0  0  0  0
M  END
