
  xtb     03042219563D
 energy: -158.018527698922 gnorm: 0.000460389584 xtb: 6.4.1 (unknown)
 84 91  0     0  0            999 V2000
   -0.6184   -5.0429    0.5302 C   0  0  0  0  0  0  0  0  0  0  0  0
   -1.6602   -4.4148   -0.0255 O   0  0  0  0  0  0  0  0  0  0  0  0
   -1.4008   -3.0826    0.0039 C   0  0  0  0  0  0  0  0  0  0  0  0
   -0.1729   -2.8547    0.5714 C   0  0  0  0  0  0  0  0  0  0  0  0
    0.3361   -4.1366    0.9198 C   0  0  0  0  0  0  0  0  0  0  0  0
    1.5780   -4.3890    1.5221 C   0  0  0  0  0  0  0  0  0  0  0  0
    2.6019   -4.5491    2.0119 N   0  0  0  0  0  0  0  0  0  0  0  0
   -2.2752   -2.1458   -0.6281 C   0  0  0  0  0  0  0  0  0  0  0  0
   -3.0431   -2.5763   -2.1251 S   0  0  0  0  0  0  0  0  0  0  0  0
   -2.4264   -0.7915   -0.3546 C   0  0  0  0  0  0  0  0  0  0  0  0
   -2.0165   -0.0693    0.7900 C   0  0  0  0  0  0  0  0  0  0  0  0
   -2.2843    1.2674    0.8790 C   0  0  0  0  0  0  0  0  0  0  0  0
   -1.9745    2.0690    1.9218 O   0  0  0  0  0  0  0  0  0  0  0  0
   -1.3258    1.5018    3.0331 C   0  0  0  0  0  0  0  0  0  0  0  0
   -2.9943    1.9519   -0.1776 C   0  0  0  0  0  0  0  0  0  0  0  0
   -3.2130    3.2642    0.0673 O   0  0  0  0  0  0  0  0  0  0  0  0
   -3.9390    4.0096   -0.8797 C   0  0  0  0  0  0  0  0  0  0  0  0
   -3.3947    1.2719   -1.2892 C   0  0  0  0  0  0  0  0  0  0  0  0
   -3.0953   -0.1050   -1.4129 C   0  0  0  0  0  0  0  0  0  0  0  0
   -3.3955   -0.9221   -2.4944 C   0  0  0  0  0  0  0  0  0  0  0  0
   -3.6167   -0.4709   -3.8485 C   0  0  0  0  0  0  0  0  0  0  0  0
   -2.7961    0.4558   -4.3763 C   0  0  0  0  0  0  0  0  0  0  0  0
   -1.6153    0.9285   -3.6799 C   0  0  0  0  0  0  0  0  0  0  0  0
   -1.3889    2.6005   -3.3384 S   0  0  0  0  0  0  0  0  0  0  0  0
   -0.6010    0.1775   -3.0854 C   0  0  0  0  0  0  0  0  0  0  0  0
   -0.3659   -1.2046   -3.2467 C   0  0  0  0  0  0  0  0  0  0  0  0
    0.6695   -1.8267   -2.6004 C   0  0  0  0  0  0  0  0  0  0  0  0
    0.9136   -3.1682   -2.6773 O   0  0  0  0  0  0  0  0  0  0  0  0
    0.1340   -3.9544   -3.5467 C   0  0  0  0  0  0  0  0  0  0  0  0
    1.5803   -1.0457   -1.8120 C   0  0  0  0  0  0  0  0  0  0  0  0
    2.6431   -1.5134   -1.1081 O   0  0  0  0  0  0  0  0  0  0  0  0
    3.2134   -2.7830   -1.3462 C   0  0  0  0  0  0  0  0  0  0  0  0
    1.4037    0.3153   -1.7217 C   0  0  0  0  0  0  0  0  0  0  0  0
    0.2993    0.9575   -2.2958 C   0  0  0  0  0  0  0  0  0  0  0  0
   -0.0322    2.3185   -2.2738 C   0  0  0  0  0  0  0  0  0  0  0  0
    0.5007    3.4718   -1.6556 C   0  0  0  0  0  0  0  0  0  0  0  0
    1.3866    3.6914   -0.6465 C   0  0  0  0  0  0  0  0  0  0  0  0
    2.0501    2.8681    0.3064 C   0  0  0  0  0  0  0  0  0  0  0  0
    1.6150    1.6981    0.8159 O   0  0  0  0  0  0  0  0  0  0  0  0
    2.5543    1.2535    1.6990 C   0  0  0  0  0  0  0  0  0  0  0  0
    3.6016    2.1476    1.7762 C   0  0  0  0  0  0  0  0  0  0  0  0
    3.2752    3.2004    0.9037 C   0  0  0  0  0  0  0  0  0  0  0  0
    4.0242    4.3556    0.6476 C   0  0  0  0  0  0  0  0  0  0  0  0
    4.6264    5.3098    0.4402 N   0  0  0  0  0  0  0  0  0  0  0  0
    2.3975    0.0439    2.4368 C   0  0  0  0  0  0  0  0  0  0  0  0
    1.2073   -0.5742    2.5524 O   0  0  0  0  0  0  0  0  0  0  0  0
    1.3743   -1.6452    3.3770 C   0  0  0  0  0  0  0  0  0  0  0  0
    2.6832   -1.7350    3.7838 C   0  0  0  0  0  0  0  0  0  0  0  0
    3.3529   -0.6446    3.1847 C   0  0  0  0  0  0  0  0  0  0  0  0
    4.7135   -0.3364    3.3166 C   0  0  0  0  0  0  0  0  0  0  0  0
    5.8271   -0.0922    3.4407 N   0  0  0  0  0  0  0  0  0  0  0  0
    0.2521   -2.4671    3.6992 C   0  0  0  0  0  0  0  0  0  0  0  0
   -0.9780   -2.1498    3.2485 O   0  0  0  0  0  0  0  0  0  0  0  0
   -1.8288   -3.1018    3.6753 C   0  0  0  0  0  0  0  0  0  0  0  0
   -1.1800   -4.0407    4.4100 C   0  0  0  0  0  0  0  0  0  0  0  0
    0.1857   -3.6385    4.4402 C   0  0  0  0  0  0  0  0  0  0  0  0
    1.2289   -4.2933    5.1075 C   0  0  0  0  0  0  0  0  0  0  0  0
    2.0502   -4.8423    5.6892 N   0  0  0  0  0  0  0  0  0  0  0  0
   -0.6500   -6.1121    0.5980 H   0  0  0  0  0  0  0  0  0  0  0  0
    0.3148   -1.9098    0.6816 H   0  0  0  0  0  0  0  0  0  0  0  0
   -1.5203   -0.5958    1.5855 H   0  0  0  0  0  0  0  0  0  0  0  0
   -1.9400    0.7264    3.5029 H   0  0  0  0  0  0  0  0  0  0  0  0
   -0.3619    1.0746    2.7503 H   0  0  0  0  0  0  0  0  0  0  0  0
   -1.1740    2.3194    3.7360 H   0  0  0  0  0  0  0  0  0  0  0  0
   -3.9909    5.0205   -0.4794 H   0  0  0  0  0  0  0  0  0  0  0  0
   -4.9528    3.6157   -1.0058 H   0  0  0  0  0  0  0  0  0  0  0  0
   -3.4336    4.0272   -1.8504 H   0  0  0  0  0  0  0  0  0  0  0  0
   -3.9505    1.7484   -2.0800 H   0  0  0  0  0  0  0  0  0  0  0  0
   -4.4180   -0.9033   -4.4307 H   0  0  0  0  0  0  0  0  0  0  0  0
   -3.0144    0.8959   -5.3400 H   0  0  0  0  0  0  0  0  0  0  0  0
   -1.0205   -1.7550   -3.9019 H   0  0  0  0  0  0  0  0  0  0  0  0
    0.5479   -4.9592   -3.4752 H   0  0  0  0  0  0  0  0  0  0  0  0
    0.2105   -3.6032   -4.5801 H   0  0  0  0  0  0  0  0  0  0  0  0
   -0.9170   -3.9723   -3.2441 H   0  0  0  0  0  0  0  0  0  0  0  0
    3.4796   -2.9113   -2.3975 H   0  0  0  0  0  0  0  0  0  0  0  0
    2.5525   -3.5942   -1.0371 H   0  0  0  0  0  0  0  0  0  0  0  0
    4.1156   -2.8042   -0.7354 H   0  0  0  0  0  0  0  0  0  0  0  0
    2.1669    0.8777   -1.2188 H   0  0  0  0  0  0  0  0  0  0  0  0
    0.1300    4.3834   -2.1135 H   0  0  0  0  0  0  0  0  0  0  0  0
    1.7078    4.7221   -0.5416 H   0  0  0  0  0  0  0  0  0  0  0  0
    4.4777    2.0630    2.3851 H   0  0  0  0  0  0  0  0  0  0  0  0
    3.1116   -2.4836    4.4172 H   0  0  0  0  0  0  0  0  0  0  0  0
   -2.8571   -2.9968    3.3918 H   0  0  0  0  0  0  0  0  0  0  0  0
   -1.5945   -4.9090    4.8787 H   0  0  0  0  0  0  0  0  0  0  0  0
  1  2  1  0  0  0  0
  2  3  1  0  0  0  0
  3  4  2  0  0  0  0
  4  5  1  0  0  0  0
  5  6  1  0  0  0  0
  6  7  3  0  0  0  0
  3  8  1  0  0  0  0
  8  9  1  0  0  0  0
  8 10  2  0  0  0  0
 10 11  1  0  0  0  0
 11 12  2  0  0  0  0
 12 13  1  0  0  0  0
 13 14  1  0  0  0  0
 12 15  1  0  0  0  0
 15 16  1  0  0  0  0
 16 17  1  0  0  0  0
 15 18  2  0  0  0  0
 18 19  1  0  0  0  0
 19 20  2  0  0  0  0
 20 21  1  0  0  0  0
 21 22  2  0  0  0  0
 22 23  1  0  0  0  0
 23 24  1  0  0  0  0
 23 25  2  0  0  0  0
 25 26  1  0  0  0  0
 26 27  2  0  0  0  0
 27 28  1  0  0  0  0
 28 29  1  0  0  0  0
 27 30  1  0  0  0  0
 30 31  1  0  0  0  0
 31 32  1  0  0  0  0
 30 33  2  0  0  0  0
 33 34  1  0  0  0  0
 34 35  2  0  0  0  0
 35 36  1  0  0  0  0
 36 37  2  0  0  0  0
 37 38  1  0  0  0  0
 38 39  1  0  0  0  0
 39 40  1  0  0  0  0
 40 41  2  0  0  0  0
 41 42  1  0  0  0  0
 42 43  1  0  0  0  0
 43 44  3  0  0  0  0
 40 45  1  0  0  0  0
 45 46  1  0  0  0  0
 46 47  1  0  0  0  0
 47 48  2  0  0  0  0
 48 49  1  0  0  0  0
 49 50  1  0  0  0  0
 50 51  3  0  0  0  0
 47 52  1  0  0  0  0
 52 53  1  0  0  0  0
 53 54  1  0  0  0  0
 54 55  2  0  0  0  0
 55 56  1  0  0  0  0
 56 57  1  0  0  0  0
 57 58  3  0  0  0  0
  5  1  2  0  0  0  0
 20  9  1  0  0  0  0
 35 24  1  0  0  0  0
 42 38  2  0  0  0  0
 49 45  2  0  0  0  0
 56 52  2  0  0  0  0
 19 10  1  0  0  0  0
 34 25  1  0  0  0  0
  1 59  1  0  0  0  0
  4 60  1  0  0  0  0
 11 61  1  0  0  0  0
 14 62  1  0  0  0  0
 14 63  1  0  0  0  0
 14 64  1  0  0  0  0
 17 65  1  0  0  0  0
 17 66  1  0  0  0  0
 17 67  1  0  0  0  0
 18 68  1  0  0  0  0
 21 69  1  0  0  0  0
 22 70  1  0  0  0  0
 26 71  1  0  0  0  0
 29 72  1  0  0  0  0
 29 73  1  0  0  0  0
 29 74  1  0  0  0  0
 32 75  1  0  0  0  0
 32 76  1  0  0  0  0
 32 77  1  0  0  0  0
 33 78  1  0  0  0  0
 36 79  1  0  0  0  0
 37 80  1  0  0  0  0
 41 81  1  0  0  0  0
 48 82  1  0  0  0  0
 54 83  1  0  0  0  0
 55 84  1  0  0  0  0
M  END
