252

C         -9.39600        6.15700       10.55040
C         -9.67550        6.34110        9.24480
C         -8.87950        5.52490        8.38660
C         -8.89940        5.45800        6.98670
C         -9.82950        6.26430        6.18570
C         -9.36650        7.06140        5.14400
C        -10.23290        7.82550        4.38580
C        -11.59980        7.81270        4.64020
S        -12.81250        8.73260        3.76050
C        -11.83220        9.65100        2.51510
C        -12.77660       10.50160        1.68670
C        -12.05100        7.00030        5.68350
F        -13.37210        6.95740        5.95270
C        -11.19790        6.24020        6.44970
C         -7.99710        4.58800        6.39340
C         -7.09940        3.77170        7.12610
C         -7.06560        3.85500        8.52700
C         -6.12490        3.07540        9.34200
C         -6.00450        1.69500        9.21650
C         -5.14000        0.97530       10.02160
C         -4.35820        1.61400       10.97690
S         -3.26070        0.83680       12.11570
C         -3.01640       -0.84350       11.44760
C         -2.16310       -0.84300       10.19360
C         -4.48180        3.00080       11.08390
C         -5.34070        3.72700       10.29330
F         -3.73150        3.65320       11.99280
C         -7.96020        4.73720        9.11990
S         -8.14410        4.99770       10.83640
C         -6.30230        2.96670        6.26900
C         -6.57980        3.13990        4.94610
S         -7.84100        4.32450        4.67840
C         -5.97140        2.49550        3.82220
C         -5.30930        1.30460        3.79170
C         -4.82290        0.95610        2.50460
C         -4.10620       -0.19370        2.12720
C         -3.72290       -1.22140        3.10280
C         -3.08530       -0.88370        4.29460
C         -2.72700       -1.85370        5.20940
C         -3.00260       -3.19470        4.96930
S         -2.58430       -4.50740        6.07660
C         -2.81780       -3.73090        7.71540
C         -4.24380       -3.26520        7.93420
C         -3.61880       -3.52310        3.76310
F         -3.89270       -4.81230        3.49220
C         -3.97770       -2.56520        2.84000
C         -3.76630       -0.30410        0.78690
C         -4.07650        0.69400       -0.16880
C         -4.77790        1.85010        0.20770
C         -5.05380        2.89940       -0.78170
C         -6.33960        3.39440       -0.98610
C         -6.58600        4.31130       -1.98620
C         -5.56390        4.78510       -2.80660
S         -5.99790        5.94550       -4.06870
C         -4.94810        5.46880       -5.49390
C         -5.13130        4.01560       -5.88480
C         -4.27360        4.33580       -2.54340
C         -4.01640        3.39950       -1.56410
F         -3.21850        4.79970       -3.25090
C         -5.15940        1.93690        1.53630
S         -6.04300        3.25800        2.24760
C         -3.58350        0.36680       -1.45350
C         -2.88080       -0.80020       -1.49420
S         -2.84510       -1.60230        0.06480
C         -2.13160       -1.27110       -2.61160
C         -1.28910       -2.33950       -2.70820
C         -0.54220       -2.35870       -3.91350
C          0.45580       -3.26470       -4.30460
C          0.93450       -4.35910       -3.44940
C          0.97380       -5.66840       -3.92230
C          1.52600       -6.67180       -3.15670
C          2.06980       -6.40810       -1.90060
S          2.75680       -7.77160       -1.01470
C          4.21150       -7.03690       -0.16830
C          5.21700       -8.13460        0.11560
C          1.99740       -5.10050       -1.42960
F          2.47310       -4.77410       -0.20550
C          1.44560       -4.08610       -2.18590
C          1.09390       -3.01060       -5.50620
C          0.81490       -1.88400       -6.31990
C         -0.20430       -0.99210       -5.94640
C         -0.50350        0.20740       -6.73530
C         -0.57080        1.45760       -6.12670
C         -0.87860        2.59150       -6.85220
C         -1.12850        2.51540       -8.21820
S         -1.56480        3.87310       -9.24890
C         -1.74380        5.26010       -8.06510
C         -2.32490        6.45450       -8.79770
C         -1.02320        1.26010       -8.82120
C         -0.72030        0.12190       -8.10950
F         -1.22660        1.15300      -10.15320
C         -0.85450       -1.25870       -4.75100
S         -2.09630       -0.26450       -4.04870
C          1.78460       -1.70850       -7.33710
C          2.78440       -2.64150       -7.31040
S          2.49910       -3.86900       -6.08080
C          4.05080       -2.61390       -7.95200
S          5.36400       -3.40770       -7.14890
C          4.51980       -1.84590       -9.02090
C          3.76270       -1.11190       -9.95800
C          4.39340       -0.38940      -10.93250
O          3.77690        0.35600      -11.87910
C          2.37180        0.44070      -11.85670
C          5.83250       -0.38070      -11.01370
O          6.32490        0.37830      -12.02280
C          7.71880        0.44450      -12.19130
C          6.57960       -1.10380      -10.12600
C          5.94430       -1.86190       -9.11880
C          6.55850       -2.61860       -8.11400
C          7.95560       -2.79840       -7.89060
C          8.58920       -3.11230       -6.73800
C          8.07090       -3.18380       -5.39930
C          8.56370       -3.97490       -4.40160
C          7.88030       -3.85080       -3.16450
C          8.10460       -4.55750       -1.97050
C          9.22760       -5.49150       -1.82830
C          9.03940       -6.78420       -1.34180
C         10.10670       -7.64250       -1.20000
C         11.40720       -7.25010       -1.52060
S         12.68150       -8.43540       -1.23320
C         14.00930       -7.99660       -2.42530
C         14.91120       -9.20130       -2.60880
C         11.58190       -5.95040       -1.98640
F         12.81340       -5.47240       -2.28510
C         10.51780       -5.08770       -2.15450
C          7.22070       -4.32010       -0.92920
C          6.14790       -3.39880       -1.01550
C          5.95100       -2.65930       -2.19590
C          4.83870       -1.70750       -2.29820
C          3.94140       -1.76070       -3.36310
C          2.83630       -0.93760       -3.38980
C          2.58400       -0.02970       -2.36550
S          1.07420        0.89000       -2.43210
C          0.50810        0.88590       -0.68750
C          0.50220       -0.50080       -0.07850
C          3.53790        0.08100       -1.35960
C          4.63650       -0.75180       -1.30620
F          3.40820        1.01010       -0.38160
C          6.82210       -2.91240       -3.24360
S          6.78110       -2.14600       -4.80810
C          5.35280       -3.39510        0.15780
C          5.80040       -4.23780        1.13530
S          7.26160       -5.08380        0.63920
C          5.20580       -4.55170        2.38980
S          5.53300       -6.09070        3.11550
C          4.28830       -3.83530        3.16040
C          3.84610       -2.50670        2.96880
C          2.92250       -1.96240        3.81500
O          2.45090       -0.69240        3.75990
C          3.01000        0.18480        2.81330
C          2.35560       -2.75490        4.87650
O          1.39320       -2.11640        5.59230
C          0.81880       -2.79310        6.68060
C          2.81020       -4.01870        5.11190
C          3.82760       -4.57150        4.29800
C          4.43700       -5.81800        4.42570
C          4.32380       -6.85130        5.41710
C          3.92830       -6.71400        6.68200
H         -9.84600        6.64070       11.39530
H        -10.41110        7.03650        8.88390
H         -8.30890        7.10330        4.93280
H         -9.83050        8.43420        3.59320
H        -11.31410        8.92340        1.89040
H        -11.11250       10.27420        3.04630
H        -13.30950       11.20650        2.32060
H        -12.21380       11.05840        0.94050
H        -13.50660        9.87580        1.17890
H        -11.60440        5.61670        7.23060
H         -6.62080        1.16910        8.50260
H         -5.09490       -0.09620        9.90760
H         -2.50820       -1.36550       12.25840
H         -3.98940       -1.30870       11.29360
H         -2.67380       -0.34080        9.37430
H         -1.94140       -1.86730        9.89980
H         -1.22530       -0.32540       10.38190
H         -5.38210        4.79770       10.41300
H         -5.53100        2.30870        6.62550
H         -5.20000        0.67530        4.65590
H         -2.83910        0.14840        4.49380
H         -2.21820       -1.56060        6.11390
H         -2.10020       -2.91880        7.82230
H         -2.55460       -4.52590        8.41280
H         -4.50130       -2.46830        7.23880
H         -4.36000       -2.89370        8.95050
H         -4.93650       -4.09010        7.78530
H         -4.47750       -2.87380        1.93560
H         -7.15630        3.02910       -0.38320
H         -7.58800        4.67060       -2.16120
H         -3.91170        5.70460       -5.26030
H         -5.29380        6.13450       -6.28500
H         -6.18510        3.79230       -6.03650
H         -4.59860        3.80970       -6.81150
H         -4.74380        3.35030       -5.11540
H         -2.99620        3.08680       -1.40370
H         -3.73190        0.97790       -2.32510
H         -1.19140       -3.08380       -1.93680
H          0.57050       -5.89580       -4.89720
H          1.56010       -7.68550       -3.52380
H          3.87000       -6.56690        0.75230
H          4.62330       -6.28230       -0.83780
H          4.77260       -8.90180        0.74510
H          6.07830       -7.71850        0.63420
H          5.54800       -8.59800       -0.81150
H          1.44030       -3.08200       -1.79090
H         -0.35370        1.55220       -5.07400
H         -0.91590        3.53850       -6.34040
H         -0.75760        5.49080       -7.66160
H         -2.40950        4.93400       -7.26660
H         -3.29790        6.20760       -9.21650
H         -2.44140        7.28870       -8.10910
H         -1.66940        6.76080       -9.60950
H         -0.68050       -0.82690       -8.62200
H          1.79910       -0.84490       -7.97460
H          2.68870       -1.15390       -9.90710
H          1.90620       -0.53690      -12.01580
H          2.10300        1.10400      -12.67640
H          2.00900        0.86600      -10.91570
H          8.14480       -0.54110      -12.40690
H          8.21060        0.86710      -11.30880
H          7.88090        1.10140      -13.04400
H          7.65550       -1.11200      -10.18010
H          8.57300       -2.68110       -8.77330
H          9.64850       -3.33170       -6.80160
H          9.36050       -4.67930       -4.56270
H          8.04570       -7.12570       -1.09820
H          9.95480       -8.64530       -0.83240
H         14.56410       -7.14790       -2.02880
H         13.52650       -7.71940       -3.36120
H         14.34490      -10.04920       -2.98770
H         15.70230       -8.96300       -3.31650
H         15.36440       -9.48550       -1.66180
H         10.71390       -4.08610       -2.50540
H          4.08690       -2.48390       -4.14990
H          2.12970       -0.99390       -4.20100
H          1.12580        1.57870       -0.11850
H         -0.50460        1.28440       -0.75470
H          0.07820       -0.46110        0.92300
H         -0.09290       -1.18100       -0.68290
H          1.51020       -0.90530       -0.00620
H          5.34320       -0.63260       -0.49900
H          4.43090       -2.85140        0.23570
H          4.27420       -1.92860        2.16870
H          4.08640        0.30950        2.96780
H          2.51170        1.14080        2.96210
H          2.82980       -0.15880        1.79260
H          1.57520       -3.10130        7.41010
H          0.15030       -2.07200        7.14910
H          0.24900       -3.67030        6.35520
H          2.38880       -4.62540        5.89350
H          4.64680       -7.82770        5.07530
H          3.88860       -7.56350        7.34110
H          3.66340       -5.76440        7.11030
