
  xtb     03032212493D
 energy: -434.719240630540 gnorm: 0.000558313735 xtb: 6.4.1 (unknown)
252275  0     0  0            999 V2000
    5.1117    9.5425   -3.6702 C   0  0  0  0  0  0  0  0  0  0  0  0
    3.8646   10.0488   -3.6038 C   0  0  0  0  0  0  0  0  0  0  0  0
    2.9232    9.1424   -3.0290 C   0  0  0  0  0  0  0  0  0  0  0  0
    1.5568    9.3517   -2.7808 C   0  0  0  0  0  0  0  0  0  0  0  0
    0.8858   10.5944   -3.1834 C   0  0  0  0  0  0  0  0  0  0  0  0
    0.1111   11.3217   -2.2862 C   0  0  0  0  0  0  0  0  0  0  0  0
   -0.5312   12.4834   -2.6709 C   0  0  0  0  0  0  0  0  0  0  0  0
   -0.4197   12.9608   -3.9712 C   0  0  0  0  0  0  0  0  0  0  0  0
   -1.1965   14.4083   -4.6102 S   0  0  0  0  0  0  0  0  0  0  0  0
   -1.8137   15.2821   -3.1310 C   0  0  0  0  0  0  0  0  0  0  0  0
   -0.6940   15.9074   -2.3207 C   0  0  0  0  0  0  0  0  0  0  0  0
    0.3515   12.2144   -4.8642 C   0  0  0  0  0  0  0  0  0  0  0  0
    0.4704   12.6398   -6.1392 F   0  0  0  0  0  0  0  0  0  0  0  0
    0.9962   11.0567   -4.4937 C   0  0  0  0  0  0  0  0  0  0  0  0
    0.8711    8.3183   -2.1611 C   0  0  0  0  0  0  0  0  0  0  0  0
    1.4769    7.0790   -1.8409 C   0  0  0  0  0  0  0  0  0  0  0  0
    2.8475    6.8756   -2.0673 C   0  0  0  0  0  0  0  0  0  0  0  0
    3.4904    5.6381   -1.6057 C   0  0  0  0  0  0  0  0  0  0  0  0
    4.5841    5.7021   -0.7459 C   0  0  0  0  0  0  0  0  0  0  0  0
    5.1108    4.5610   -0.1728 C   0  0  0  0  0  0  0  0  0  0  0  0
    4.5740    3.3103   -0.4544 C   0  0  0  0  0  0  0  0  0  0  0  0
    5.0826    1.8026    0.3130 S   0  0  0  0  0  0  0  0  0  0  0  0
    6.7987    2.1469    0.8292 C   0  0  0  0  0  0  0  0  0  0  0  0
    7.7185    2.3760   -0.3519 C   0  0  0  0  0  0  0  0  0  0  0  0
    3.5135    3.2542   -1.3598 C   0  0  0  0  0  0  0  0  0  0  0  0
    2.9708    4.3857   -1.9281 C   0  0  0  0  0  0  0  0  0  0  0  0
    2.9930    2.0549   -1.6825 F   0  0  0  0  0  0  0  0  0  0  0  0
    3.5408    7.9279   -2.6455 C   0  0  0  0  0  0  0  0  0  0  0  0
    5.2428    7.9364   -3.0349 S   0  0  0  0  0  0  0  0  0  0  0  0
    0.5595    6.1830   -1.2442 C   0  0  0  0  0  0  0  0  0  0  0  0
   -0.6966    6.6888   -1.0875 C   0  0  0  0  0  0  0  0  0  0  0  0
   -0.8149    8.3327   -1.6915 S   0  0  0  0  0  0  0  0  0  0  0  0
   -1.7638    5.9617   -0.4832 C   0  0  0  0  0  0  0  0  0  0  0  0
   -1.7423    4.2397   -0.6764 S   0  0  0  0  0  0  0  0  0  0  0  0
   -2.7471    6.3484    0.4221 C   0  0  0  0  0  0  0  0  0  0  0  0
   -3.0993    7.6562    0.8215 C   0  0  0  0  0  0  0  0  0  0  0  0
   -4.0699    7.8389    1.7649 C   0  0  0  0  0  0  0  0  0  0  0  0
   -4.5026    9.0433    2.2205 O   0  0  0  0  0  0  0  0  0  0  0  0
   -3.9293   10.2026    1.6726 C   0  0  0  0  0  0  0  0  0  0  0  0
   -4.7342    6.7079    2.3670 C   0  0  0  0  0  0  0  0  0  0  0  0
   -5.6722    7.0390    3.2902 O   0  0  0  0  0  0  0  0  0  0  0  0
   -6.3790    5.9924    3.9083 C   0  0  0  0  0  0  0  0  0  0  0  0
   -4.4029    5.4366    1.9976 C   0  0  0  0  0  0  0  0  0  0  0  0
   -3.4018    5.2276    1.0217 C   0  0  0  0  0  0  0  0  0  0  0  0
   -2.9634    4.0093    0.5236 C   0  0  0  0  0  0  0  0  0  0  0  0
   -3.2185    2.6633    0.9714 C   0  0  0  0  0  0  0  0  0  0  0  0
   -3.5326    1.6435    0.1509 C   0  0  0  0  0  0  0  0  0  0  0  0
   -4.0591    1.7551   -1.1704 C   0  0  0  0  0  0  0  0  0  0  0  0
   -4.9363    3.1607   -1.6983 S   0  0  0  0  0  0  0  0  0  0  0  0
   -4.1842    0.7315   -2.1036 C   0  0  0  0  0  0  0  0  0  0  0  0
   -3.5540   -0.5324   -2.0780 C   0  0  0  0  0  0  0  0  0  0  0  0
   -3.7542   -1.4135   -3.0991 C   0  0  0  0  0  0  0  0  0  0  0  0
   -3.1763   -2.6412   -3.2020 O   0  0  0  0  0  0  0  0  0  0  0  0
   -2.1651   -2.9781   -2.2854 C   0  0  0  0  0  0  0  0  0  0  0  0
   -4.6231   -1.0734   -4.2003 C   0  0  0  0  0  0  0  0  0  0  0  0
   -4.7256   -2.0441   -5.1488 O   0  0  0  0  0  0  0  0  0  0  0  0
   -5.5792   -1.8130   -6.2392 C   0  0  0  0  0  0  0  0  0  0  0  0
   -5.2418    0.1399   -4.2425 C   0  0  0  0  0  0  0  0  0  0  0  0
   -5.0403    1.0724   -3.1947 C   0  0  0  0  0  0  0  0  0  0  0  0
   -5.5722    2.3476   -3.0898 C   0  0  0  0  0  0  0  0  0  0  0  0
   -6.6741    2.9099   -3.8701 C   0  0  0  0  0  0  0  0  0  0  0  0
   -7.8936    2.3663   -3.8035 C   0  0  0  0  0  0  0  0  0  0  0  0
   -8.0840    1.2685   -2.8517 C   0  0  0  0  0  0  0  0  0  0  0  0
   -7.9380   -0.0622   -3.0484 C   0  0  0  0  0  0  0  0  0  0  0  0
   -7.5872   -0.7768   -1.8646 C   0  0  0  0  0  0  0  0  0  0  0  0
   -7.0519   -2.0751   -1.7840 C   0  0  0  0  0  0  0  0  0  0  0  0
   -7.2419   -3.0194   -2.8868 C   0  0  0  0  0  0  0  0  0  0  0  0
   -6.2446   -3.8790   -3.3381 C   0  0  0  0  0  0  0  0  0  0  0  0
   -6.4634   -4.7480   -4.3887 C   0  0  0  0  0  0  0  0  0  0  0  0
   -7.6903   -4.7930   -5.0380 C   0  0  0  0  0  0  0  0  0  0  0  0
   -8.1062   -5.8385   -6.3920 S   0  0  0  0  0  0  0  0  0  0  0  0
   -6.5841   -6.7916   -6.7239 C   0  0  0  0  0  0  0  0  0  0  0  0
   -5.5466   -5.9964   -7.4948 C   0  0  0  0  0  0  0  0  0  0  0  0
   -8.6886   -3.9349   -4.5708 C   0  0  0  0  0  0  0  0  0  0  0  0
   -9.9007   -3.9529   -5.1679 F   0  0  0  0  0  0  0  0  0  0  0  0
   -8.4857   -3.0680   -3.5236 C   0  0  0  0  0  0  0  0  0  0  0  0
   -6.3008   -2.3370   -0.6427 C   0  0  0  0  0  0  0  0  0  0  0  0
   -6.2144   -1.4497    0.4627 C   0  0  0  0  0  0  0  0  0  0  0  0
   -6.9694   -0.2669    0.4709 C   0  0  0  0  0  0  0  0  0  0  0  0
   -7.1501    0.6106    1.6343 C   0  0  0  0  0  0  0  0  0  0  0  0
   -8.4532    0.9647    1.9906 C   0  0  0  0  0  0  0  0  0  0  0  0
   -8.6969    1.7649    3.0846 C   0  0  0  0  0  0  0  0  0  0  0  0
   -7.6535    2.2688    3.8577 C   0  0  0  0  0  0  0  0  0  0  0  0
   -8.0770    3.3139    5.2242 S   0  0  0  0  0  0  0  0  0  0  0  0
   -6.9508    2.7539    6.5563 C   0  0  0  0  0  0  0  0  0  0  0  0
   -7.1273    1.2810    6.8661 C   0  0  0  0  0  0  0  0  0  0  0  0
   -6.3600    1.9513    3.4616 C   0  0  0  0  0  0  0  0  0  0  0  0
   -6.1017    1.1223    2.3879 C   0  0  0  0  0  0  0  0  0  0  0  0
   -5.2906    2.4577    4.1225 F   0  0  0  0  0  0  0  0  0  0  0  0
   -7.5587    0.0721   -0.7386 C   0  0  0  0  0  0  0  0  0  0  0  0
   -8.0672    1.6887   -1.1450 S   0  0  0  0  0  0  0  0  0  0  0  0
   -5.2205   -1.8553    1.3939 C   0  0  0  0  0  0  0  0  0  0  0  0
   -4.5626   -2.9861    1.0260 C   0  0  0  0  0  0  0  0  0  0  0  0
   -5.2495   -3.7093   -0.4167 S   0  0  0  0  0  0  0  0  0  0  0  0
   -3.2701   -3.4363    1.4685 C   0  0  0  0  0  0  0  0  0  0  0  0
   -2.2007   -2.6138    1.6603 C   0  0  0  0  0  0  0  0  0  0  0  0
   -0.9699   -3.3019    1.8176 C   0  0  0  0  0  0  0  0  0  0  0  0
    0.3181   -2.7467    1.9299 C   0  0  0  0  0  0  0  0  0  0  0  0
    0.5433   -1.3078    1.7491 C   0  0  0  0  0  0  0  0  0  0  0  0
    1.3554   -0.5678    2.6015 C   0  0  0  0  0  0  0  0  0  0  0  0
    1.5609    0.7847    2.4006 C   0  0  0  0  0  0  0  0  0  0  0  0
    0.9590    1.4479    1.3375 C   0  0  0  0  0  0  0  0  0  0  0  0
    1.0912    3.1631    0.9937 S   0  0  0  0  0  0  0  0  0  0  0  0
    2.1828    3.7982    2.3164 C   0  0  0  0  0  0  0  0  0  0  0  0
    2.2834    5.3049    2.1689 C   0  0  0  0  0  0  0  0  0  0  0  0
    0.1688    0.6887    0.4707 C   0  0  0  0  0  0  0  0  0  0  0  0
   -0.4122    1.2864   -0.5871 F   0  0  0  0  0  0  0  0  0  0  0  0
   -0.0400   -0.6563    0.6609 C   0  0  0  0  0  0  0  0  0  0  0  0
    1.3597   -3.6435    2.1187 C   0  0  0  0  0  0  0  0  0  0  0  0
    1.1639   -5.0461    2.1537 C   0  0  0  0  0  0  0  0  0  0  0  0
   -0.1166   -5.6019    1.9920 C   0  0  0  0  0  0  0  0  0  0  0  0
   -0.2838   -7.0595    1.9844 C   0  0  0  0  0  0  0  0  0  0  0  0
    0.2707   -7.8373    2.9990 C   0  0  0  0  0  0  0  0  0  0  0  0
    0.2169   -9.2155    2.9548 C   0  0  0  0  0  0  0  0  0  0  0  0
   -0.3881   -9.8692    1.8866 C   0  0  0  0  0  0  0  0  0  0  0  0
   -0.4632  -11.6189    1.6955 S   0  0  0  0  0  0  0  0  0  0  0  0
    0.9360  -12.2261    2.7041 C   0  0  0  0  0  0  0  0  0  0  0  0
    2.2817  -11.7927    2.1569 C   0  0  0  0  0  0  0  0  0  0  0  0
   -0.9917   -9.0775    0.9084 C   0  0  0  0  0  0  0  0  0  0  0  0
   -0.9494   -7.7011    0.9430 C   0  0  0  0  0  0  0  0  0  0  0  0
   -1.6155   -9.6747   -0.1265 F   0  0  0  0  0  0  0  0  0  0  0  0
   -1.1572   -4.7066    1.8077 C   0  0  0  0  0  0  0  0  0  0  0  0
   -2.8288   -5.1269    1.5304 S   0  0  0  0  0  0  0  0  0  0  0  0
    2.3900   -5.7451    2.2553 C   0  0  0  0  0  0  0  0  0  0  0  0
    3.4836   -4.9352    2.3151 C   0  0  0  0  0  0  0  0  0  0  0  0
    3.0555   -3.2374    2.2440 S   0  0  0  0  0  0  0  0  0  0  0  0
    4.8340   -5.3821    2.4176 C   0  0  0  0  0  0  0  0  0  0  0  0
    5.9904   -4.6653    2.4617 C   0  0  0  0  0  0  0  0  0  0  0  0
    7.1552   -5.4744    2.5596 C   0  0  0  0  0  0  0  0  0  0  0  0
    8.4985   -5.0714    2.6132 C   0  0  0  0  0  0  0  0  0  0  0  0
    8.8812   -3.6582    2.5136 C   0  0  0  0  0  0  0  0  0  0  0  0
    9.7338   -3.0794    3.4490 C   0  0  0  0  0  0  0  0  0  0  0  0
   10.1054   -1.7531    3.3512 C   0  0  0  0  0  0  0  0  0  0  0  0
    9.6536   -0.9636    2.3006 C   0  0  0  0  0  0  0  0  0  0  0  0
   10.0535    0.7410    2.0807 S   0  0  0  0  0  0  0  0  0  0  0  0
   11.6380    0.9292    2.9679 C   0  0  0  0  0  0  0  0  0  0  0  0
   12.7507    0.1212    2.3294 C   0  0  0  0  0  0  0  0  0  0  0  0
    8.7975   -1.5557    1.3717 C   0  0  0  0  0  0  0  0  0  0  0  0
    8.3408   -0.8208    0.3386 F   0  0  0  0  0  0  0  0  0  0  0  0
    8.4057   -2.8720    1.4663 C   0  0  0  0  0  0  0  0  0  0  0  0
    9.4477   -6.0764    2.7445 C   0  0  0  0  0  0  0  0  0  0  0  0
    9.1235   -7.4537    2.7877 C   0  0  0  0  0  0  0  0  0  0  0  0
    7.7844   -7.8588    2.7194 C   0  0  0  0  0  0  0  0  0  0  0  0
    7.3754   -9.2699    2.7189 C   0  0  0  0  0  0  0  0  0  0  0  0
    7.9028  -10.1754    1.8041 C   0  0  0  0  0  0  0  0  0  0  0  0
    7.4574  -11.4831    1.7546 C   0  0  0  0  0  0  0  0  0  0  0  0
    6.4652  -11.9306    2.6190 C   0  0  0  0  0  0  0  0  0  0  0  0
    5.8025  -13.5641    2.6652 S   0  0  0  0  0  0  0  0  0  0  0  0
    6.2868  -14.2891    1.0621 C   0  0  0  0  0  0  0  0  0  0  0  0
    5.5457  -13.6573   -0.1003 C   0  0  0  0  0  0  0  0  0  0  0  0
    5.9657  -11.0177    3.5490 C   0  0  0  0  0  0  0  0  0  0  0  0
    6.3985   -9.7135    3.6082 C   0  0  0  0  0  0  0  0  0  0  0  0
    5.0159  -11.4232    4.4177 F   0  0  0  0  0  0  0  0  0  0  0  0
    6.8352   -6.8525    2.6230 C   0  0  0  0  0  0  0  0  0  0  0  0
    5.1176   -7.1118    2.5093 S   0  0  0  0  0  0  0  0  0  0  0  0
   10.2888   -8.2670    2.9171 C   0  0  0  0  0  0  0  0  0  0  0  0
   11.4290   -7.5491    2.9438 C   0  0  0  0  0  0  0  0  0  0  0  0
   11.1759   -5.8404    2.8237 S   0  0  0  0  0  0  0  0  0  0  0  0
    5.9961   10.0131   -4.0531 H   0  0  0  0  0  0  0  0  0  0  0  0
    3.6066   11.0385   -3.9345 H   0  0  0  0  0  0  0  0  0  0  0  0
    0.0189   10.9830   -1.2657 H   0  0  0  0  0  0  0  0  0  0  0  0
   -1.1263   13.0113   -1.9437 H   0  0  0  0  0  0  0  0  0  0  0  0
   -2.4197   14.5922   -2.5452 H   0  0  0  0  0  0  0  0  0  0  0  0
   -2.4668   16.0505   -3.5448 H   0  0  0  0  0  0  0  0  0  0  0  0
   -0.1327   16.6064   -2.9361 H   0  0  0  0  0  0  0  0  0  0  0  0
   -1.1078   16.4464   -1.4703 H   0  0  0  0  0  0  0  0  0  0  0  0
   -0.0071   15.1489   -1.9516 H   0  0  0  0  0  0  0  0  0  0  0  0
    1.5615   10.5092   -5.2316 H   0  0  0  0  0  0  0  0  0  0  0  0
    5.0031    6.6627   -0.4869 H   0  0  0  0  0  0  0  0  0  0  0  0
    5.9314    4.6571    0.5199 H   0  0  0  0  0  0  0  0  0  0  0  0
    6.7977    2.9837    1.5271 H   0  0  0  0  0  0  0  0  0  0  0  0
    7.0878    1.2469    1.3693 H   0  0  0  0  0  0  0  0  0  0  0  0
    8.7336    2.5331    0.0058 H   0  0  0  0  0  0  0  0  0  0  0  0
    7.4081    3.2436   -0.9310 H   0  0  0  0  0  0  0  0  0  0  0  0
    7.7136    1.5023   -0.9980 H   0  0  0  0  0  0  0  0  0  0  0  0
    2.1507    4.2818   -2.6206 H   0  0  0  0  0  0  0  0  0  0  0  0
    0.8207    5.2014   -0.8953 H   0  0  0  0  0  0  0  0  0  0  0  0
   -2.5972    8.4886    0.3566 H   0  0  0  0  0  0  0  0  0  0  0  0
   -2.8535   10.2527    1.8732 H   0  0  0  0  0  0  0  0  0  0  0  0
   -4.4276   11.0375    2.1629 H   0  0  0  0  0  0  0  0  0  0  0  0
   -4.0964   10.2618    0.5918 H   0  0  0  0  0  0  0  0  0  0  0  0
   -6.9496    5.4076    3.1795 H   0  0  0  0  0  0  0  0  0  0  0  0
   -7.0678    6.4654    4.6055 H   0  0  0  0  0  0  0  0  0  0  0  0
   -5.7067    5.3265    4.4582 H   0  0  0  0  0  0  0  0  0  0  0  0
   -4.8861    4.5743    2.4240 H   0  0  0  0  0  0  0  0  0  0  0  0
   -3.0417    2.4766    2.0244 H   0  0  0  0  0  0  0  0  0  0  0  0
   -3.4879    0.6262    0.5232 H   0  0  0  0  0  0  0  0  0  0  0  0
   -2.8948   -0.7630   -1.2580 H   0  0  0  0  0  0  0  0  0  0  0  0
   -1.3455   -2.2526   -2.3134 H   0  0  0  0  0  0  0  0  0  0  0  0
   -1.7951   -3.9531   -2.5987 H   0  0  0  0  0  0  0  0  0  0  0  0
   -2.5514   -3.0532   -1.2634 H   0  0  0  0  0  0  0  0  0  0  0  0
   -5.5171   -2.7038   -6.8617 H   0  0  0  0  0  0  0  0  0  0  0  0
   -6.6162   -1.6752   -5.9150 H   0  0  0  0  0  0  0  0  0  0  0  0
   -5.2631   -0.9429   -6.8238 H   0  0  0  0  0  0  0  0  0  0  0  0
   -5.8662    0.4333   -5.0703 H   0  0  0  0  0  0  0  0  0  0  0  0
   -6.4814    3.7816   -4.4812 H   0  0  0  0  0  0  0  0  0  0  0  0
   -8.7242    2.7345   -4.3871 H   0  0  0  0  0  0  0  0  0  0  0  0
   -7.9415   -0.5134   -4.0234 H   0  0  0  0  0  0  0  0  0  0  0  0
   -5.2590   -3.8495   -2.9072 H   0  0  0  0  0  0  0  0  0  0  0  0
   -5.6527   -5.3851   -4.6984 H   0  0  0  0  0  0  0  0  0  0  0  0
   -6.2023   -7.1688   -5.7764 H   0  0  0  0  0  0  0  0  0  0  0  0
   -6.9383   -7.6351   -7.3169 H   0  0  0  0  0  0  0  0  0  0  0  0
   -5.1950   -5.1430   -6.9194 H   0  0  0  0  0  0  0  0  0  0  0  0
   -5.9708   -5.6327   -8.4281 H   0  0  0  0  0  0  0  0  0  0  0  0
   -4.6936   -6.6319   -7.7255 H   0  0  0  0  0  0  0  0  0  0  0  0
   -9.3040   -2.4464   -3.1943 H   0  0  0  0  0  0  0  0  0  0  0  0
   -9.2821    0.5841    1.4137 H   0  0  0  0  0  0  0  0  0  0  0  0
   -9.7078    2.0162    3.3648 H   0  0  0  0  0  0  0  0  0  0  0  0
   -5.9263    2.9917    6.2792 H   0  0  0  0  0  0  0  0  0  0  0  0
   -7.2414    3.3725    7.4051 H   0  0  0  0  0  0  0  0  0  0  0  0
   -8.1636    1.0658    7.1171 H   0  0  0  0  0  0  0  0  0  0  0  0
   -6.8452    0.6687    6.0113 H   0  0  0  0  0  0  0  0  0  0  0  0
   -6.4978    1.0051    7.7098 H   0  0  0  0  0  0  0  0  0  0  0  0
   -5.0761    0.9346    2.1211 H   0  0  0  0  0  0  0  0  0  0  0  0
   -4.9724   -1.3022    2.2806 H   0  0  0  0  0  0  0  0  0  0  0  0
   -2.2839   -1.5421    1.6625 H   0  0  0  0  0  0  0  0  0  0  0  0
    1.8201   -1.0484    3.4487 H   0  0  0  0  0  0  0  0  0  0  0  0
    2.1991    1.3202    3.0836 H   0  0  0  0  0  0  0  0  0  0  0  0
    3.1572    3.3225    2.2041 H   0  0  0  0  0  0  0  0  0  0  0  0
    1.7378    3.5326    3.2754 H   0  0  0  0  0  0  0  0  0  0  0  0
    2.7189    5.5667    1.2074 H   0  0  0  0  0  0  0  0  0  0  0  0
    1.2967    5.7585    2.2347 H   0  0  0  0  0  0  0  0  0  0  0  0
    2.9100    5.7130    2.9591 H   0  0  0  0  0  0  0  0  0  0  0  0
   -0.6302   -1.2026   -0.0579 H   0  0  0  0  0  0  0  0  0  0  0  0
    0.7404   -7.3541    3.8427 H   0  0  0  0  0  0  0  0  0  0  0  0
    0.6556   -9.7821    3.7602 H   0  0  0  0  0  0  0  0  0  0  0  0
    0.8278  -13.3094    2.6527 H   0  0  0  0  0  0  0  0  0  0  0  0
    0.7907  -11.9141    3.7371 H   0  0  0  0  0  0  0  0  0  0  0  0
    2.3885  -10.7101    2.1874 H   0  0  0  0  0  0  0  0  0  0  0  0
    3.0759  -12.2364    2.7531 H   0  0  0  0  0  0  0  0  0  0  0  0
    2.3913  -12.1191    1.1250 H   0  0  0  0  0  0  0  0  0  0  0  0
   -1.4027   -7.1422    0.1397 H   0  0  0  0  0  0  0  0  0  0  0  0
    2.4661   -6.8176    2.2555 H   0  0  0  0  0  0  0  0  0  0  0  0
    6.0065   -3.5904    2.4366 H   0  0  0  0  0  0  0  0  0  0  0  0
   10.0940   -3.6673    4.2791 H   0  0  0  0  0  0  0  0  0  0  0  0
   10.7486   -1.3345    4.1083 H   0  0  0  0  0  0  0  0  0  0  0  0
   11.4872    0.6741    4.0162 H   0  0  0  0  0  0  0  0  0  0  0  0
   11.8414    1.9978    2.8975 H   0  0  0  0  0  0  0  0  0  0  0  0
   12.5305   -0.9440    2.3660 H   0  0  0  0  0  0  0  0  0  0  0  0
   13.6861    0.3007    2.8556 H   0  0  0  0  0  0  0  0  0  0  0  0
   12.8755    0.4107    1.2885 H   0  0  0  0  0  0  0  0  0  0  0  0
    7.7588   -3.2837    0.7076 H   0  0  0  0  0  0  0  0  0  0  0  0
    8.6543   -9.8465    1.1020 H   0  0  0  0  0  0  0  0  0  0  0  0
    7.8909  -12.1524    1.0292 H   0  0  0  0  0  0  0  0  0  0  0  0
    7.3686  -14.2169    0.9576 H   0  0  0  0  0  0  0  0  0  0  0  0
    6.0195  -15.3405    1.1681 H   0  0  0  0  0  0  0  0  0  0  0  0
    5.7586  -12.5924   -0.1682 H   0  0  0  0  0  0  0  0  0  0  0  0
    5.8461  -14.1327   -1.0321 H   0  0  0  0  0  0  0  0  0  0  0  0
    4.4733  -13.7854    0.0251 H   0  0  0  0  0  0  0  0  0  0  0  0
    5.9788   -9.0545    4.3514 H   0  0  0  0  0  0  0  0  0  0  0  0
   10.2525   -9.3383    2.9971 H   0  0  0  0  0  0  0  0  0  0  0  0
   12.4349   -7.9097    3.0345 H   0  0  0  0  0  0  0  0  0  0  0  0
  1  2  2  0  0  0  0
  2  3  1  0  0  0  0
  3  4  2  0  0  0  0
  4  5  1  0  0  0  0
  5  6  2  0  0  0  0
  6  7  1  0  0  0  0
  7  8  2  0  0  0  0
  8  9  1  0  0  0  0
  9 10  1  0  0  0  0
 10 11  1  0  0  0  0
  8 12  1  0  0  0  0
 12 13  1  0  0  0  0
 12 14  2  0  0  0  0
  4 15  1  0  0  0  0
 15 16  2  0  0  0  0
 16 17  1  0  0  0  0
 17 18  1  0  0  0  0
 18 19  2  0  0  0  0
 19 20  1  0  0  0  0
 20 21  2  0  0  0  0
 21 22  1  0  0  0  0
 22 23  1  0  0  0  0
 23 24  1  0  0  0  0
 21 25  1  0  0  0  0
 25 26  2  0  0  0  0
 25 27  1  0  0  0  0
 17 28  2  0  0  0  0
 28 29  1  0  0  0  0
 16 30  1  0  0  0  0
 30 31  2  0  0  0  0
 31 32  1  0  0  0  0
 31 33  1  0  0  0  0
 33 34  1  0  0  0  0
 33 35  2  0  0  0  0
 35 36  1  0  0  0  0
 36 37  2  0  0  0  0
 37 38  1  0  0  0  0
 38 39  1  0  0  0  0
 37 40  1  0  0  0  0
 40 41  1  0  0  0  0
 41 42  1  0  0  0  0
 40 43  2  0  0  0  0
 43 44  1  0  0  0  0
 44 45  2  0  0  0  0
 45 46  1  0  0  0  0
 46 47  2  0  0  0  0
 47 48  1  0  0  0  0
 48 49  1  0  0  0  0
 48 50  2  0  0  0  0
 50 51  1  0  0  0  0
 51 52  2  0  0  0  0
 52 53  1  0  0  0  0
 53 54  1  0  0  0  0
 52 55  1  0  0  0  0
 55 56  1  0  0  0  0
 56 57  1  0  0  0  0
 55 58  2  0  0  0  0
 58 59  1  0  0  0  0
 59 60  2  0  0  0  0
 60 61  1  0  0  0  0
 61 62  2  0  0  0  0
 62 63  1  0  0  0  0
 63 64  2  0  0  0  0
 64 65  1  0  0  0  0
 65 66  2  0  0  0  0
 66 67  1  0  0  0  0
 67 68  2  0  0  0  0
 68 69  1  0  0  0  0
 69 70  2  0  0  0  0
 70 71  1  0  0  0  0
 71 72  1  0  0  0  0
 72 73  1  0  0  0  0
 70 74  1  0  0  0  0
 74 75  1  0  0  0  0
 74 76  2  0  0  0  0
 66 77  1  0  0  0  0
 77 78  2  0  0  0  0
 78 79  1  0  0  0  0
 79 80  1  0  0  0  0
 80 81  2  0  0  0  0
 81 82  1  0  0  0  0
 82 83  2  0  0  0  0
 83 84  1  0  0  0  0
 84 85  1  0  0  0  0
 85 86  1  0  0  0  0
 83 87  1  0  0  0  0
 87 88  2  0  0  0  0
 87 89  1  0  0  0  0
 79 90  2  0  0  0  0
 90 91  1  0  0  0  0
 78 92  1  0  0  0  0
 92 93  2  0  0  0  0
 93 94  1  0  0  0  0
 93 95  1  0  0  0  0
 95 96  2  0  0  0  0
 96 97  1  0  0  0  0
 97 98  2  0  0  0  0
 98 99  1  0  0  0  0
 99100  2  0  0  0  0
100101  1  0  0  0  0
101102  2  0  0  0  0
102103  1  0  0  0  0
103104  1  0  0  0  0
104105  1  0  0  0  0
102106  1  0  0  0  0
106107  1  0  0  0  0
106108  2  0  0  0  0
 98109  1  0  0  0  0
109110  2  0  0  0  0
110111  1  0  0  0  0
111112  1  0  0  0  0
112113  2  0  0  0  0
113114  1  0  0  0  0
114115  2  0  0  0  0
115116  1  0  0  0  0
116117  1  0  0  0  0
117118  1  0  0  0  0
115119  1  0  0  0  0
119120  2  0  0  0  0
119121  1  0  0  0  0
111122  2  0  0  0  0
122123  1  0  0  0  0
110124  1  0  0  0  0
124125  2  0  0  0  0
125126  1  0  0  0  0
125127  1  0  0  0  0
127128  2  0  0  0  0
128129  1  0  0  0  0
129130  2  0  0  0  0
130131  1  0  0  0  0
131132  2  0  0  0  0
132133  1  0  0  0  0
133134  2  0  0  0  0
134135  1  0  0  0  0
135136  1  0  0  0  0
136137  1  0  0  0  0
134138  1  0  0  0  0
138139  1  0  0  0  0
138140  2  0  0  0  0
130141  1  0  0  0  0
141142  2  0  0  0  0
142143  1  0  0  0  0
143144  1  0  0  0  0
144145  2  0  0  0  0
145146  1  0  0  0  0
146147  2  0  0  0  0
147148  1  0  0  0  0
148149  1  0  0  0  0
149150  1  0  0  0  0
147151  1  0  0  0  0
151152  2  0  0  0  0
151153  1  0  0  0  0
143154  2  0  0  0  0
154155  1  0  0  0  0
142156  1  0  0  0  0
156157  2  0  0  0  0
157158  1  0  0  0  0
 29  1  1  0  0  0  0
 45 34  1  0  0  0  0
 60 49  1  0  0  0  0
 91 63  1  0  0  0  0
123 95  1  0  0  0  0
155127  1  0  0  0  0
 28  3  1  0  0  0  0
 44 35  1  0  0  0  0
 59 50  1  0  0  0  0
 90 65  1  0  0  0  0
122 97  1  0  0  0  0
154129  1  0  0  0  0
 14  5  1  0  0  0  0
 32 15  1  0  0  0  0
 76 67  1  0  0  0  0
 94 77  1  0  0  0  0
108 99  1  0  0  0  0
126109  1  0  0  0  0
140131  1  0  0  0  0
158141  1  0  0  0  0
 26 18  1  0  0  0  0
 88 80  1  0  0  0  0
120112  1  0  0  0  0
152144  1  0  0  0  0
  1159  1  0  0  0  0
  2160  1  0  0  0  0
  6161  1  0  0  0  0
  7162  1  0  0  0  0
 10163  1  0  0  0  0
 10164  1  0  0  0  0
 11165  1  0  0  0  0
 11166  1  0  0  0  0
 11167  1  0  0  0  0
 14168  1  0  0  0  0
 19169  1  0  0  0  0
 20170  1  0  0  0  0
 23171  1  0  0  0  0
 23172  1  0  0  0  0
 24173  1  0  0  0  0
 24174  1  0  0  0  0
 24175  1  0  0  0  0
 26176  1  0  0  0  0
 30177  1  0  0  0  0
 36178  1  0  0  0  0
 39179  1  0  0  0  0
 39180  1  0  0  0  0
 39181  1  0  0  0  0
 42182  1  0  0  0  0
 42183  1  0  0  0  0
 42184  1  0  0  0  0
 43185  1  0  0  0  0
 46186  1  0  0  0  0
 47187  1  0  0  0  0
 51188  1  0  0  0  0
 54189  1  0  0  0  0
 54190  1  0  0  0  0
 54191  1  0  0  0  0
 57192  1  0  0  0  0
 57193  1  0  0  0  0
 57194  1  0  0  0  0
 58195  1  0  0  0  0
 61196  1  0  0  0  0
 62197  1  0  0  0  0
 64198  1  0  0  0  0
 68199  1  0  0  0  0
 69200  1  0  0  0  0
 72201  1  0  0  0  0
 72202  1  0  0  0  0
 73203  1  0  0  0  0
 73204  1  0  0  0  0
 73205  1  0  0  0  0
 76206  1  0  0  0  0
 81207  1  0  0  0  0
 82208  1  0  0  0  0
 85209  1  0  0  0  0
 85210  1  0  0  0  0
 86211  1  0  0  0  0
 86212  1  0  0  0  0
 86213  1  0  0  0  0
 88214  1  0  0  0  0
 92215  1  0  0  0  0
 96216  1  0  0  0  0
100217  1  0  0  0  0
101218  1  0  0  0  0
104219  1  0  0  0  0
104220  1  0  0  0  0
105221  1  0  0  0  0
105222  1  0  0  0  0
105223  1  0  0  0  0
108224  1  0  0  0  0
113225  1  0  0  0  0
114226  1  0  0  0  0
117227  1  0  0  0  0
117228  1  0  0  0  0
118229  1  0  0  0  0
118230  1  0  0  0  0
118231  1  0  0  0  0
120232  1  0  0  0  0
124233  1  0  0  0  0
128234  1  0  0  0  0
132235  1  0  0  0  0
133236  1  0  0  0  0
136237  1  0  0  0  0
136238  1  0  0  0  0
137239  1  0  0  0  0
137240  1  0  0  0  0
137241  1  0  0  0  0
140242  1  0  0  0  0
145243  1  0  0  0  0
146244  1  0  0  0  0
149245  1  0  0  0  0
149246  1  0  0  0  0
150247  1  0  0  0  0
150248  1  0  0  0  0
150249  1  0  0  0  0
152250  1  0  0  0  0
156251  1  0  0  0  0
157252  1  0  0  0  0
M  END
