227

C         -3.03560        4.73300       10.57170
C         -3.24630        4.08580        9.40810
C         -2.24810        3.10530        9.13100
C         -2.14850        2.25380        8.02330
C         -3.08750        2.27150        6.89280
C         -3.39350        3.44150        6.19920
C         -4.16810        3.39820        5.05950
C         -4.68510        2.19770        4.57150
S         -5.64950        2.26960        3.09570
C         -5.37220        0.62810        2.31870
C         -5.70830        0.71010        0.84340
C         -4.42520        1.04900        5.31180
F         -4.94360       -0.14970        4.95640
C         -3.63460        1.07570        6.44040
C         -1.07680        1.37270        8.01490
C         -0.09830        1.30360        9.03550
C         -0.20320        2.15670       10.14710
C          0.78280        2.12340       11.23340
C          0.38000        2.01380       12.56360
C          1.31090        1.96470       13.57770
C          2.67780        2.03830       13.31260
S          3.77200        2.00060       14.69710
C          5.26930        1.15210       14.05010
C          6.00060        0.50150       15.20760
C          3.06430        2.18170       11.98330
C          2.14340        2.20730       10.95590
F          4.36930        2.31190       11.65030
C         -1.28450        3.02850       10.16630
S         -1.62450        4.19650       11.41960
C          0.86950        0.30140        8.76900
C          0.67050       -0.36800        7.59220
S         -0.73790        0.23880        6.74120
C          1.46320       -1.40670        7.03170
S          3.07280       -1.67850        7.62270
C          1.17460       -2.28160        5.98150
C         -0.02380       -2.38960        5.24340
C         -0.12500       -3.27750        4.21170
O         -1.21450       -3.42900        3.42280
C         -2.35800       -2.65940        3.71470
C          0.96800       -4.16590        3.90930
O          0.73020       -5.01330        2.87690
C          1.75720       -5.88880        2.48690
C          2.11470       -4.11610        4.64720
C          2.26800       -3.14070        5.66180
C          3.40870       -2.88510        6.42070
C          4.73660       -3.41970        6.31500
C          5.40810       -3.70000        5.17740
C          4.97630       -3.40180        3.83950
C          5.27600       -4.08520        2.69600
C          4.58180       -3.61650        1.54790
C          4.57070       -4.14040        0.24230
C          5.37690       -5.30590       -0.14380
C          5.32590       -6.49720        0.57880
C          6.07430       -7.58720        0.19130
C          6.89450       -7.54390       -0.93580
S          7.77200       -9.01830       -1.34920
C          9.31820       -8.40980       -2.13550
C         10.39010       -9.47160       -1.98960
C          6.91010       -6.36000       -1.66630
F          7.64030       -6.25200       -2.80090
C          6.18180       -5.25460       -1.27700
C          3.72530       -3.52290       -0.66630
C          2.83850       -2.47060       -0.32700
C          2.85340       -1.94180        0.97320
C          1.89800       -0.94000        1.45510
C          0.52450       -1.10240        1.27670
C         -0.36380       -0.23550        1.87460
C          0.06550        0.81160        2.69170
S         -1.20110        1.72340        3.52340
C         -0.51850        3.39480        3.84120
C          0.04860        3.56040        5.23640
C          1.43830        0.98250        2.82610
C          2.34020        0.13670        2.21460
F          1.95800        1.98080        3.57280
C          3.76860       -2.49730        1.85470
S          3.94180       -2.02420        3.51700
C          2.04470       -2.07010       -1.42280
C          2.28430       -2.76670       -2.58040
S          3.52540       -3.98780       -2.33700
C          1.67480       -2.51860       -3.83370
S          0.52330       -1.22090       -3.93910
C          1.86700       -3.09790       -5.09470
C          2.69890       -4.19040       -5.41400
C          2.77160       -4.65270       -6.69910
O          3.54200       -5.68380       -7.11660
C          4.35900       -6.33320       -6.17160
C          1.97100       -4.04720       -7.72780
O          2.09120       -4.62990       -8.94770
C          1.34120       -4.10860      -10.01480
C          1.16820       -2.97840       -7.43640
C          1.11700       -2.45740       -6.12720
C          0.37110       -1.36010       -5.66590
C         -0.34610       -0.33130       -6.30540
C         -0.35200       -0.00140       -7.62860
C         -0.99960        1.13690       -8.14110
S         -1.84390        2.24650       -7.10500
C         -1.02420        1.59500       -9.46820
C         -0.45920        0.96540      -10.59510
C         -0.56840        1.54310      -11.83000
O         -0.07290        1.03400      -12.98600
C          0.62220       -0.18580      -12.93460
C         -1.25630        2.79660      -11.98140
O         -1.29100        3.26060      -13.25500
C         -1.94440        4.47960      -13.50640
C         -1.80720        3.41860      -10.89460
C         -1.70960        2.83280       -9.61490
C         -2.21820        3.33540       -8.40280
C         -3.01090        4.50070       -8.27240
C         -3.58440        5.09020       -7.19400
C         -3.46470        4.79720       -5.79880
C         -2.41520        4.35540       -5.04940
C         -2.70270        4.22380       -3.66590
C         -1.87090        3.72240       -2.65030
C         -0.47440        3.34540       -2.90230
C          0.03430        2.12690       -2.45790
C          1.36170        1.80120       -2.64760
C          2.22390        2.66640       -3.30830
S          3.94960        2.33410       -3.52540
C          3.95360        0.57220       -4.01330
C          3.38720        0.38710       -5.40690
C          1.70570        3.88270       -3.74750
F          2.50950        4.76180       -4.37780
C          0.38500        4.22800       -3.55280
C         -2.42970        3.62000       -1.38260
C         -3.75530        4.01700       -1.08560
C         -4.58810        4.51090       -2.09930
C         -5.98450        4.88010       -1.83580
C         -6.49360        6.11250       -2.23010
C         -7.81200        6.45110       -1.99190
C         -8.67040        5.56590       -1.35050
S        -10.37530        5.85170       -1.00760
C        -10.59820        7.64210       -1.28630
C         -9.93750        8.48030       -0.20830
C         -8.14850        4.32740       -0.97240
C         -6.83740        3.97960       -1.20060
F         -8.95540        3.43170       -0.36670
C         -4.03430        4.60560       -3.36630
S         -4.87390        5.13550       -4.79640
C         -4.05030        3.87880        0.30340
C         -3.01540        3.38740        1.01190
S         -1.60880        3.06130        0.05560
H         -3.63050        5.50900       11.01220
H         -4.08260        4.27510        8.75980
H         -2.98810        4.38520        6.53300
H         -4.38120        4.30340        4.51090
H         -6.00830       -0.09870        2.82060
H         -4.32340        0.37800        2.47430
H         -6.73840        1.03350        0.70760
H         -5.04610        1.41210        0.34110
H         -5.59000       -0.27070        0.38700
H         -3.47170        0.15260        6.97400
H         -0.66970        1.93700       12.80030
H          0.99550        1.86460       14.60450
H          5.89610        1.89040       13.55220
H          4.93190        0.40830       13.33000
H          6.30260        1.24990       15.93670
H          6.88970       -0.00720       14.84090
H          5.36050       -0.22430       15.70430
H          2.49830        2.33110        9.94440
H          1.67530        0.05840        9.43850
H         -0.85870       -1.76410        5.49950
H         -2.14450       -1.58710        3.67560
H         -3.08830       -2.91550        2.94930
H         -2.76580       -2.90740        4.69940
H          2.00680       -6.59800        3.28340
H          1.37170       -6.43370        1.62660
H          2.65780       -5.33850        2.19420
H          2.92950       -4.79730        4.46590
H          5.24770       -3.57820        7.25680
H          6.36990       -4.19090        5.25380
H          5.93560       -4.93490        2.68080
H          4.68020       -6.57570        1.44010
H          6.03390       -8.50580        0.75590
H          9.11180       -8.19900       -3.18380
H          9.60080       -7.49180       -1.62260
H         11.31280       -9.12700       -2.45150
H         10.08110      -10.39490       -2.47420
H         10.58060       -9.68090       -0.93930
H          6.25340       -4.35560       -1.86890
H          0.15180       -1.93520        0.70080
H         -1.42510       -0.36710        1.73130
H         -1.37330        4.05740        3.69900
H          0.21750        3.59680        3.06660
H         -0.71770        3.36690        5.98190
H          0.40720        4.58060        5.35900
H          0.87960        2.88340        5.40910
H          3.39280        0.33270        2.34780
H          1.31900       -1.27820       -1.36470
H          3.26620       -4.66170       -4.63140
H          3.76480       -6.80220       -5.38090
H          5.07860       -5.64320       -5.72000
H          4.89380       -7.10200       -6.72620
H          1.59220       -4.72190      -10.87840
H          1.60900       -3.06640      -10.22210
H          0.26490       -4.17610       -9.82320
H          0.53700       -2.54740       -8.19260
H         -0.88710        0.32600       -5.63300
H          0.21300       -0.58320       -8.33870
H          0.05400        0.02700      -10.46610
H         -0.01800       -0.99930      -12.57570
H          1.51130       -0.11540      -12.29880
H          0.92770       -0.39380      -13.95840
H         -1.47310        5.30750      -12.96630
H         -1.84950        4.64820      -14.57760
H         -3.00550        4.42940      -13.24020
H         -2.31820        4.36020      -11.00440
H         -3.24160        4.96280       -9.22420
H         -4.28150        5.89230       -7.40550
H         -1.44570        4.15250       -5.46270
H         -0.61460        1.42320       -1.95970
H          1.73700        0.86580       -2.26510
H          5.00560        0.29100       -3.97590
H          3.40860       -0.00690       -3.26990
H          3.95910        0.96920       -6.12590
H          2.35020        0.71600       -5.44600
H          3.43050       -0.66240       -5.69320
H          0.04180        5.19510       -3.88600
H         -5.84740        6.82550       -2.71920
H         -8.16620        7.41460       -2.32010
H        -10.24060        7.88770       -2.28540
H        -11.68070        7.76870       -1.26570
H         -8.86210        8.31720       -0.18930
H        -10.12660        9.53630       -0.39200
H        -10.34000        8.21910        0.76760
H         -6.49320        3.00200       -0.90450
H         -4.99370        4.14860        0.74170
H         -2.98280        3.16960        2.06050
