
  xtb     03042209153D
 energy: -344.377951122294 gnorm: 0.000221260732 xtb: 6.4.1 (unknown)
202219  0     0  0            999 V2000
   -7.5389   -4.8425   -1.9884 C   0  0  0  0  0  0  0  0  0  0  0  0
   -6.6697   -4.5057   -1.0145 C   0  0  0  0  0  0  0  0  0  0  0  0
   -5.3132   -4.7764   -1.3619 C   0  0  0  0  0  0  0  0  0  0  0  0
   -4.1546   -4.5097   -0.6152 C   0  0  0  0  0  0  0  0  0  0  0  0
   -4.1460   -3.6671    0.5869 C   0  0  0  0  0  0  0  0  0  0  0  0
   -3.3474   -3.9646    1.6911 C   0  0  0  0  0  0  0  0  0  0  0  0
   -3.2039   -3.0617    2.7225 C   0  0  0  0  0  0  0  0  0  0  0  0
   -3.8436   -1.8225    2.7044 C   0  0  0  0  0  0  0  0  0  0  0  0
   -3.4622   -0.7047    4.0194 S   0  0  0  0  0  0  0  0  0  0  0  0
   -5.0249    0.1869    4.3473 C   0  0  0  0  0  0  0  0  0  0  0  0
   -6.1492   -0.7556    4.7260 C   0  0  0  0  0  0  0  0  0  0  0  0
   -4.6659   -1.5537    1.6151 C   0  0  0  0  0  0  0  0  0  0  0  0
   -5.3287   -0.3796    1.5117 F   0  0  0  0  0  0  0  0  0  0  0  0
   -4.8282   -2.4527    0.5808 C   0  0  0  0  0  0  0  0  0  0  0  0
   -2.9535   -4.9256   -1.1730 C   0  0  0  0  0  0  0  0  0  0  0  0
   -2.8400   -5.4831   -2.4687 C   0  0  0  0  0  0  0  0  0  0  0  0
   -3.9948   -5.6826   -3.2427 C   0  0  0  0  0  0  0  0  0  0  0  0
   -3.9093   -6.1249   -4.6372 C   0  0  0  0  0  0  0  0  0  0  0  0
   -3.0111   -5.5210   -5.5184 C   0  0  0  0  0  0  0  0  0  0  0  0
   -2.9653   -5.8957   -6.8431 C   0  0  0  0  0  0  0  0  0  0  0  0
   -3.7954   -6.8977   -7.3453 C   0  0  0  0  0  0  0  0  0  0  0  0
   -3.6002   -7.3107   -9.0528 S   0  0  0  0  0  0  0  0  0  0  0  0
   -5.2845   -7.7374   -9.6291 C   0  0  0  0  0  0  0  0  0  0  0  0
   -6.2620   -6.5965   -9.4315 C   0  0  0  0  0  0  0  0  0  0  0  0
   -4.6592   -7.5168   -6.4474 C   0  0  0  0  0  0  0  0  0  0  0  0
   -4.7358   -7.1316   -5.1241 C   0  0  0  0  0  0  0  0  0  0  0  0
   -5.4593   -8.5336   -6.8405 F   0  0  0  0  0  0  0  0  0  0  0  0
   -5.2086   -5.3643   -2.6453 C   0  0  0  0  0  0  0  0  0  0  0  0
   -6.7795   -5.5118   -3.3901 S   0  0  0  0  0  0  0  0  0  0  0  0
   -1.4884   -5.7080   -2.8312 C   0  0  0  0  0  0  0  0  0  0  0  0
   -0.5808   -5.2982   -1.8945 C   0  0  0  0  0  0  0  0  0  0  0  0
   -1.3835   -4.6800   -0.4627 S   0  0  0  0  0  0  0  0  0  0  0  0
    0.8308   -5.2477   -2.0293 C   0  0  0  0  0  0  0  0  0  0  0  0
    1.5457   -5.6934   -3.5552 S   0  0  0  0  0  0  0  0  0  0  0  0
    1.7988   -4.7360   -1.1647 C   0  0  0  0  0  0  0  0  0  0  0  0
    1.6391   -4.2213    0.1405 C   0  0  0  0  0  0  0  0  0  0  0  0
    2.7059   -3.6995    0.8136 C   0  0  0  0  0  0  0  0  0  0  0  0
    2.6404   -3.1290    2.0407 O   0  0  0  0  0  0  0  0  0  0  0  0
    1.3750   -2.9670    2.6367 C   0  0  0  0  0  0  0  0  0  0  0  0
    4.0283   -3.7352    0.2378 C   0  0  0  0  0  0  0  0  0  0  0  0
    5.0074   -3.2763    1.0553 O   0  0  0  0  0  0  0  0  0  0  0  0
    6.3301   -3.2809    0.5802 C   0  0  0  0  0  0  0  0  0  0  0  0
    4.2027   -4.2062   -1.0294 C   0  0  0  0  0  0  0  0  0  0  0  0
    3.0897   -4.6714   -1.7717 C   0  0  0  0  0  0  0  0  0  0  0  0
    3.0980   -5.0886   -3.0951 C   0  0  0  0  0  0  0  0  0  0  0  0
    4.1198   -4.7466   -4.0746 C   0  0  0  0  0  0  0  0  0  0  0  0
    4.4359   -3.4566   -4.2422 C   0  0  0  0  0  0  0  0  0  0  0  0
    3.6743   -2.4342   -3.5257 C   0  0  0  0  0  0  0  0  0  0  0  0
    4.0380   -1.6604   -2.4767 C   0  0  0  0  0  0  0  0  0  0  0  0
    2.9416   -1.0365   -1.8112 C   0  0  0  0  0  0  0  0  0  0  0  0
    2.9544   -0.3669   -0.5761 C   0  0  0  0  0  0  0  0  0  0  0  0
    4.2193   -0.0918    0.1186 C   0  0  0  0  0  0  0  0  0  0  0  0
    4.3763   -0.4297    1.4608 C   0  0  0  0  0  0  0  0  0  0  0  0
    5.5957   -0.2704    2.0870 C   0  0  0  0  0  0  0  0  0  0  0  0
    6.6825    0.2513    1.4017 C   0  0  0  0  0  0  0  0  0  0  0  0
    8.2858    0.3323    2.1836 S   0  0  0  0  0  0  0  0  0  0  0  0
    8.1849    1.9942    2.9389 C   0  0  0  0  0  0  0  0  0  0  0  0
    7.1838    2.0616    4.0741 C   0  0  0  0  0  0  0  0  0  0  0  0
    6.5041    0.6330    0.0786 C   0  0  0  0  0  0  0  0  0  0  0  0
    7.5392    1.1545   -0.6125 F   0  0  0  0  0  0  0  0  0  0  0  0
    5.2957    0.4671   -0.5687 C   0  0  0  0  0  0  0  0  0  0  0  0
    1.7182   -0.0395   -0.0388 C   0  0  0  0  0  0  0  0  0  0  0  0
    0.4864   -0.2763   -0.7003 C   0  0  0  0  0  0  0  0  0  0  0  0
    0.4729   -0.9433   -1.9397 C   0  0  0  0  0  0  0  0  0  0  0  0
   -0.7761   -1.2659   -2.6358 C   0  0  0  0  0  0  0  0  0  0  0  0
   -1.8890   -1.7512   -1.9457 C   0  0  0  0  0  0  0  0  0  0  0  0
   -3.0523   -2.0541   -2.6133 C   0  0  0  0  0  0  0  0  0  0  0  0
   -3.1737   -1.9086   -3.9956 C   0  0  0  0  0  0  0  0  0  0  0  0
   -4.7507   -2.3397   -4.6562 S   0  0  0  0  0  0  0  0  0  0  0  0
   -4.5146   -2.5611   -6.4610 C   0  0  0  0  0  0  0  0  0  0  0  0
   -5.6671   -3.3910   -6.9913 C   0  0  0  0  0  0  0  0  0  0  0  0
   -2.0643   -1.4123   -4.6714 C   0  0  0  0  0  0  0  0  0  0  0  0
   -0.8900   -1.1012   -4.0138 C   0  0  0  0  0  0  0  0  0  0  0  0
   -2.0994   -1.1929   -6.0074 F   0  0  0  0  0  0  0  0  0  0  0  0
    1.7110   -1.3195   -2.4469 C   0  0  0  0  0  0  0  0  0  0  0  0
    1.9537   -2.3137   -3.8559 S   0  0  0  0  0  0  0  0  0  0  0  0
   -0.6152    0.2499    0.0200 C   0  0  0  0  0  0  0  0  0  0  0  0
   -0.2834    0.8448    1.2055 C   0  0  0  0  0  0  0  0  0  0  0  0
    1.4544    0.7635    1.4894 S   0  0  0  0  0  0  0  0  0  0  0  0
   -1.0779    1.5082    2.1752 C   0  0  0  0  0  0  0  0  0  0  0  0
   -0.3381    1.8650    3.7047 S   0  0  0  0  0  0  0  0  0  0  0  0
   -2.3704    2.0432    2.1199 C   0  0  0  0  0  0  0  0  0  0  0  0
   -3.2947    2.0032    1.0547 C   0  0  0  0  0  0  0  0  0  0  0  0
   -4.5106    2.6197    1.1675 C   0  0  0  0  0  0  0  0  0  0  0  0
   -5.4685    2.6483    0.2106 O   0  0  0  0  0  0  0  0  0  0  0  0
   -5.2376    1.9541   -0.9897 C   0  0  0  0  0  0  0  0  0  0  0  0
   -4.8583    3.3235    2.3728 C   0  0  0  0  0  0  0  0  0  0  0  0
   -6.0950    3.8850    2.3568 O   0  0  0  0  0  0  0  0  0  0  0  0
   -6.5125    4.6070    3.4866 C   0  0  0  0  0  0  0  0  0  0  0  0
   -3.9684    3.3910    3.4084 C   0  0  0  0  0  0  0  0  0  0  0  0
   -2.7147    2.7519    3.3098 C   0  0  0  0  0  0  0  0  0  0  0  0
   -1.6864    2.7878    4.2633 C   0  0  0  0  0  0  0  0  0  0  0  0
   -1.7498    3.3821    5.5506 C   0  0  0  0  0  0  0  0  0  0  0  0
   -0.7482    3.8508    6.3473 C   0  0  0  0  0  0  0  0  0  0  0  0
    0.6121    4.1044    6.0542 C   0  0  0  0  0  0  0  0  0  0  0  0
    1.2387    4.2739    4.4514 S   0  0  0  0  0  0  0  0  0  0  0  0
    1.6268    4.3936    6.9866 C   0  0  0  0  0  0  0  0  0  0  0  0
    1.5018    4.3614    8.3902 C   0  0  0  0  0  0  0  0  0  0  0  0
    2.5822    4.6251    9.1868 C   0  0  0  0  0  0  0  0  0  0  0  0
    2.5795    4.6310   10.5442 O   0  0  0  0  0  0  0  0  0  0  0  0
    1.3758    4.3457   11.2104 C   0  0  0  0  0  0  0  0  0  0  0  0
    3.8572    4.9141    8.5941 C   0  0  0  0  0  0  0  0  0  0  0  0
    4.8542    5.1359    9.4896 O   0  0  0  0  0  0  0  0  0  0  0  0
    6.1412    5.4175    9.0001 C   0  0  0  0  0  0  0  0  0  0  0  0
    3.9950    4.9444    7.2332 C   0  0  0  0  0  0  0  0  0  0  0  0
    2.8879    4.6999    6.3949 C   0  0  0  0  0  0  0  0  0  0  0  0
    2.8465    4.6751    4.9901 C   0  0  0  0  0  0  0  0  0  0  0  0
    3.7918    4.8156    3.9541 C   0  0  0  0  0  0  0  0  0  0  0  0
    5.0962    5.2029    4.0232 C   0  0  0  0  0  0  0  0  0  0  0  0
    6.0542    5.2025    2.9849 C   0  0  0  0  0  0  0  0  0  0  0  0
    7.6305    5.8121    3.4171 S   0  0  0  0  0  0  0  0  0  0  0  0
    6.0723    4.7457    1.6551 C   0  0  0  0  0  0  0  0  0  0  0  0
    5.0162    4.1973    0.8969 C   0  0  0  0  0  0  0  0  0  0  0  0
    5.2101    3.8209   -0.4033 C   0  0  0  0  0  0  0  0  0  0  0  0
    4.2544    3.3070   -1.2190 O   0  0  0  0  0  0  0  0  0  0  0  0
    2.9396    3.2204   -0.7313 C   0  0  0  0  0  0  0  0  0  0  0  0
    6.4972    3.9734   -1.0238 C   0  0  0  0  0  0  0  0  0  0  0  0
    6.5458    3.5756   -2.3180 O   0  0  0  0  0  0  0  0  0  0  0  0
    7.7899    3.6030   -2.9732 C   0  0  0  0  0  0  0  0  0  0  0  0
    7.5390    4.4909   -0.3092 C   0  0  0  0  0  0  0  0  0  0  0  0
    7.3608    4.8687    1.0420 C   0  0  0  0  0  0  0  0  0  0  0  0
    8.3304    5.4094    1.8881 C   0  0  0  0  0  0  0  0  0  0  0  0
    9.7376    5.6293    1.7109 C   0  0  0  0  0  0  0  0  0  0  0  0
   10.5568    4.9349    0.9209 C   0  0  0  0  0  0  0  0  0  0  0  0
   -8.6073   -4.7497   -1.9809 H   0  0  0  0  0  0  0  0  0  0  0  0
   -6.9660   -4.0970   -0.0652 H   0  0  0  0  0  0  0  0  0  0  0  0
   -2.8466   -4.9183    1.7472 H   0  0  0  0  0  0  0  0  0  0  0  0
   -2.5744   -3.2951    3.5670 H   0  0  0  0  0  0  0  0  0  0  0  0
   -5.2724    0.7973    3.4821 H   0  0  0  0  0  0  0  0  0  0  0  0
   -4.7611    0.8422    5.1779 H   0  0  0  0  0  0  0  0  0  0  0  0
   -6.3982   -1.4134    3.8957 H   0  0  0  0  0  0  0  0  0  0  0  0
   -5.8648   -1.3682    5.5790 H   0  0  0  0  0  0  0  0  0  0  0  0
   -7.0367   -0.1819    4.9853 H   0  0  0  0  0  0  0  0  0  0  0  0
   -5.4570   -2.1688   -0.2497 H   0  0  0  0  0  0  0  0  0  0  0  0
   -2.3696   -4.7286   -5.1629 H   0  0  0  0  0  0  0  0  0  0  0  0
   -2.2803   -5.4145   -7.5243 H   0  0  0  0  0  0  0  0  0  0  0  0
   -5.1354   -7.9477  -10.6885 H   0  0  0  0  0  0  0  0  0  0  0  0
   -5.6118   -8.6468   -9.1306 H   0  0  0  0  0  0  0  0  0  0  0  0
   -5.8992   -5.6947   -9.9205 H   0  0  0  0  0  0  0  0  0  0  0  0
   -7.2259   -6.8628   -9.8600 H   0  0  0  0  0  0  0  0  0  0  0  0
   -6.4048   -6.3844   -8.3738 H   0  0  0  0  0  0  0  0  0  0  0  0
   -5.4229   -7.6527   -4.4761 H   0  0  0  0  0  0  0  0  0  0  0  0
   -1.1867   -6.1537   -3.7620 H   0  0  0  0  0  0  0  0  0  0  0  0
    0.6687   -4.2408    0.6013 H   0  0  0  0  0  0  0  0  0  0  0  0
    0.9138   -3.9312    2.8717 H   0  0  0  0  0  0  0  0  0  0  0  0
    1.5511   -2.4166    3.5596 H   0  0  0  0  0  0  0  0  0  0  0  0
    0.6985   -2.3931    1.9946 H   0  0  0  0  0  0  0  0  0  0  0  0
    6.9387   -2.8817    1.3895 H   0  0  0  0  0  0  0  0  0  0  0  0
    6.4432   -2.6399   -0.2997 H   0  0  0  0  0  0  0  0  0  0  0  0
    6.6648   -4.2940    0.3351 H   0  0  0  0  0  0  0  0  0  0  0  0
    5.1734   -4.2394   -1.4961 H   0  0  0  0  0  0  0  0  0  0  0  0
    4.5842   -5.5286   -4.6580 H   0  0  0  0  0  0  0  0  0  0  0  0
    5.2256   -3.1461   -4.9114 H   0  0  0  0  0  0  0  0  0  0  0  0
    5.0509   -1.5981   -2.1227 H   0  0  0  0  0  0  0  0  0  0  0  0
    3.5620   -0.8803    2.0027 H   0  0  0  0  0  0  0  0  0  0  0  0
    5.7233   -0.5840    3.1110 H   0  0  0  0  0  0  0  0  0  0  0  0
    7.9427    2.6944    2.1413 H   0  0  0  0  0  0  0  0  0  0  0  0
    9.1974    2.1886    3.2915 H   0  0  0  0  0  0  0  0  0  0  0  0
    7.2537    3.0290    4.5671 H   0  0  0  0  0  0  0  0  0  0  0  0
    7.3879    1.2834    4.8067 H   0  0  0  0  0  0  0  0  0  0  0  0
    6.1679    1.9394    3.7029 H   0  0  0  0  0  0  0  0  0  0  0  0
    5.1991    0.7896   -1.5940 H   0  0  0  0  0  0  0  0  0  0  0  0
   -1.8320   -1.9261   -0.8827 H   0  0  0  0  0  0  0  0  0  0  0  0
   -3.9089   -2.4240   -2.0753 H   0  0  0  0  0  0  0  0  0  0  0  0
   -3.5687   -3.0753   -6.6111 H   0  0  0  0  0  0  0  0  0  0  0  0
   -4.4826   -1.5767   -6.9263 H   0  0  0  0  0  0  0  0  0  0  0  0
   -6.6148   -2.8823   -6.8295 H   0  0  0  0  0  0  0  0  0  0  0  0
   -5.7018   -4.3543   -6.4860 H   0  0  0  0  0  0  0  0  0  0  0  0
   -5.5365   -3.5578   -8.0580 H   0  0  0  0  0  0  0  0  0  0  0  0
   -0.0759   -0.6985   -4.5959 H   0  0  0  0  0  0  0  0  0  0  0  0
   -1.6212    0.1871   -0.3444 H   0  0  0  0  0  0  0  0  0  0  0  0
   -3.0296    1.4923    0.1471 H   0  0  0  0  0  0  0  0  0  0  0  0
   -5.0774    0.8868   -0.8108 H   0  0  0  0  0  0  0  0  0  0  0  0
   -6.1389    2.0881   -1.5850 H   0  0  0  0  0  0  0  0  0  0  0  0
   -4.3793    2.3623   -1.5342 H   0  0  0  0  0  0  0  0  0  0  0  0
   -7.5144    4.9642    3.2544 H   0  0  0  0  0  0  0  0  0  0  0  0
   -5.8585    5.4635    3.6819 H   0  0  0  0  0  0  0  0  0  0  0  0
   -6.5523    3.9719    4.3786 H   0  0  0  0  0  0  0  0  0  0  0  0
   -4.2041    3.9317    4.3099 H   0  0  0  0  0  0  0  0  0  0  0  0
   -2.7526    3.4556    5.9556 H   0  0  0  0  0  0  0  0  0  0  0  0
   -1.0384    4.1306    7.3529 H   0  0  0  0  0  0  0  0  0  0  0  0
    0.5447    4.1205    8.8219 H   0  0  0  0  0  0  0  0  0  0  0  0
    0.5975    5.0767   10.9661 H   0  0  0  0  0  0  0  0  0  0  0  0
    1.0142    3.3391   10.9748 H   0  0  0  0  0  0  0  0  0  0  0  0
    1.6060    4.4065   12.2727 H   0  0  0  0  0  0  0  0  0  0  0  0
    6.1531    6.3350    8.4020 H   0  0  0  0  0  0  0  0  0  0  0  0
    6.5350    4.5893    8.4013 H   0  0  0  0  0  0  0  0  0  0  0  0
    6.7667    5.5542    9.8806 H   0  0  0  0  0  0  0  0  0  0  0  0
    4.9542    5.1440    6.7922 H   0  0  0  0  0  0  0  0  0  0  0  0
    3.3819    4.5688    2.9871 H   0  0  0  0  0  0  0  0  0  0  0  0
    5.4856    5.5538    4.9679 H   0  0  0  0  0  0  0  0  0  0  0  0
    4.0473    4.0765    1.3429 H   0  0  0  0  0  0  0  0  0  0  0  0
    2.8814    2.5825    0.1554 H   0  0  0  0  0  0  0  0  0  0  0  0
    2.5357    4.2101   -0.4927 H   0  0  0  0  0  0  0  0  0  0  0  0
    2.3536    2.7744   -1.5334 H   0  0  0  0  0  0  0  0  0  0  0  0
    8.1778    4.6235   -3.0596 H   0  0  0  0  0  0  0  0  0  0  0  0
    7.6070    3.2023   -3.9689 H   0  0  0  0  0  0  0  0  0  0  0  0
    8.5214    2.9748   -2.4560 H   0  0  0  0  0  0  0  0  0  0  0  0
    8.5012    4.6456   -0.7637 H   0  0  0  0  0  0  0  0  0  0  0  0
   10.1507    6.4093    2.3401 H   0  0  0  0  0  0  0  0  0  0  0  0
   11.6046    5.1735    0.8675 H   0  0  0  0  0  0  0  0  0  0  0  0
   10.2266    4.0945    0.3372 H   0  0  0  0  0  0  0  0  0  0  0  0
  1  2  2  0  0  0  0
  2  3  1  0  0  0  0
  3  4  2  0  0  0  0
  4  5  1  0  0  0  0
  5  6  2  0  0  0  0
  6  7  1  0  0  0  0
  7  8  2  0  0  0  0
  8  9  1  0  0  0  0
  9 10  1  0  0  0  0
 10 11  1  0  0  0  0
  8 12  1  0  0  0  0
 12 13  1  0  0  0  0
 12 14  2  0  0  0  0
  4 15  1  0  0  0  0
 15 16  2  0  0  0  0
 16 17  1  0  0  0  0
 17 18  1  0  0  0  0
 18 19  2  0  0  0  0
 19 20  1  0  0  0  0
 20 21  2  0  0  0  0
 21 22  1  0  0  0  0
 22 23  1  0  0  0  0
 23 24  1  0  0  0  0
 21 25  1  0  0  0  0
 25 26  2  0  0  0  0
 25 27  1  0  0  0  0
 17 28  2  0  0  0  0
 28 29  1  0  0  0  0
 16 30  1  0  0  0  0
 30 31  2  0  0  0  0
 31 32  1  0  0  0  0
 31 33  1  0  0  0  0
 33 34  1  0  0  0  0
 33 35  2  0  0  0  0
 35 36  1  0  0  0  0
 36 37  2  0  0  0  0
 37 38  1  0  0  0  0
 38 39  1  0  0  0  0
 37 40  1  0  0  0  0
 40 41  1  0  0  0  0
 41 42  1  0  0  0  0
 40 43  2  0  0  0  0
 43 44  1  0  0  0  0
 44 45  2  0  0  0  0
 45 46  1  0  0  0  0
 46 47  2  0  0  0  0
 47 48  1  0  0  0  0
 48 49  2  0  0  0  0
 49 50  1  0  0  0  0
 50 51  2  0  0  0  0
 51 52  1  0  0  0  0
 52 53  2  0  0  0  0
 53 54  1  0  0  0  0
 54 55  2  0  0  0  0
 55 56  1  0  0  0  0
 56 57  1  0  0  0  0
 57 58  1  0  0  0  0
 55 59  1  0  0  0  0
 59 60  1  0  0  0  0
 59 61  2  0  0  0  0
 51 62  1  0  0  0  0
 62 63  2  0  0  0  0
 63 64  1  0  0  0  0
 64 65  1  0  0  0  0
 65 66  2  0  0  0  0
 66 67  1  0  0  0  0
 67 68  2  0  0  0  0
 68 69  1  0  0  0  0
 69 70  1  0  0  0  0
 70 71  1  0  0  0  0
 68 72  1  0  0  0  0
 72 73  2  0  0  0  0
 72 74  1  0  0  0  0
 64 75  2  0  0  0  0
 75 76  1  0  0  0  0
 63 77  1  0  0  0  0
 77 78  2  0  0  0  0
 78 79  1  0  0  0  0
 78 80  1  0  0  0  0
 80 81  1  0  0  0  0
 80 82  2  0  0  0  0
 82 83  1  0  0  0  0
 83 84  2  0  0  0  0
 84 85  1  0  0  0  0
 85 86  1  0  0  0  0
 84 87  1  0  0  0  0
 87 88  1  0  0  0  0
 88 89  1  0  0  0  0
 87 90  2  0  0  0  0
 90 91  1  0  0  0  0
 91 92  2  0  0  0  0
 92 93  1  0  0  0  0
 93 94  2  0  0  0  0
 94 95  1  0  0  0  0
 95 96  1  0  0  0  0
 95 97  2  0  0  0  0
 97 98  1  0  0  0  0
 98 99  2  0  0  0  0
 99100  1  0  0  0  0
100101  1  0  0  0  0
 99102  1  0  0  0  0
102103  1  0  0  0  0
103104  1  0  0  0  0
102105  2  0  0  0  0
105106  1  0  0  0  0
106107  2  0  0  0  0
107108  1  0  0  0  0
108109  2  0  0  0  0
109110  1  0  0  0  0
110111  1  0  0  0  0
110112  2  0  0  0  0
112113  1  0  0  0  0
113114  2  0  0  0  0
114115  1  0  0  0  0
115116  1  0  0  0  0
114117  1  0  0  0  0
117118  1  0  0  0  0
118119  1  0  0  0  0
117120  2  0  0  0  0
120121  1  0  0  0  0
121122  2  0  0  0  0
122123  1  0  0  0  0
123124  2  0  0  0  0
 29  1  1  0  0  0  0
 45 34  1  0  0  0  0
 76 48  1  0  0  0  0
 92 81  1  0  0  0  0
107 96  1  0  0  0  0
122111  1  0  0  0  0
 28  3  1  0  0  0  0
 44 35  1  0  0  0  0
 75 50  1  0  0  0  0
 91 82  1  0  0  0  0
106 97  1  0  0  0  0
121112  1  0  0  0  0
 14  5  1  0  0  0  0
 32 15  1  0  0  0  0
 61 52  1  0  0  0  0
 79 62  1  0  0  0  0
 26 18  1  0  0  0  0
 73 65  1  0  0  0  0
  1125  1  0  0  0  0
  2126  1  0  0  0  0
  6127  1  0  0  0  0
  7128  1  0  0  0  0
 10129  1  0  0  0  0
 10130  1  0  0  0  0
 11131  1  0  0  0  0
 11132  1  0  0  0  0
 11133  1  0  0  0  0
 14134  1  0  0  0  0
 19135  1  0  0  0  0
 20136  1  0  0  0  0
 23137  1  0  0  0  0
 23138  1  0  0  0  0
 24139  1  0  0  0  0
 24140  1  0  0  0  0
 24141  1  0  0  0  0
 26142  1  0  0  0  0
 30143  1  0  0  0  0
 36144  1  0  0  0  0
 39145  1  0  0  0  0
 39146  1  0  0  0  0
 39147  1  0  0  0  0
 42148  1  0  0  0  0
 42149  1  0  0  0  0
 42150  1  0  0  0  0
 43151  1  0  0  0  0
 46152  1  0  0  0  0
 47153  1  0  0  0  0
 49154  1  0  0  0  0
 53155  1  0  0  0  0
 54156  1  0  0  0  0
 57157  1  0  0  0  0
 57158  1  0  0  0  0
 58159  1  0  0  0  0
 58160  1  0  0  0  0
 58161  1  0  0  0  0
 61162  1  0  0  0  0
 66163  1  0  0  0  0
 67164  1  0  0  0  0
 70165  1  0  0  0  0
 70166  1  0  0  0  0
 71167  1  0  0  0  0
 71168  1  0  0  0  0
 71169  1  0  0  0  0
 73170  1  0  0  0  0
 77171  1  0  0  0  0
 83172  1  0  0  0  0
 86173  1  0  0  0  0
 86174  1  0  0  0  0
 86175  1  0  0  0  0
 89176  1  0  0  0  0
 89177  1  0  0  0  0
 89178  1  0  0  0  0
 90179  1  0  0  0  0
 93180  1  0  0  0  0
 94181  1  0  0  0  0
 98182  1  0  0  0  0
101183  1  0  0  0  0
101184  1  0  0  0  0
101185  1  0  0  0  0
104186  1  0  0  0  0
104187  1  0  0  0  0
104188  1  0  0  0  0
105189  1  0  0  0  0
108190  1  0  0  0  0
109191  1  0  0  0  0
113192  1  0  0  0  0
116193  1  0  0  0  0
116194  1  0  0  0  0
116195  1  0  0  0  0
119196  1  0  0  0  0
119197  1  0  0  0  0
119198  1  0  0  0  0
120199  1  0  0  0  0
123200  1  0  0  0  0
124201  1  0  0  0  0
124202  1  0  0  0  0
M  END
