268

C         -5.01080       -3.47440        9.70310
S         -5.57190       -1.85980        9.71300
C         -4.76510       -3.93280        8.42920
C         -4.28960       -5.21290        8.04840
C         -4.08280       -5.48900        6.73050
O         -3.63240       -6.66940        6.22790
C         -3.32620       -7.70160        7.13090
C         -4.33610       -4.48550        5.72490
O         -4.05010       -4.89380        4.46060
C         -4.23190       -3.98080        3.40820
C         -4.81200       -3.25260        6.07320
C         -5.04310       -2.94580        7.43130
C         -5.50430       -1.74180        7.97590
C         -5.87690       -0.56440        7.29490
C         -6.19460        0.61880        7.88650
C         -6.54870        1.78940        7.18600
S         -6.79230        1.78150        5.46770
C         -6.71240        3.09010        7.68780
C         -6.62500        3.49450        9.03570
C         -6.81480        4.80670        9.37050
O         -6.75560        5.31610       10.62750
C         -6.47240        4.43930       11.68860
C         -7.12250        5.77700        8.35380
O         -7.32000        7.03430        8.82630
C         -7.62910        8.05100        7.90670
C         -7.20050        5.40280        7.04110
C         -6.97590        4.05830        6.67500
C         -7.02640        3.50520        5.39070
C         -7.13220        4.06980        4.09740
C         -6.78900        5.31810        3.69630
C         -6.72770        5.67060        2.31850
C         -5.95060        6.64160        1.74720
C         -5.85680        6.55050        0.33770
C         -5.00170        7.26530       -0.52930
C         -4.05400        8.26800       -0.09450
C         -3.57450        9.31440       -0.83140
C         -2.51860       10.02800       -0.21810
C         -1.81890       11.14940       -0.92130
C         -0.89990       10.60030       -2.01450
C         -2.19620        9.52650        1.00990
C         -1.13120        9.95240        1.96350
C          0.19330        9.24120        1.67530
S         -3.19600        8.16790        1.41870
C         -4.98660        6.84640       -1.85810
C         -5.81640        5.82070       -2.36540
C         -6.72880        5.15990       -1.51800
C         -7.58290        4.09950       -2.01070
C         -7.90030        2.91000       -1.42130
C         -8.75550        2.09040       -2.19470
C         -9.23470        0.75820       -1.70410
C        -10.41310        0.93310       -0.74520
C         -9.11190        2.67520       -3.37560
S         -8.37860        4.23660       -3.55500
C         -9.92980        2.12390       -4.49470
C         -9.03640        1.42100       -5.52090
C         -6.67960        5.51530       -0.17610
S         -7.51730        4.68300        1.10380
C         -5.41180        5.39850       -3.65460
C         -4.29160        6.02690       -4.11280
S         -3.78220        7.31440       -3.03670
C         -3.39440        5.50760       -5.09030
C         -2.06160        5.78120       -5.18950
C         -1.30830        4.75090       -5.80420
C          0.09710        4.61620       -5.84590
C          1.02720        5.65820       -5.46880
C          2.29000        5.83540       -5.96420
C          3.00810        6.89960       -5.37210
C          4.39060        7.27320       -5.81330
C          4.34200        8.28870       -6.95580
C          2.28280        7.54670       -4.41330
C          2.65540        8.70180       -3.54640
C          2.84250        8.27010       -2.09050
S          0.71110        6.83900       -4.22830
C          0.56970        3.34540       -6.17360
C         -0.27140        2.28260       -6.57330
C         -1.66150        2.47580       -6.71470
C         -2.52240        1.41840       -7.19930
C         -3.77730        1.06410       -6.79350
C         -4.33630       -0.01710       -7.51330
C         -5.68700       -0.57740       -7.18530
C         -5.59900       -1.55170       -6.00970
C         -3.49420       -0.49580       -8.47580
S         -2.00840        0.39670       -8.51600
C         -3.71660       -1.59080       -9.46410
C         -4.28490       -1.04340      -10.77570
C         -2.14250        3.69380       -6.25130
S         -3.82570        4.04910       -5.96030
C          0.39270        1.03470       -6.52520
C          1.67950        1.11090       -6.08160
S          2.19670        2.77380       -5.87150
C          2.42700        0.02630       -5.53620
C          3.65680        0.02570       -4.95040
C          3.92090       -1.13460       -4.17470
C          5.02540       -1.40610       -3.34160
C          6.20320       -0.56600       -3.27180
C          7.49540       -0.97680       -3.10170
C          8.43290        0.07730       -3.00640
C          9.90340       -0.17110       -2.86080
C         10.55330       -0.40090       -4.22610
C          7.84650        1.30590       -3.10790
C          8.46530        2.65990       -3.01500
C          8.40530        3.19520       -1.58210
S          6.13000        1.17280       -3.31270
C          4.91420       -2.52390       -2.51540
C          3.77980       -3.36950       -2.48580
C          2.72670       -3.16340       -3.39480
C          1.52660       -3.97280       -3.44560
C          0.80830       -4.30360       -4.55810
C         -0.39460       -4.99960       -4.29140
C         -1.33520       -5.38810       -5.39090
C         -2.20920       -4.19780       -5.79130
C         -0.60200       -5.18760       -2.95630
S          0.70640       -4.53540       -2.01690
C         -1.72530       -5.87180       -2.25350
C         -1.30000       -7.24130       -1.72050
C          2.83730       -2.04550       -4.21430
S          1.56910       -1.48020       -5.26380
C          3.85330       -4.31950       -1.43740
C          4.97840       -4.21120       -0.67900
S          6.05680       -2.96880       -1.27310
C          5.25460       -4.93220        0.52750
C          4.32340       -5.35330        1.42690
C          4.87680       -6.00550        2.55860
C          4.20090       -6.47480        3.70020
C          2.76290       -6.34640        3.83210
C          1.78580       -6.58280        2.90930
C          0.47560       -6.30060        3.36800
C         -0.73050       -6.46430        2.49430
C         -0.92850       -5.23970        1.60020
C          0.46250       -5.83630        4.65220
C         -0.68220       -5.37920        5.48990
C         -0.76010       -3.85190        5.54600
S          2.06460       -5.76130        5.31570
C          4.99480       -7.02000        4.70420
C          6.40330       -7.11220        4.62320
C          7.08150       -6.61190        3.49700
C          8.52600       -6.60950        3.38330
C          9.28130       -6.83290        2.26850
C         10.67300       -6.67840        2.47090
C         11.67110       -6.92200        1.38000
C         12.01950       -8.40820        1.28440
C         10.97800       -6.33560        3.75650
S          9.54870       -6.19050        4.72880
C         12.30580       -6.03150        4.36450
C         12.59940       -4.52980        4.31810
C          6.28790       -6.07620        2.48630
S          6.88280       -5.32990        1.02500
C          6.94980       -7.76780        5.76600
C          6.01130       -8.13780        6.65990
S          4.40200       -7.71910        6.18770
H         -4.88870       -3.99840       10.62970
H         -4.10160       -5.93990        8.82140
H         -2.96680       -8.52940        6.52190
H         -2.54130       -7.40090        7.83250
H         -4.21090       -8.01970        7.69210
H         -5.27980       -3.67760        3.31400
H         -3.60840       -3.09010        3.53760
H         -3.92600       -4.50750        2.50590
H         -5.00760       -2.49990        5.32770
H         -5.89040       -0.61980        6.21420
H         -6.14710        0.69040        8.96490
H         -6.41520        2.75300        9.78820
H         -5.49320        3.96390       11.56760
H         -7.24090        3.66520       11.78690
H         -6.46540        5.05600       12.58570
H         -7.74050        8.95830        8.49800
H         -8.56590        7.84550        7.37800
H         -6.82490        8.19090        7.17650
H         -7.45890        6.11200        6.27400
H         -7.40930        3.36380        3.32200
H         -6.39330        6.04340        4.39170
H         -5.40860        7.35820        2.33610
H         -3.98580        9.59870       -1.78360
H         -2.56430       11.80590       -1.37660
H         -1.23420       11.73780       -0.21270
H         -1.47060       10.01190       -2.72930
H         -0.13670        9.95700       -1.58240
H         -0.41020       11.41560       -2.54290
H         -0.98720       11.03330        1.89400
H         -1.44780        9.71770        2.98210
H          0.54520        9.48280        0.67550
H          0.95010        9.54720        2.39360
H          0.06390        8.16350        1.74380
H         -7.49810        2.59570       -0.47520
H         -8.41630        0.25820       -1.18130
H         -9.53380        0.12910       -2.54360
H        -11.24590        1.41530       -1.25270
H        -10.74630       -0.03210       -0.37020
H        -10.12290        1.55410        0.09910
H        -10.46810        2.93700       -4.98600
H        -10.66470        1.41910       -4.10130
H         -9.63600        1.01520       -6.33220
H         -8.48710        0.60790       -5.05080
H         -8.31980        2.12620       -5.93680
H         -5.85340        4.57000       -4.17760
H         -1.63530        6.65160       -4.72820
H          2.69580        5.23830       -6.76160
H          4.90660        6.37260       -6.15150
H          4.95360        7.68970       -4.97620
H          3.83830        9.19810       -6.63510
H          5.34770        8.54430       -7.28170
H          3.79670        7.87780       -7.80250
H          3.57680        9.15260       -3.91840
H          1.86580        9.45690       -3.59460
H          3.10990        9.12470       -1.47320
H          3.63160        7.52520       -2.01440
H          1.92240        7.83490       -1.70620
H         -4.28850        1.53530       -5.97410
H         -6.10490       -1.08840       -8.05360
H         -6.35610        0.24470       -6.92310
H         -6.58260       -1.95080       -5.77170
H         -5.20570       -1.04780       -5.12980
H         -4.93620       -2.37980       -6.25200
H         -2.76780       -2.09210       -9.66680
H         -4.40560       -2.32610       -9.04370
H         -4.44430       -1.85110      -11.48590
H         -3.59370       -0.32660      -11.21310
H         -5.23340       -0.54120      -10.59850
H         -0.09660        0.09310       -6.69810
H          4.32250        0.86550       -5.02730
H          7.78370       -2.01270       -3.07500
H         10.05080       -1.05500       -2.23680
H         10.38130        0.67540       -2.36580
H         10.42170        0.47230       -4.86160
H         11.61820       -0.59150       -4.11350
H         10.09820       -1.25500       -4.72240
H          9.50470        2.60990       -3.34530
H          7.93170        3.34680       -3.67570
H          8.86090        4.18100       -1.52690
H          7.37140        3.27030       -1.25310
H          8.93330        2.52770       -0.90480
H          1.14320       -4.08860       -5.55720
H         -1.96690       -6.22110       -5.07880
H         -0.75220       -5.71250       -6.25540
H         -1.58830       -3.36100       -6.10370
H         -2.81740       -3.87360       -4.94930
H         -2.86730       -4.46950       -6.61390
H         -2.05730       -5.24960       -1.41860
H         -2.56500       -5.98760       -2.94060
H         -0.97800       -7.88240       -2.53830
H         -2.12850       -7.72210       -1.20580
H         -0.47340       -7.13100       -1.02270
H          3.09650       -5.05670       -1.24560
H          3.27470       -5.15280        1.31110
H          1.98770       -6.99120        1.93420
H         -1.62090       -6.60970        3.10790
H         -0.59960       -7.35020        1.86830
H         -1.81680       -5.36370        0.98490
H         -0.07220       -5.09520        0.94440
H         -1.04860       -4.34470        2.20580
H         -0.55790       -5.76130        6.50640
H         -1.61510       -5.77500        5.08680
H          0.15530       -3.44180        5.96740
H         -1.59960       -3.54030        6.16400
H         -0.89120       -3.44150        4.54720
H          8.86100       -7.12930        1.32390
H         12.57840       -6.34460        1.56300
H         11.24400       -6.58940        0.43170
H         11.12520       -8.99400        1.08460
H         12.45410       -8.75760        2.21860
H         12.73400       -8.58090        0.48270
H         13.08640       -6.57520        3.82890
H         12.31270       -6.36500        5.40450
H         13.56940       -4.31940        4.76220
H         11.83800       -3.98190        4.86870
H         12.60090       -4.17480        3.28990
H          7.99830       -7.96010        5.89740
H          6.15540       -8.64440        7.59410
