
  xtb     03082202453D
 energy: -299.178855744623 gnorm: 0.000411606929 xtb: 6.4.1 (unknown)
177191  0     0  0            999 V2000
    3.5957    2.6118    2.7700 C   0  0  0  0  0  0  0  0  0  0  0  0
    2.0565    1.9836    3.1526 S   0  0  0  0  0  0  0  0  0  0  0  0
    3.8889    3.7507    3.4902 C   0  0  0  0  0  0  0  0  0  0  0  0
    5.0663    4.5237    3.4660 C   0  0  0  0  0  0  0  0  0  0  0  0
    5.2046    5.6318    4.2609 C   0  0  0  0  0  0  0  0  0  0  0  0
    6.3911    6.2875    4.1152 O   0  0  0  0  0  0  0  0  0  0  0  0
    6.8220    7.2716    5.0271 C   0  0  0  0  0  0  0  0  0  0  0  0
    4.1243    6.0150    5.1273 C   0  0  0  0  0  0  0  0  0  0  0  0
    4.3034    7.1469    5.8791 O   0  0  0  0  0  0  0  0  0  0  0  0
    3.2663    7.5688    6.7274 C   0  0  0  0  0  0  0  0  0  0  0  0
    2.9772    5.2632    5.1704 C   0  0  0  0  0  0  0  0  0  0  0  0
    2.8213    4.1226    4.3635 C   0  0  0  0  0  0  0  0  0  0  0  0
    1.7222    3.2450    4.2988 C   0  0  0  0  0  0  0  0  0  0  0  0
    0.4874    3.4599    4.9487 C   0  0  0  0  0  0  0  0  0  0  0  0
   -0.6428    2.7049    5.0893 C   0  0  0  0  0  0  0  0  0  0  0  0
   -0.9240    1.3491    4.8357 C   0  0  0  0  0  0  0  0  0  0  0  0
    0.2652    0.1013    4.6594 S   0  0  0  0  0  0  0  0  0  0  0  0
   -2.2173    0.7824    4.8149 C   0  0  0  0  0  0  0  0  0  0  0  0
   -3.4490    1.4443    4.9141 C   0  0  0  0  0  0  0  0  0  0  0  0
   -4.6429    0.7624    4.8420 C   0  0  0  0  0  0  0  0  0  0  0  0
   -5.7462    1.5509    4.9743 O   0  0  0  0  0  0  0  0  0  0  0  0
   -7.0271    1.1035    4.5902 C   0  0  0  0  0  0  0  0  0  0  0  0
   -4.6342   -0.6587    4.6780 C   0  0  0  0  0  0  0  0  0  0  0  0
   -5.8467   -1.2954    4.6559 O   0  0  0  0  0  0  0  0  0  0  0  0
   -5.8725   -2.6926    4.5074 C   0  0  0  0  0  0  0  0  0  0  0  0
   -3.4351   -1.3196    4.5640 C   0  0  0  0  0  0  0  0  0  0  0  0
   -2.2172   -0.6242    4.6182 C   0  0  0  0  0  0  0  0  0  0  0  0
   -0.9226   -1.1676    4.5151 C   0  0  0  0  0  0  0  0  0  0  0  0
   -0.5462   -2.4984    4.3092 C   0  0  0  0  0  0  0  0  0  0  0  0
    0.7423   -2.9526    4.4201 C   0  0  0  0  0  0  0  0  0  0  0  0
    1.1686   -4.2621    4.1932 C   0  0  0  0  0  0  0  0  0  0  0  0
    0.1494   -5.4701    3.4566 S   0  0  0  0  0  0  0  0  0  0  0  0
    2.4277   -4.8174    4.5033 C   0  0  0  0  0  0  0  0  0  0  0  0
    3.5180   -4.1646    5.0967 C   0  0  0  0  0  0  0  0  0  0  0  0
    4.6864   -4.8365    5.3664 C   0  0  0  0  0  0  0  0  0  0  0  0
    5.7701   -4.2413    5.9570 O   0  0  0  0  0  0  0  0  0  0  0  0
    5.6945   -2.8772    6.2885 C   0  0  0  0  0  0  0  0  0  0  0  0
    4.7961   -6.2213    5.0293 C   0  0  0  0  0  0  0  0  0  0  0  0
    5.8743   -7.0265    5.2370 O   0  0  0  0  0  0  0  0  0  0  0  0
    7.1139   -6.5257    5.6829 C   0  0  0  0  0  0  0  0  0  0  0  0
    3.7263   -6.8626    4.4423 C   0  0  0  0  0  0  0  0  0  0  0  0
    2.5271   -6.1926    4.1760 C   0  0  0  0  0  0  0  0  0  0  0  0
    1.3670   -6.7086    3.5490 C   0  0  0  0  0  0  0  0  0  0  0  0
    1.2027   -8.0483    3.1728 C   0  0  0  0  0  0  0  0  0  0  0  0
    0.3917   -8.6767    2.2581 C   0  0  0  0  0  0  0  0  0  0  0  0
   -0.3765   -8.2040    1.1877 C   0  0  0  0  0  0  0  0  0  0  0  0
   -0.5413   -6.5356    0.7232 S   0  0  0  0  0  0  0  0  0  0  0  0
   -0.9765   -9.0340    0.2074 C   0  0  0  0  0  0  0  0  0  0  0  0
   -1.0973  -10.4357    0.2357 C   0  0  0  0  0  0  0  0  0  0  0  0
   -1.6893  -11.0991   -0.8073 C   0  0  0  0  0  0  0  0  0  0  0  0
   -1.8642  -12.4445   -0.8856 O   0  0  0  0  0  0  0  0  0  0  0  0
   -1.4006  -13.2421    0.1739 C   0  0  0  0  0  0  0  0  0  0  0  0
   -2.1883  -10.3716   -1.9378 C   0  0  0  0  0  0  0  0  0  0  0  0
   -2.7455  -11.1463   -2.9043 O   0  0  0  0  0  0  0  0  0  0  0  0
   -3.2507  -10.5148   -4.0537 C   0  0  0  0  0  0  0  0  0  0  0  0
   -2.0838   -9.0067   -1.9752 C   0  0  0  0  0  0  0  0  0  0  0  0
   -1.4799   -8.3173   -0.9072 C   0  0  0  0  0  0  0  0  0  0  0  0
   -1.3198   -6.9234   -0.7873 C   0  0  0  0  0  0  0  0  0  0  0  0
   -1.6771   -5.9341   -1.7100 C   0  0  0  0  0  0  0  0  0  0  0  0
   -1.6967   -4.5905   -1.4541 C   0  0  0  0  0  0  0  0  0  0  0  0
   -1.9948   -3.6056   -2.4069 C   0  0  0  0  0  0  0  0  0  0  0  0
   -2.0224   -3.9545   -4.1106 S   0  0  0  0  0  0  0  0  0  0  0  0
   -2.2945   -2.2491   -2.1922 C   0  0  0  0  0  0  0  0  0  0  0  0
   -2.4276   -1.6035   -0.9496 C   0  0  0  0  0  0  0  0  0  0  0  0
   -2.8149   -0.2916   -0.9010 C   0  0  0  0  0  0  0  0  0  0  0  0
   -2.9858    0.4302    0.2345 O   0  0  0  0  0  0  0  0  0  0  0  0
   -2.7147   -0.1951    1.4630 C   0  0  0  0  0  0  0  0  0  0  0  0
   -3.1244    0.4194   -2.1087 C   0  0  0  0  0  0  0  0  0  0  0  0
   -3.5271    1.7026   -1.9138 O   0  0  0  0  0  0  0  0  0  0  0  0
   -3.7165    2.5143   -3.0448 C   0  0  0  0  0  0  0  0  0  0  0  0
   -3.0094   -0.1990   -3.3239 C   0  0  0  0  0  0  0  0  0  0  0  0
   -2.5267   -1.5243   -3.3953 C   0  0  0  0  0  0  0  0  0  0  0  0
   -2.3151   -2.2874   -4.5474 C   0  0  0  0  0  0  0  0  0  0  0  0
   -2.2865   -1.9843   -5.9342 C   0  0  0  0  0  0  0  0  0  0  0  0
   -1.8198   -0.9031   -6.6123 C   0  0  0  0  0  0  0  0  0  0  0  0
   -1.1084    0.2568   -6.1956 C   0  0  0  0  0  0  0  0  0  0  0  0
   -0.6364    1.2142   -7.0605 C   0  0  0  0  0  0  0  0  0  0  0  0
    0.0614    2.2746   -6.4375 C   0  0  0  0  0  0  0  0  0  0  0  0
    0.6481    3.4073   -7.0283 C   0  0  0  0  0  0  0  0  0  0  0  0
    0.5907    3.6393   -8.4764 C   0  0  0  0  0  0  0  0  0  0  0  0
    1.7474    3.9006   -9.2083 C   0  0  0  0  0  0  0  0  0  0  0  0
    1.6823    4.1373  -10.5648 C   0  0  0  0  0  0  0  0  0  0  0  0
    0.4676    4.1192  -11.2457 C   0  0  0  0  0  0  0  0  0  0  0  0
    0.5022    4.3927  -12.9955 S   0  0  0  0  0  0  0  0  0  0  0  0
   -0.9119    5.5217  -13.2776 C   0  0  0  0  0  0  0  0  0  0  0  0
   -0.7860    6.7986  -12.4713 C   0  0  0  0  0  0  0  0  0  0  0  0
   -0.6764    3.8350  -10.5075 C   0  0  0  0  0  0  0  0  0  0  0  0
   -1.8886    3.7694  -11.1050 F   0  0  0  0  0  0  0  0  0  0  0  0
   -0.6283    3.6114   -9.1467 C   0  0  0  0  0  0  0  0  0  0  0  0
    1.2733    4.3020   -6.1714 C   0  0  0  0  0  0  0  0  0  0  0  0
    1.2427    4.1782   -4.7618 C   0  0  0  0  0  0  0  0  0  0  0  0
    0.6123    3.0742   -4.1652 C   0  0  0  0  0  0  0  0  0  0  0  0
    0.3465    3.0107   -2.7235 C   0  0  0  0  0  0  0  0  0  0  0  0
    0.5007    1.8445   -1.9751 C   0  0  0  0  0  0  0  0  0  0  0  0
    0.1052    1.7981   -0.6558 C   0  0  0  0  0  0  0  0  0  0  0  0
   -0.4476    2.9075   -0.0166 C   0  0  0  0  0  0  0  0  0  0  0  0
   -0.9096    2.7082    1.6719 S   0  0  0  0  0  0  0  0  0  0  0  0
   -2.3189    3.8423    1.9459 C   0  0  0  0  0  0  0  0  0  0  0  0
   -3.4508    3.6396    0.9596 C   0  0  0  0  0  0  0  0  0  0  0  0
   -0.5406    4.0802   -0.7583 C   0  0  0  0  0  0  0  0  0  0  0  0
   -0.1773    4.1338   -2.0874 C   0  0  0  0  0  0  0  0  0  0  0  0
   -0.9995    5.2275   -0.2022 F   0  0  0  0  0  0  0  0  0  0  0  0
    0.1171    2.1071   -5.0305 C   0  0  0  0  0  0  0  0  0  0  0  0
   -0.6271    0.6094   -4.5467 S   0  0  0  0  0  0  0  0  0  0  0  0
    1.9210    5.2605   -4.1249 C   0  0  0  0  0  0  0  0  0  0  0  0
    2.4159    6.1596   -4.9984 C   0  0  0  0  0  0  0  0  0  0  0  0
    2.0953    5.7659   -6.6544 S   0  0  0  0  0  0  0  0  0  0  0  0
    4.2067    2.1166    2.0425 H   0  0  0  0  0  0  0  0  0  0  0  0
    5.8817    4.2498    2.8162 H   0  0  0  0  0  0  0  0  0  0  0  0
    7.8559    7.4783    4.7489 H   0  0  0  0  0  0  0  0  0  0  0  0
    6.2347    8.1887    4.9455 H   0  0  0  0  0  0  0  0  0  0  0  0
    6.7898    6.9124    6.0581 H   0  0  0  0  0  0  0  0  0  0  0  0
    3.6312    8.4795    7.2007 H   0  0  0  0  0  0  0  0  0  0  0  0
    2.3531    7.7937    6.1670 H   0  0  0  0  0  0  0  0  0  0  0  0
    3.0471    6.8237    7.4992 H   0  0  0  0  0  0  0  0  0  0  0  0
    2.1735    5.5438    5.8307 H   0  0  0  0  0  0  0  0  0  0  0  0
    0.4124    4.4559    5.3699 H   0  0  0  0  0  0  0  0  0  0  0  0
   -1.4932    3.2366    5.5011 H   0  0  0  0  0  0  0  0  0  0  0  0
   -3.5002    2.5118    5.0567 H   0  0  0  0  0  0  0  0  0  0  0  0
   -7.0230    0.6867    3.5807 H   0  0  0  0  0  0  0  0  0  0  0  0
   -7.6549    1.9947    4.6111 H   0  0  0  0  0  0  0  0  0  0  0  0
   -7.4255    0.3626    5.2862 H   0  0  0  0  0  0  0  0  0  0  0  0
   -5.4332   -3.0065    3.5550 H   0  0  0  0  0  0  0  0  0  0  0  0
   -5.3551   -3.1953    5.3306 H   0  0  0  0  0  0  0  0  0  0  0  0
   -6.9264   -2.9667    4.5238 H   0  0  0  0  0  0  0  0  0  0  0  0
   -3.4083   -2.3893    4.4415 H   0  0  0  0  0  0  0  0  0  0  0  0
   -1.3264   -3.2092    4.0720 H   0  0  0  0  0  0  0  0  0  0  0  0
    1.4971   -2.2449    4.7373 H   0  0  0  0  0  0  0  0  0  0  0  0
    3.4203   -3.1205    5.3414 H   0  0  0  0  0  0  0  0  0  0  0  0
    5.5336   -2.2543    5.4030 H   0  0  0  0  0  0  0  0  0  0  0  0
    4.9034   -2.6831    7.0198 H   0  0  0  0  0  0  0  0  0  0  0  0
    6.6600   -2.6332    6.7296 H   0  0  0  0  0  0  0  0  0  0  0  0
    7.7852   -7.3845    5.6650 H   0  0  0  0  0  0  0  0  0  0  0  0
    7.0528   -6.1338    6.7002 H   0  0  0  0  0  0  0  0  0  0  0  0
    7.5004   -5.7495    5.0191 H   0  0  0  0  0  0  0  0  0  0  0  0
    3.8504   -7.9044    4.1957 H   0  0  0  0  0  0  0  0  0  0  0  0
    1.8839   -8.7127    3.6931 H   0  0  0  0  0  0  0  0  0  0  0  0
    0.4515   -9.7578    2.2858 H   0  0  0  0  0  0  0  0  0  0  0  0
   -0.7296  -10.9801    1.0894 H   0  0  0  0  0  0  0  0  0  0  0  0
   -1.6414  -14.2672   -0.1030 H   0  0  0  0  0  0  0  0  0  0  0  0
   -1.9028  -12.9942    1.1152 H   0  0  0  0  0  0  0  0  0  0  0  0
   -0.3173  -13.1478    0.3052 H   0  0  0  0  0  0  0  0  0  0  0  0
   -2.4661   -9.9739   -4.5934 H   0  0  0  0  0  0  0  0  0  0  0  0
   -4.0640   -9.8234   -3.8089 H   0  0  0  0  0  0  0  0  0  0  0  0
   -3.6355  -11.3151   -4.6836 H   0  0  0  0  0  0  0  0  0  0  0  0
   -2.4598   -8.4426   -2.8122 H   0  0  0  0  0  0  0  0  0  0  0  0
   -1.9736   -6.2690   -2.6959 H   0  0  0  0  0  0  0  0  0  0  0  0
   -1.4847   -4.2532   -0.4482 H   0  0  0  0  0  0  0  0  0  0  0  0
   -2.2288   -2.1600   -0.0492 H   0  0  0  0  0  0  0  0  0  0  0  0
   -1.6683   -0.5063    1.5363 H   0  0  0  0  0  0  0  0  0  0  0  0
   -3.3625   -1.0628    1.6247 H   0  0  0  0  0  0  0  0  0  0  0  0
   -2.9164    0.5511    2.2281 H   0  0  0  0  0  0  0  0  0  0  0  0
   -4.5570    2.1681   -3.6555 H   0  0  0  0  0  0  0  0  0  0  0  0
   -2.8125    2.5563   -3.6608 H   0  0  0  0  0  0  0  0  0  0  0  0
   -3.9396    3.5089   -2.6617 H   0  0  0  0  0  0  0  0  0  0  0  0
   -3.2982    0.2937   -4.2370 H   0  0  0  0  0  0  0  0  0  0  0  0
   -2.6115   -2.8110   -6.5579 H   0  0  0  0  0  0  0  0  0  0  0  0
   -1.9332   -0.9428   -7.6899 H   0  0  0  0  0  0  0  0  0  0  0  0
   -0.7856    1.1525   -8.1236 H   0  0  0  0  0  0  0  0  0  0  0  0
    2.7042    3.9089   -8.7101 H   0  0  0  0  0  0  0  0  0  0  0  0
    2.5799    4.3411  -11.1275 H   0  0  0  0  0  0  0  0  0  0  0  0
   -1.8367    4.9917  -13.0606 H   0  0  0  0  0  0  0  0  0  0  0  0
   -0.8616    5.7244  -14.3474 H   0  0  0  0  0  0  0  0  0  0  0  0
   -1.6053    7.4708  -12.7184 H   0  0  0  0  0  0  0  0  0  0  0  0
    0.1554    7.2977  -12.6912 H   0  0  0  0  0  0  0  0  0  0  0  0
   -0.8233    6.5883  -11.4038 H   0  0  0  0  0  0  0  0  0  0  0  0
   -1.5499    3.4257   -8.6168 H   0  0  0  0  0  0  0  0  0  0  0  0
    0.9374    0.9683   -2.4285 H   0  0  0  0  0  0  0  0  0  0  0  0
    0.2167    0.8876   -0.0879 H   0  0  0  0  0  0  0  0  0  0  0  0
   -2.6294    3.5790    2.9575 H   0  0  0  0  0  0  0  0  0  0  0  0
   -1.9506    4.8669    1.9437 H   0  0  0  0  0  0  0  0  0  0  0  0
   -3.1842    4.0167   -0.0239 H   0  0  0  0  0  0  0  0  0  0  0  0
   -3.6936    2.5859    0.8559 H   0  0  0  0  0  0  0  0  0  0  0  0
   -4.3317    4.1775    1.3051 H   0  0  0  0  0  0  0  0  0  0  0  0
   -0.3259    5.0578   -2.6251 H   0  0  0  0  0  0  0  0  0  0  0  0
    2.0486    5.3326   -3.0600 H   0  0  0  0  0  0  0  0  0  0  0  0
    2.9714    7.0517   -4.7846 H   0  0  0  0  0  0  0  0  0  0  0  0
  1  2  1  0  0  0  0
  1  3  2  0  0  0  0
  3  4  1  0  0  0  0
  4  5  2  0  0  0  0
  5  6  1  0  0  0  0
  6  7  1  0  0  0  0
  5  8  1  0  0  0  0
  8  9  1  0  0  0  0
  9 10  1  0  0  0  0
  8 11  2  0  0  0  0
 11 12  1  0  0  0  0
 12 13  2  0  0  0  0
 13 14  1  0  0  0  0
 14 15  2  0  0  0  0
 15 16  1  0  0  0  0
 16 17  1  0  0  0  0
 16 18  2  0  0  0  0
 18 19  1  0  0  0  0
 19 20  2  0  0  0  0
 20 21  1  0  0  0  0
 21 22  1  0  0  0  0
 20 23  1  0  0  0  0
 23 24  1  0  0  0  0
 24 25  1  0  0  0  0
 23 26  2  0  0  0  0
 26 27  1  0  0  0  0
 27 28  2  0  0  0  0
 28 29  1  0  0  0  0
 29 30  2  0  0  0  0
 30 31  1  0  0  0  0
 31 32  1  0  0  0  0
 31 33  2  0  0  0  0
 33 34  1  0  0  0  0
 34 35  2  0  0  0  0
 35 36  1  0  0  0  0
 36 37  1  0  0  0  0
 35 38  1  0  0  0  0
 38 39  1  0  0  0  0
 39 40  1  0  0  0  0
 38 41  2  0  0  0  0
 41 42  1  0  0  0  0
 42 43  2  0  0  0  0
 43 44  1  0  0  0  0
 44 45  2  0  0  0  0
 45 46  1  0  0  0  0
 46 47  1  0  0  0  0
 46 48  2  0  0  0  0
 48 49  1  0  0  0  0
 49 50  2  0  0  0  0
 50 51  1  0  0  0  0
 51 52  1  0  0  0  0
 50 53  1  0  0  0  0
 53 54  1  0  0  0  0
 54 55  1  0  0  0  0
 53 56  2  0  0  0  0
 56 57  1  0  0  0  0
 57 58  2  0  0  0  0
 58 59  1  0  0  0  0
 59 60  2  0  0  0  0
 60 61  1  0  0  0  0
 61 62  1  0  0  0  0
 61 63  2  0  0  0  0
 63 64  1  0  0  0  0
 64 65  2  0  0  0  0
 65 66  1  0  0  0  0
 66 67  1  0  0  0  0
 65 68  1  0  0  0  0
 68 69  1  0  0  0  0
 69 70  1  0  0  0  0
 68 71  2  0  0  0  0
 71 72  1  0  0  0  0
 72 73  2  0  0  0  0
 73 74  1  0  0  0  0
 74 75  2  0  0  0  0
 75 76  1  0  0  0  0
 76 77  2  0  0  0  0
 77 78  1  0  0  0  0
 78 79  2  0  0  0  0
 79 80  1  0  0  0  0
 80 81  2  0  0  0  0
 81 82  1  0  0  0  0
 82 83  2  0  0  0  0
 83 84  1  0  0  0  0
 84 85  1  0  0  0  0
 85 86  1  0  0  0  0
 83 87  1  0  0  0  0
 87 88  1  0  0  0  0
 87 89  2  0  0  0  0
 79 90  1  0  0  0  0
 90 91  2  0  0  0  0
 91 92  1  0  0  0  0
 92 93  1  0  0  0  0
 93 94  2  0  0  0  0
 94 95  1  0  0  0  0
 95 96  2  0  0  0  0
 96 97  1  0  0  0  0
 97 98  1  0  0  0  0
 98 99  1  0  0  0  0
 96100  1  0  0  0  0
100101  2  0  0  0  0
100102  1  0  0  0  0
 92103  2  0  0  0  0
103104  1  0  0  0  0
 91105  1  0  0  0  0
105106  2  0  0  0  0
106107  1  0  0  0  0
 13  2  1  0  0  0  0
 28 17  1  0  0  0  0
 43 32  1  0  0  0  0
 58 47  1  0  0  0  0
 73 62  1  0  0  0  0
104 76  1  0  0  0  0
 12  3  1  0  0  0  0
 27 18  1  0  0  0  0
 42 33  1  0  0  0  0
 57 48  1  0  0  0  0
 72 63  1  0  0  0  0
103 78  1  0  0  0  0
 89 80  1  0  0  0  0
107 90  1  0  0  0  0
101 93  1  0  0  0  0
  1108  1  0  0  0  0
  4109  1  0  0  0  0
  7110  1  0  0  0  0
  7111  1  0  0  0  0
  7112  1  0  0  0  0
 10113  1  0  0  0  0
 10114  1  0  0  0  0
 10115  1  0  0  0  0
 11116  1  0  0  0  0
 14117  1  0  0  0  0
 15118  1  0  0  0  0
 19119  1  0  0  0  0
 22120  1  0  0  0  0
 22121  1  0  0  0  0
 22122  1  0  0  0  0
 25123  1  0  0  0  0
 25124  1  0  0  0  0
 25125  1  0  0  0  0
 26126  1  0  0  0  0
 29127  1  0  0  0  0
 30128  1  0  0  0  0
 34129  1  0  0  0  0
 37130  1  0  0  0  0
 37131  1  0  0  0  0
 37132  1  0  0  0  0
 40133  1  0  0  0  0
 40134  1  0  0  0  0
 40135  1  0  0  0  0
 41136  1  0  0  0  0
 44137  1  0  0  0  0
 45138  1  0  0  0  0
 49139  1  0  0  0  0
 52140  1  0  0  0  0
 52141  1  0  0  0  0
 52142  1  0  0  0  0
 55143  1  0  0  0  0
 55144  1  0  0  0  0
 55145  1  0  0  0  0
 56146  1  0  0  0  0
 59147  1  0  0  0  0
 60148  1  0  0  0  0
 64149  1  0  0  0  0
 67150  1  0  0  0  0
 67151  1  0  0  0  0
 67152  1  0  0  0  0
 70153  1  0  0  0  0
 70154  1  0  0  0  0
 70155  1  0  0  0  0
 71156  1  0  0  0  0
 74157  1  0  0  0  0
 75158  1  0  0  0  0
 77159  1  0  0  0  0
 81160  1  0  0  0  0
 82161  1  0  0  0  0
 85162  1  0  0  0  0
 85163  1  0  0  0  0
 86164  1  0  0  0  0
 86165  1  0  0  0  0
 86166  1  0  0  0  0
 89167  1  0  0  0  0
 94168  1  0  0  0  0
 95169  1  0  0  0  0
 98170  1  0  0  0  0
 98171  1  0  0  0  0
 99172  1  0  0  0  0
 99173  1  0  0  0  0
 99174  1  0  0  0  0
101175  1  0  0  0  0
105176  1  0  0  0  0
106177  1  0  0  0  0
M  END
