124

C          2.74470        6.87930       -2.29160
S          4.06670        7.93620       -2.06460
C          4.53510        7.80260       -3.69960
C          3.69160        6.97710       -4.41170
C          2.65280        6.41640       -3.58240
C          1.66740        5.54840       -4.15990
C          1.71160        5.37410       -5.52850
C          2.71930        5.91670       -6.33710
C          3.72110        6.68450       -5.80470
O          4.70270        7.16310       -6.61720
C          0.66410        4.86030       -3.39310
C          0.79380        4.44770       -2.11040
C         -0.17140        3.74330       -1.34800
S          0.40350        2.78600       -0.01260
C         -1.56250        3.62470       -1.46740
C         -2.42220        4.30270       -2.35960
C         -3.76350        4.03470       -2.35860
O         -4.68200        4.61980       -3.17200
C         -4.23890        5.58450       -4.09190
C         -4.31270        3.06570       -1.45000
O         -5.64750        2.85610       -1.58570
C         -6.25160        1.88920       -0.76290
C         -3.50570        2.45030       -0.53390
C         -2.12480        2.72930       -0.51360
C         -1.17460        2.16720        0.35360
C         -1.38670        1.18220        1.32960
C         -0.39810        0.49990        1.97320
C         -0.62200       -0.57770        2.84340
S         -2.22580       -1.06980        3.29900
C          0.33010       -1.46230        3.37400
C          1.72230       -1.42630        3.19210
C          2.52860       -2.41020        3.70490
O          3.88730       -2.42590        3.53850
C          4.48430       -1.41590        2.76560
C          1.94790       -3.48200        4.45930
O          2.61480       -4.51560        5.04070
C          3.97490       -4.77850        4.77730
C          0.58760       -3.51110        4.65740
C         -0.25420       -2.52640        4.11540
C         -1.65660       -2.46620        4.15250
C         -2.50880       -3.38620        4.80610
C         -3.85680       -3.39100        4.87780
C         -4.80310       -2.47340        4.28160
S         -5.82950       -1.62020        5.39800
C         -6.73200       -0.89770        4.15010
C         -6.30470       -1.31290        2.91270
C         -5.18630       -2.21880        2.97150
C         -4.68320       -2.76910        1.75030
C         -5.36090       -2.48500        0.59210
C         -6.45860       -1.60430        0.53720
C         -6.91110       -0.98780        1.66610
O         -7.94740       -0.10380        1.68240
C         -3.54800       -3.68660        1.71860
C         -2.41700       -3.57330        1.00020
C         -1.94150       -2.49120        0.18390
S         -3.01920       -1.36290       -0.57870
C         -1.75920       -0.51960       -1.33880
C         -0.53150       -1.03930       -1.00560
C         -0.61430       -2.17720       -0.13010
C          0.60640       -2.79750        0.28660
C          1.78830       -2.24400       -0.14850
C          1.86170       -1.13070       -0.99970
C          0.71980       -0.53100       -1.44750
O          0.69920        0.53960       -2.28450
C          0.65220       -3.91420        1.21560
C          1.52100       -4.93820        1.22020
C          2.55790       -5.24450        0.27060
S          4.03310       -5.86550        0.95530
C          4.86260       -5.77560       -0.52650
C          4.04760       -5.31270       -1.53280
C          2.69920       -5.05360       -1.10100
C          1.73350       -4.64820       -2.07360
C          2.18750       -4.33550       -3.33170
C          3.52400       -4.51350       -3.73350
C          4.44250       -5.04400       -2.87350
O          5.73080       -5.31720       -3.21660
C          0.29140       -4.66820       -1.86080
C         -0.36080       -5.58830       -1.16230
H          2.08590        6.69890       -1.46760
H          5.38920        8.35700       -4.03800
H          0.96180        4.75430       -5.99860
H          2.72660        5.71900       -7.39700
H          5.32420        7.69360       -6.10730
H         -0.21290        4.56200       -3.94990
H          1.75130        4.57150       -1.62090
H         -2.00880        5.04820       -3.01590
H         -3.78610        6.44510       -3.58810
H         -5.12840        5.90890       -4.62950
H         -3.52010        5.16300       -4.80280
H         -5.78630        0.90580       -0.89280
H         -6.20620        2.17100        0.29450
H         -7.29260        1.85050       -1.08120
H         -3.90550        1.74490        0.17520
H         -2.41380        0.90840        1.53160
H          0.63160        0.74980        1.75490
H          2.14320       -0.61310        2.62590
H          4.08930       -1.40350        1.74500
H          4.35030       -0.42820        3.21860
H          5.54560       -1.65980        2.74050
H          4.18060       -5.72100        5.28530
H          4.16530       -4.89450        3.70810
H          4.62530       -3.99960        5.18010
H          0.18720       -4.33220        5.22950
H         -1.98720       -4.16740        5.34310
H         -4.30940       -4.11340        5.54820
H         -7.53690       -0.22730        4.37090
H         -5.06460       -2.97980       -0.32030
H         -6.94080       -1.42300       -0.41400
H         -8.30600       -0.01510        0.79120
H         -3.64240       -4.55100        2.36520
H         -1.70860       -4.38660        1.07720
H         -1.96060        0.31950       -1.97260
H          2.71590       -2.67440        0.19630
H          2.83060       -0.75220       -1.29810
H          1.60260        0.81900       -2.47760
H         -0.04490       -3.86690        2.03790
H          1.50380       -5.59870        2.08000
H          5.89970       -6.03270       -0.59260
H          1.47880       -3.98980       -4.07040
H          3.80790       -4.27070       -4.74900
H          5.86730       -5.10340       -4.14770
H         -0.26600       -3.93040       -2.42470
H         -1.43600       -5.59680       -1.11120
H          0.15200       -6.37030       -0.62910
