92

C          5.05070        3.33970       -3.10060
S          5.85010        2.94680       -4.54680
C          4.97560        2.27460       -2.22320
C          4.38430        2.25370       -0.94030
C          4.43590        1.10990       -0.18740
O          3.91100        0.94630        1.03590
C          3.14700        2.00070        1.58940
C          5.14330       -0.04630       -0.68510
O          5.17370       -1.08420        0.16760
C          5.80880       -2.27670       -0.22690
C          5.70940       -0.04000       -1.94020
C          5.58430        1.09720       -2.75610
C          6.03700        1.26580       -4.07500
C          6.56940        0.37260       -5.01930
C          6.33880       -0.97410       -5.19640
C          5.30610       -1.77340       -4.69380
S          3.96200       -1.14070       -3.80760
C          5.13340       -3.16890       -4.92660
C          6.00110       -4.02450       -5.62230
C          5.68870       -5.35690       -5.76170
O          6.43570       -6.27150       -6.41520
C          7.62950       -5.85650       -7.03530
C          4.48190       -5.87870       -5.18890
O          4.28500       -7.19280       -5.39900
C          3.11490       -7.79650       -4.89490
C          3.63480       -5.04540       -4.49130
C          3.94840       -3.68870       -4.35610
C          3.19130       -2.70690       -3.65960
C          2.06340       -2.84780       -2.87930
C          1.52250       -1.79820       -2.14720
C          0.41470       -1.88860       -1.33250
C         -0.16570       -0.88640       -0.54150
C         -1.29470       -1.42590        0.09090
C         -1.39580       -2.82660       -0.32140
O         -2.16030       -3.70210       -0.05800
O         -0.31880       -3.03360       -1.18490
C         -1.86960       -0.40270        0.84800
O         -1.11150        0.72880        0.70940
C         -0.04490        0.49890       -0.13800
O          0.76660        1.34450       -0.41260
C         -3.02950       -0.36660        1.61480
C         -3.63700        0.68560        2.30060
C         -4.84020        0.19250        2.84420
C         -4.94080       -1.22380        2.48730
O         -5.75330       -2.06230        2.71830
O         -3.79320       -1.48710        1.73740
C         -5.47580        1.25630        3.47570
O         -4.70520        2.37290        3.36290
C         -3.53970        2.09940        2.64600
O         -2.71010        2.93050        2.43390
C         -6.71550        1.32630        4.12010
C         -7.39470        2.40440        4.67430
C         -8.63620        1.91700        5.15080
C         -8.68000        0.47940        4.87620
O         -9.49520       -0.36060        5.09110
O         -7.46810        0.19920        4.24340
C         -9.32930        2.99630        5.67040
O         -8.58040        4.12350        5.54970
C         -7.35430        3.83900        4.93520
O         -6.53920        4.68300        4.72800
C        -10.61320        3.07750        6.24570
C        -11.31750        4.15730        6.73280
C        -12.58520        3.65800        7.18820
C        -12.59160        2.21640        6.94500
O        -13.40810        1.37340        7.15140
O        -11.35400        1.94010        6.36900
C        -13.28400        4.72030        7.66170
O        -12.57700        5.85430        7.55110
C        -11.31470        5.59070        6.97040
O        -10.52280        6.46140        6.77900
H          4.66350        4.32920       -2.95630
H          3.89120        3.14080       -0.58220
H          3.75650        2.89730        1.73450
H          2.80580        1.63610        2.55590
H          2.28480        2.22910        0.95800
H          5.67780       -2.96730        0.60390
H          5.34670       -2.69810       -1.12580
H          6.87760       -2.12290       -0.40470
H          6.27820       -0.88160       -2.29880
H          7.22310        0.83220       -5.75210
H          6.98570       -1.46820       -5.90960
H          6.90770       -3.62840       -6.04770
H          7.44020       -5.10050       -7.80390
H          8.34620       -5.46590       -6.30580
H          8.04150       -6.74910       -7.50210
H          3.16970       -8.83920       -5.20130
H          2.21520       -7.34060       -5.31860
H          3.07400       -7.74110       -3.80300
H          2.72520       -5.42050       -4.05390
H          1.59260       -3.81770       -2.80410
H          1.99120       -0.82410       -2.18010
H        -14.26640        4.79680        8.09020
