202

C          0.13470       -2.01780        5.42950
S          1.04350       -2.37180        4.03230
C          0.91820       -1.97360        6.55880
C          0.49260       -1.76820        7.89470
C          1.41710       -1.71910        8.89230
O          1.14510       -1.54500       10.21630
C         -0.20310       -1.48200       10.60960
C          2.82300       -1.81630        8.58580
O          3.63320       -1.61450        9.65690
C          5.02300       -1.56000        9.44190
C          3.24250       -2.07730        7.31230
C          2.30050       -2.19890        6.26720
C          2.53130       -2.48300        4.91320
C          3.79460       -2.82890        4.36490
C          4.24420       -3.05320        3.10830
C          3.61380       -3.04880        1.82010
C          4.25650       -2.66260        0.67560
C          3.45030       -2.68590       -0.48670
C          3.80020       -2.28810       -1.78960
C          5.12060       -1.73920       -2.11880
C          5.65910       -0.66730       -1.40960
C          6.88390       -0.13870       -1.75270
C          7.62860       -0.66040       -2.81040
S          9.20240        0.07590       -3.12370
C          9.42740       -0.10740       -4.93840
C         10.39380        0.95620       -5.42100
C          7.08740       -1.74130       -3.49950
F          7.76410       -2.32910       -4.51380
C          5.85200       -2.26530       -3.17780
C          2.81320       -2.40090       -2.75330
C          1.53600       -2.94000       -2.48110
C          1.22180       -3.44830       -1.20800
C          0.00710       -4.25060       -1.03730
C         -0.27500       -5.21600       -2.00790
C         -1.38440       -6.02280       -1.90610
C         -2.25860       -5.90500       -0.83050
S         -3.64370       -7.00040       -0.77050
C         -5.00560       -5.86810       -0.28270
C         -6.32270       -6.42460       -0.78540
C         -1.94610       -4.97120        0.15090
C         -0.84140       -4.14730        0.05880
F         -2.72050       -4.86260        1.25470
C          2.16860       -3.23070       -0.21850
S          1.99050       -3.60350        1.47420
C          0.65920       -2.79740       -3.58000
C          1.22240       -2.20310       -4.67100
S          2.92220       -1.83680       -4.40720
C          0.48830       -1.76790       -5.80840
S         -1.13790       -1.26570       -5.50040
C          0.80240       -1.64630       -7.15870
C          2.03250       -1.95440       -7.77760
C          2.16600       -1.80770       -9.12900
O          3.29220       -2.06440       -9.84120
C          4.42810       -2.51130       -9.14310
C          1.05470       -1.34740       -9.92020
O          1.32160       -1.25740      -11.24910
C          0.29830       -0.82380      -12.10820
C         -0.14180       -1.04320       -9.33060
C         -0.30130       -1.18450       -7.93630
C         -1.44100       -0.89850       -7.16330
C         -2.62470       -0.25530       -7.60210
C         -3.56480        0.40150       -6.87450
C         -3.69060        0.54120       -5.45560
S         -3.88570        2.16180       -4.84060
C         -3.72870       -0.37460       -4.40380
C         -3.76280       -1.78700       -4.50060
C         -3.83160       -2.54930       -3.36670
O         -3.83620       -3.90650       -3.32310
C         -3.66880       -4.61400       -4.52540
C         -3.95710       -1.92280       -2.07900
O         -4.10480       -2.77750       -1.03660
C         -4.23720       -2.22210        0.25370
C         -3.97280       -0.56110       -1.97410
C         -3.82420        0.24290       -3.12030
C         -3.86160        1.64270       -3.17920
C         -3.87620        2.60580       -2.14430
C         -3.40600        2.36680       -0.88610
C         -3.45260        3.17420        0.26860
S         -2.54570        2.57160        1.62330
C         -4.09540        4.37450        0.61840
C         -4.96620        5.15080       -0.17210
C         -5.51280        6.30210        0.32580
O         -6.36440        7.12210       -0.34260
C         -6.72380        6.78070       -1.65780
C         -5.20000        6.73060        1.65930
O         -5.79580        7.89330        2.02830
C         -5.55750        8.38620        3.32230
C         -4.37070        5.97840        2.44590
C         -3.81270        4.77990        1.95520
C         -2.94890        3.90580        2.65000
C         -2.55370        4.06750        4.00030
C         -1.56780        3.54440        4.78240
C         -0.45060        2.70330        4.51910
C          0.56450        2.46060        5.41550
C          1.63870        1.69710        4.89580
C          2.86380        1.34120        5.49550
C          3.10850        1.54600        6.92410
C          2.12250        1.22910        7.85610
C          2.36040        1.31650        9.21270
C          3.60160        1.71320        9.69530
S          4.05460        1.76570       11.39440
C          2.82690        0.68210       12.20730
C          1.61090        1.44410       12.70300
C          4.56100        2.08760        8.75350
F          5.76520        2.52360        9.18090
C          4.33470        2.01190        7.39840
C          3.81250        0.76570        4.65740
C          3.59200        0.48760        3.28420
C          2.33370        0.72250        2.72330
C          1.90360        0.40630        1.35230
C          2.52910        0.90010        0.21390
C          1.93730        0.78680       -1.03340
C          0.68980        0.19210       -1.17840
S         -0.27480        0.11580       -2.65240
C          0.36750        1.49150       -3.66220
C          0.05500        2.83930       -3.04280
C          0.12150       -0.38120       -0.04250
C          0.70150       -0.28670        1.19750
F         -1.07280       -1.00120       -0.15230
C          1.40700        1.34500        3.54720
S         -0.13320        1.92090        2.98880
C          4.75450       -0.04200        2.65470
C          5.79010       -0.19830        3.50070
S          5.42390        0.27470        5.12420
H         -0.92490       -1.87580        5.35270
H         -0.56310       -1.65830        8.08270
H         -0.19140       -1.39220       11.69470
H         -0.74560       -2.38940       10.32690
H         -0.70920       -0.61140       10.17820
H          5.45940       -1.28680       10.40110
H          5.28130       -0.80140        8.69610
H          5.41830       -2.53090        9.12640
H          4.29280       -2.16680        7.09110
H          4.56060       -2.88470        5.12940
H          5.31550       -3.20300        3.02430
H          5.28690       -2.35330        0.66610
H          5.08830       -0.22500       -0.60850
H          7.29120        0.69880       -1.20750
H          9.81000       -1.10710       -5.13910
H          8.44760        0.01270       -5.39800
H         10.00830        1.94990       -5.20380
H         11.35830        0.84620       -4.93030
H         10.53630        0.86210       -6.49540
H          5.48250       -3.10560       -3.74480
H          0.39830       -5.34270       -2.84210
H         -1.59230       -6.76730       -2.65910
H         -4.78190       -4.90860       -0.74460
H         -5.00440       -5.78150        0.80350
H         -7.13380       -5.75560       -0.50470
H         -6.30590       -6.51720       -1.86880
H         -6.51610       -7.40630       -0.35750
H         -0.66130       -3.43090        0.84390
H         -0.37970       -3.07190       -3.54360
H          2.84550       -2.29730       -7.15920
H          4.24270       -3.46840       -8.64470
H          4.75840       -1.77730       -8.40070
H          5.20430       -2.64030       -9.89530
H         -0.02990        0.19210      -11.86330
H          0.73000       -0.83160      -13.10760
H         -0.56350       -1.49930      -12.08090
H         -0.97530       -0.69830       -9.91970
H         -2.71540       -0.17910       -8.67810
H         -4.25290        1.02200       -7.43850
H         -3.74730       -2.23370       -5.48130
H         -3.64290       -5.66580       -4.24560
H         -2.73050       -4.34350       -5.02120
H         -4.50300       -4.44150       -5.21370
H         -5.14300       -1.61190        0.33260
H         -4.31330       -3.06430        0.93740
H         -3.36350       -1.62060        0.51300
H         -4.13910       -0.08960       -1.02340
H         -4.22990        3.58810       -2.42220
H         -2.87290        1.43770       -0.73380
H         -5.21010        4.81430       -1.16330
H         -7.39540        7.56920       -1.99280
H         -7.24640        5.81900       -1.69600
H         -5.85020        6.74480       -2.31730
H         -6.12880        9.31010        3.39460
H         -5.90370        7.68590        4.09010
H         -4.49590        8.60330        3.48160
H         -4.13570        6.29460        3.44840
H         -3.17470        4.79250        4.51520
H         -1.56950        3.89220        5.81010
H          0.56700        2.88020        6.40590
H          1.16660        0.86830        7.51000
H          1.57700        1.04750        9.90010
H          2.57440       -0.11650       11.51120
H          3.37210        0.25520       13.04950
H          1.07610        1.91890       11.88350
H          0.93160        0.76280       13.21250
H          1.91170        2.22020       13.40350
H          5.11650        2.32550        6.72550
H          3.46190        1.43670        0.30740
H          2.44310        1.20020       -1.89190
H         -0.15050        1.37080       -4.61390
H          1.43420        1.34120       -3.82590
H          0.53520        2.94160       -2.07160
H         -1.01890        2.94850       -2.90670
H          0.40820        3.63710       -3.69320
H          0.20220       -0.72530        2.04620
H          4.78870       -0.28430        1.61060
H          6.77440       -0.56530        3.28510
