177

C          5.41030       -2.42510       10.83260
S          4.20200       -3.23920        9.94130
C          6.11180       -1.52500       10.06310
C          7.17290       -0.67690       10.46830
C          7.75260        0.15840        9.56050
O          8.76990        1.02090        9.81430
C          9.27620        1.08260       11.12350
C          7.29420        0.18160        8.19110
O          7.96480        1.05730        7.40080
C          7.58950        1.15950        6.05020
C          6.27130       -0.62760        7.78500
C          5.65390       -1.49880        8.70810
C          4.60040       -2.38710        8.47770
C          3.90640       -2.60160        7.26550
C          2.87110       -3.45350        7.08050
C          2.19400       -3.60910        5.84220
C          1.11970       -4.41160        5.57210
C          0.64980       -4.32310        4.23950
C         -0.44500       -4.98890        3.65490
C         -1.32080       -5.86460        4.44230
C         -1.64120       -7.14480        4.00230
C         -2.47950       -7.96450        4.73310
C         -3.02750       -7.53210        5.93480
S         -4.12740       -8.46100        6.95270
C         -3.93210      -10.17890        6.36540
C         -2.57420      -10.75600        6.71730
C         -2.70920       -6.24020        6.35720
F         -3.23790       -5.77930        7.50970
C         -1.87490       -5.41420        5.63940
C         -0.67890       -4.74540        2.31240
C          0.09870       -3.84470        1.54350
C          1.17780       -3.16000        2.13030
C          1.95390       -2.18880        1.35140
C          1.31280       -1.19690        0.60910
C          2.03750       -0.29470       -0.14000
C          3.42690       -0.34970       -0.17630
S          4.29830        0.80810       -1.20550
C          5.56220        1.47330       -0.06380
C          4.93580        2.08410        1.17340
C          4.05600       -1.34540        0.56350
C          3.34370       -2.24620        1.32740
F          5.40400       -1.46460        0.54090
C          1.43620       -3.43500        3.46190
S          2.69530       -2.70360        4.41960
C         -0.35730       -3.75080        0.21420
C         -1.47560       -4.49680       -0.05470
S         -1.98190       -5.41600        1.35560
C         -2.16430       -4.47290       -1.28960
S         -1.70120       -3.22400       -2.40640
C         -3.18300       -5.26220       -1.83050
C         -3.81800       -6.36910       -1.23170
C         -4.80030       -7.04000       -1.90590
O         -5.48660       -8.11000       -1.43060
C         -5.19200       -8.56210       -0.13240
C         -5.18220       -6.62820       -3.22930
O         -6.16560       -7.38290       -3.78580
C         -6.62490       -7.04000       -5.06830
C         -4.56830       -5.56000       -3.82520
C         -3.56130       -4.84920       -3.14160
C         -2.84340       -3.73100       -3.60620
C         -3.08470       -2.98670       -4.78180
C         -2.43200       -1.87670       -5.23420
C         -1.19000       -1.34420       -4.80060
S         -0.99510        0.38700       -4.72500
C          0.00950       -1.97660       -4.45260
C          0.28130       -3.36000       -4.50860
C          1.49810       -3.83380       -4.10040
O          1.85970       -5.14220       -4.07670
C          0.89310       -6.10160       -4.42270
C          2.51520       -2.92410       -3.65190
O          3.67480       -3.52380       -3.28350
C          4.74940       -2.71100       -2.88000
C          2.28120       -1.57390       -3.64500
C          1.02730       -1.07270       -4.04490
C          0.63140        0.27960       -4.11300
C          1.36280        1.36760       -3.60110
C          1.07090        2.70360       -3.58120
C          0.10910        3.42200       -4.32290
S         -0.62500        4.83370       -3.60950
C         -0.35810        3.25640       -5.63410
C          0.10290        2.32840       -6.58360
C         -0.45230        2.26380       -7.83780
O         -0.04230        1.36040       -8.78140
C          0.91270        0.39510       -8.41580
C         -1.49850        3.17260       -8.19670
O         -2.14820        3.23130       -9.39150
C         -1.94750        2.27380      -10.40550
C         -1.90410        4.12960       -7.29210
C         -1.34720        4.20570       -6.01000
C         -1.63060        5.14160       -4.99630
C         -2.57520        6.17670       -5.01570
C         -2.81030        7.02680       -3.97330
C         -3.76370        8.05680       -3.96440
S         -4.78180        8.39050       -5.33190
C         -4.06360        8.94380       -2.91730
C         -3.44220        8.99490       -1.65380
C         -3.82380        9.93750       -0.73950
O         -3.30640       10.08220        0.50740
C         -2.29720        9.19360        0.91610
C         -4.84030       10.89800       -1.07540
O         -5.09080       11.80670       -0.09650
C         -6.07360       12.78310       -0.32890
C         -5.46130       10.85340       -2.29140
C         -5.11120        9.85880       -3.23390
C         -5.63170        9.66630       -4.51560
C         -6.70170       10.29950       -5.22750
C         -7.73760       10.96450       -4.71220
H          5.54190       -2.64830       11.87250
H          7.49470       -0.71560       11.49610
H         10.06730        1.83010       11.09860
H          8.50580        1.39260       11.83750
H          9.69510        0.12110       11.43860
H          8.25010        1.90930        5.61790
H          6.54990        1.48780        5.94550
H          7.72380        0.20990        5.52180
H          5.92280       -0.61500        6.76580
H          4.24290       -2.01490        6.42000
H          2.50750       -4.05270        7.90490
H          0.68280       -5.05730        6.31250
H         -1.21720       -7.51280        3.08050
H         -2.70690       -8.94660        4.35160
H         -4.72730      -10.71520        6.88310
H         -4.13450      -10.20950        5.29550
H         -2.42230      -10.72490        7.79360
H         -2.51380      -11.79120        6.38650
H         -1.77480      -10.19140        6.24210
H         -1.67900       -4.41780        6.00360
H          0.23730       -1.11740        0.64040
H          1.53350        0.46960       -0.71070
H          6.26160        0.67730        0.18360
H          6.07600        2.22620       -0.66130
H          5.71020        2.53140        1.79370
H          4.21900        2.85520        0.89800
H          4.41880        1.32620        1.76040
H          3.88130       -3.00650        1.87160
H          0.12850       -3.16050       -0.54220
H         -3.51610       -6.66390       -0.24110
H         -5.86490       -9.39910        0.04630
H         -5.37170       -7.78300        0.61570
H         -4.15490       -8.90460       -0.05230
H         -5.82820       -7.11720       -5.81610
H         -7.40840       -7.75880       -5.30210
H         -7.04370       -6.02820       -5.08850
H         -4.84380       -5.24720       -4.81860
H         -3.97420       -3.27980       -5.32460
H         -2.94480       -1.28420       -5.98350
H         -0.48110       -4.01910       -4.88820
H          0.58480       -6.00510       -5.46930
H          1.37200       -7.06840       -4.27680
H          0.00950       -6.03220       -3.77890
H          4.49320       -2.11800       -1.99890
H          5.07020       -2.03990       -3.68330
H          5.55980       -3.39430       -2.63290
H          3.04870       -0.88350       -3.33660
H          2.24500        1.07540       -3.04490
H          1.63080        3.29920       -2.86930
H          0.92640        1.69110       -6.31190
H          0.57530       -0.20290       -7.56320
H          1.87930        0.85100       -8.17950
H          1.02320       -0.24790       -9.28790
H         -0.92950        2.30450      -10.79940
H         -2.17000        1.26240      -10.05860
H         -2.64950        2.54900      -11.19300
H         -2.66690        4.82280       -7.60680
H         -3.15600        6.28690       -5.92150
H         -2.22550        6.90140       -3.07140
H         -2.66460        8.28470       -1.42770
H         -1.40840        9.27470        0.28140
H         -2.64920        8.15660        0.91480
H         -2.04180        9.48660        1.93310
H         -7.05570       12.33130       -0.50500
H         -5.81290       13.42430       -1.17770
H         -6.11150       13.38410        0.57820
H         -6.19780       11.58860       -2.56230
H         -6.65630       10.16400       -6.30200
H         -7.89250       11.07550       -3.65450
H         -8.48850       11.39380       -5.35210
