
  xtb     03042221343D
 energy: -344.379844851947 gnorm: 0.000223821308 xtb: 6.4.1 (unknown)
202219  0     0  0            999 V2000
   10.6198   -2.4408    2.3993 C   0  0  0  0  0  0  0  0  0  0  0  0
    9.4329   -2.1215    1.8468 C   0  0  0  0  0  0  0  0  0  0  0  0
    8.3473   -2.2130    2.7686 C   0  0  0  0  0  0  0  0  0  0  0  0
    6.9887   -1.9472    2.5416 C   0  0  0  0  0  0  0  0  0  0  0  0
    6.4939   -1.5391    1.2182 C   0  0  0  0  0  0  0  0  0  0  0  0
    5.4917   -2.2712    0.5826 C   0  0  0  0  0  0  0  0  0  0  0  0
    5.0371   -1.9062   -0.6651 C   0  0  0  0  0  0  0  0  0  0  0  0
    5.5530   -0.7957   -1.3353 C   0  0  0  0  0  0  0  0  0  0  0  0
    4.8685   -0.4685   -2.9287 S   0  0  0  0  0  0  0  0  0  0  0  0
    5.2335    1.3007   -3.2648 C   0  0  0  0  0  0  0  0  0  0  0  0
    4.2829    1.8001   -4.3353 C   0  0  0  0  0  0  0  0  0  0  0  0
    6.5666   -0.0875   -0.6980 C   0  0  0  0  0  0  0  0  0  0  0  0
    7.1560    0.9825   -1.2865 F   0  0  0  0  0  0  0  0  0  0  0  0
    7.0273   -0.4400    0.5562 C   0  0  0  0  0  0  0  0  0  0  0  0
    6.1314   -2.1389    3.6132 C   0  0  0  0  0  0  0  0  0  0  0  0
    6.5570   -2.5939    4.8861 C   0  0  0  0  0  0  0  0  0  0  0  0
    7.9184   -2.8494    5.1148 C   0  0  0  0  0  0  0  0  0  0  0  0
    8.4027   -3.2923    6.4274 C   0  0  0  0  0  0  0  0  0  0  0  0
    9.2284   -4.4049    6.5525 C   0  0  0  0  0  0  0  0  0  0  0  0
    9.6866   -4.8221    7.7872 C   0  0  0  0  0  0  0  0  0  0  0  0
    9.3328   -4.1402    8.9452 C   0  0  0  0  0  0  0  0  0  0  0  0
    9.8587   -4.5484   10.5776 S   0  0  0  0  0  0  0  0  0  0  0  0
   10.5236   -6.2420   10.4239 C   0  0  0  0  0  0  0  0  0  0  0  0
    9.4357   -7.2688   10.1716 C   0  0  0  0  0  0  0  0  0  0  0  0
    8.5149   -3.0177    8.8041 C   0  0  0  0  0  0  0  0  0  0  0  0
    8.0500   -2.5930    7.5806 C   0  0  0  0  0  0  0  0  0  0  0  0
    8.1662   -2.3195    9.9049 F   0  0  0  0  0  0  0  0  0  0  0  0
    8.7784   -2.6540    4.0421 C   0  0  0  0  0  0  0  0  0  0  0  0
   10.5087   -2.8892    4.0685 S   0  0  0  0  0  0  0  0  0  0  0  0
    5.4651   -2.7780    5.7730 C   0  0  0  0  0  0  0  0  0  0  0  0
    4.2563   -2.4267    5.2448 C   0  0  0  0  0  0  0  0  0  0  0  0
    4.4142   -1.8442    3.5908 S   0  0  0  0  0  0  0  0  0  0  0  0
    2.9603   -2.6229    5.7969 C   0  0  0  0  0  0  0  0  0  0  0  0
    2.6955   -3.9471    6.8948 S   0  0  0  0  0  0  0  0  0  0  0  0
    1.7500   -2.0239    5.4484 C   0  0  0  0  0  0  0  0  0  0  0  0
    1.5448   -0.8798    4.6441 C   0  0  0  0  0  0  0  0  0  0  0  0
    0.2744   -0.4629    4.3618 C   0  0  0  0  0  0  0  0  0  0  0  0
   -0.0565    0.6200    3.6196 O   0  0  0  0  0  0  0  0  0  0  0  0
    0.9724    1.4591    3.1556 C   0  0  0  0  0  0  0  0  0  0  0  0
   -0.8622   -1.1802    4.8860 C   0  0  0  0  0  0  0  0  0  0  0  0
   -2.0642   -0.6880    4.4927 O   0  0  0  0  0  0  0  0  0  0  0  0
   -3.2185   -1.4033    4.8514 C   0  0  0  0  0  0  0  0  0  0  0  0
   -0.6814   -2.2450    5.7177 C   0  0  0  0  0  0  0  0  0  0  0  0
    0.6258   -2.6974    6.0115 C   0  0  0  0  0  0  0  0  0  0  0  0
    0.9716   -3.8144    6.7682 C   0  0  0  0  0  0  0  0  0  0  0  0
    0.1044   -4.8320    7.2972 C   0  0  0  0  0  0  0  0  0  0  0  0
   -0.9011   -5.4121    6.5983 C   0  0  0  0  0  0  0  0  0  0  0  0
   -1.1465   -5.2486    5.2016 C   0  0  0  0  0  0  0  0  0  0  0  0
    0.1377   -4.8354    4.1112 S   0  0  0  0  0  0  0  0  0  0  0  0
   -2.3500   -5.3697    4.4994 C   0  0  0  0  0  0  0  0  0  0  0  0
   -3.6226   -5.6807    5.0288 C   0  0  0  0  0  0  0  0  0  0  0  0
   -4.7135   -5.7218    4.2057 C   0  0  0  0  0  0  0  0  0  0  0  0
   -5.9860   -6.0027    4.5968 O   0  0  0  0  0  0  0  0  0  0  0  0
   -6.2172   -6.2938    5.9511 C   0  0  0  0  0  0  0  0  0  0  0  0
   -4.5757   -5.4613    2.7977 C   0  0  0  0  0  0  0  0  0  0  0  0
   -5.7276   -5.5935    2.0893 O   0  0  0  0  0  0  0  0  0  0  0  0
   -5.6511   -5.5322    0.6850 C   0  0  0  0  0  0  0  0  0  0  0  0
   -3.3589   -5.1188    2.2758 C   0  0  0  0  0  0  0  0  0  0  0  0
   -2.2286   -5.0508    3.1131 C   0  0  0  0  0  0  0  0  0  0  0  0
   -0.9308   -4.6533    2.7583 C   0  0  0  0  0  0  0  0  0  0  0  0
   -0.4927   -3.9893    1.5948 C   0  0  0  0  0  0  0  0  0  0  0  0
    0.6830   -3.3000    1.5620 C   0  0  0  0  0  0  0  0  0  0  0  0
    1.1512   -2.4258    0.5617 C   0  0  0  0  0  0  0  0  0  0  0  0
    2.2861   -1.2098    1.0671 S   0  0  0  0  0  0  0  0  0  0  0  0
    0.8038   -2.2304   -0.7830 C   0  0  0  0  0  0  0  0  0  0  0  0
   -0.0108   -3.0489   -1.5911 C   0  0  0  0  0  0  0  0  0  0  0  0
   -0.2651   -2.6983   -2.8894 C   0  0  0  0  0  0  0  0  0  0  0  0
   -1.0663   -3.3836   -3.7451 O   0  0  0  0  0  0  0  0  0  0  0  0
   -1.7473   -4.5116   -3.2540 C   0  0  0  0  0  0  0  0  0  0  0  0
    0.3465   -1.5270   -3.4575 C   0  0  0  0  0  0  0  0  0  0  0  0
    0.0236   -1.2928   -4.7560 O   0  0  0  0  0  0  0  0  0  0  0  0
    0.5441   -0.1385   -5.3631 C   0  0  0  0  0  0  0  0  0  0  0  0
    1.1783   -0.7513   -2.7013 C   0  0  0  0  0  0  0  0  0  0  0  0
    1.3969   -1.0619   -1.3425 C   0  0  0  0  0  0  0  0  0  0  0  0
    2.1752   -0.3424   -0.4307 C   0  0  0  0  0  0  0  0  0  0  0  0
    2.8216    0.9247   -0.5450 C   0  0  0  0  0  0  0  0  0  0  0  0
    2.3637    2.0115   -1.2080 C   0  0  0  0  0  0  0  0  0  0  0  0
    1.0527    2.1755   -1.7658 C   0  0  0  0  0  0  0  0  0  0  0  0
    0.6884    2.9797   -2.8086 C   0  0  0  0  0  0  0  0  0  0  0  0
   -0.6926    2.9173   -3.1284 C   0  0  0  0  0  0  0  0  0  0  0  0
   -1.3986    3.5875   -4.1427 C   0  0  0  0  0  0  0  0  0  0  0  0
   -0.7323    4.4532   -5.1227 C   0  0  0  0  0  0  0  0  0  0  0  0
    0.3883    4.0187   -5.8297 C   0  0  0  0  0  0  0  0  0  0  0  0
    0.9595    4.8143   -6.7998 C   0  0  0  0  0  0  0  0  0  0  0  0
    0.4478    6.0750   -7.0980 C   0  0  0  0  0  0  0  0  0  0  0  0
    1.2649    7.0184   -8.3534 S   0  0  0  0  0  0  0  0  0  0  0  0
   -0.1197    7.7463   -9.3059 C   0  0  0  0  0  0  0  0  0  0  0  0
   -1.0621    6.6852   -9.8378 C   0  0  0  0  0  0  0  0  0  0  0  0
   -0.6454    6.5127   -6.3574 C   0  0  0  0  0  0  0  0  0  0  0  0
   -1.1700    7.7425   -6.5584 F   0  0  0  0  0  0  0  0  0  0  0  0
   -1.2391    5.7194   -5.3979 C   0  0  0  0  0  0  0  0  0  0  0  0
   -2.7663    3.3647   -4.1983 C   0  0  0  0  0  0  0  0  0  0  0  0
   -3.4585    2.4840   -3.3309 C   0  0  0  0  0  0  0  0  0  0  0  0
   -2.7502    1.8024   -2.3306 C   0  0  0  0  0  0  0  0  0  0  0  0
   -3.3776    0.8467   -1.4078 C   0  0  0  0  0  0  0  0  0  0  0  0
   -4.4398    1.2061   -0.5863 C   0  0  0  0  0  0  0  0  0  0  0  0
   -4.9553    0.3226    0.3451 C   0  0  0  0  0  0  0  0  0  0  0  0
   -4.4334   -0.9591    0.4671 C   0  0  0  0  0  0  0  0  0  0  0  0
   -4.9250   -2.1708    1.6461 S   0  0  0  0  0  0  0  0  0  0  0  0
   -6.4154   -1.4664    2.4366 C   0  0  0  0  0  0  0  0  0  0  0  0
   -6.9194   -2.4663    3.4614 C   0  0  0  0  0  0  0  0  0  0  0  0
   -3.4044   -1.3204   -0.4036 C   0  0  0  0  0  0  0  0  0  0  0  0
   -2.8661   -0.4477   -1.3169 C   0  0  0  0  0  0  0  0  0  0  0  0
   -2.9314   -2.5880   -0.3541 F   0  0  0  0  0  0  0  0  0  0  0  0
   -1.3900    2.0517   -2.2503 C   0  0  0  0  0  0  0  0  0  0  0  0
   -0.3311    1.3589   -1.0585 S   0  0  0  0  0  0  0  0  0  0  0  0
   -4.8301    2.3803   -3.6595 C   0  0  0  0  0  0  0  0  0  0  0  0
   -5.2133    3.1446   -4.7288 C   0  0  0  0  0  0  0  0  0  0  0  0
   -3.8517    4.0426   -5.3839 S   0  0  0  0  0  0  0  0  0  0  0  0
   -6.5219    3.2300   -5.2738 C   0  0  0  0  0  0  0  0  0  0  0  0
   -7.7823    2.2866   -4.5414 S   0  0  0  0  0  0  0  0  0  0  0  0
   -7.0302    3.9600   -6.3508 C   0  0  0  0  0  0  0  0  0  0  0  0
   -6.3288    4.8386   -7.2049 C   0  0  0  0  0  0  0  0  0  0  0  0
   -6.9698    5.4523   -8.2425 C   0  0  0  0  0  0  0  0  0  0  0  0
   -6.3961    6.3153   -9.1152 O   0  0  0  0  0  0  0  0  0  0  0  0
   -5.0328    6.6212   -8.9510 C   0  0  0  0  0  0  0  0  0  0  0  0
   -8.3625    5.1840   -8.4955 C   0  0  0  0  0  0  0  0  0  0  0  0
   -8.8602    5.8124   -9.5903 O   0  0  0  0  0  0  0  0  0  0  0  0
  -10.2088    5.6019   -9.9246 C   0  0  0  0  0  0  0  0  0  0  0  0
   -9.0639    4.3540   -7.6699 C   0  0  0  0  0  0  0  0  0  0  0  0
   -8.4298    3.7457   -6.5604 C   0  0  0  0  0  0  0  0  0  0  0  0
   -8.9938    2.8753   -5.6309 C   0  0  0  0  0  0  0  0  0  0  0  0
  -10.3405    2.4192   -5.4294 C   0  0  0  0  0  0  0  0  0  0  0  0
  -11.4624    3.0387   -5.7950 C   0  0  0  0  0  0  0  0  0  0  0  0
   11.5848   -2.4515    1.9315 H   0  0  0  0  0  0  0  0  0  0  0  0
    9.3113   -1.8363    0.8176 H   0  0  0  0  0  0  0  0  0  0  0  0
    5.0730   -3.1382    1.0692 H   0  0  0  0  0  0  0  0  0  0  0  0
    4.2633   -2.4785   -1.1536 H   0  0  0  0  0  0  0  0  0  0  0  0
    5.0905    1.8460   -2.3347 H   0  0  0  0  0  0  0  0  0  0  0  0
    6.2696    1.3825   -3.5894 H   0  0  0  0  0  0  0  0  0  0  0  0
    4.5044    2.8397   -4.5674 H   0  0  0  0  0  0  0  0  0  0  0  0
    3.2540    1.7325   -3.9886 H   0  0  0  0  0  0  0  0  0  0  0  0
    4.3859    1.2112   -5.2443 H   0  0  0  0  0  0  0  0  0  0  0  0
    7.8012    0.1608    1.0091 H   0  0  0  0  0  0  0  0  0  0  0  0
    9.5056   -4.9655    5.6730 H   0  0  0  0  0  0  0  0  0  0  0  0
   10.3299   -5.6854    7.8362 H   0  0  0  0  0  0  0  0  0  0  0  0
   11.0022   -6.4141   11.3880 H   0  0  0  0  0  0  0  0  0  0  0  0
   11.2913   -6.2481    9.6511 H   0  0  0  0  0  0  0  0  0  0  0  0
    9.8707   -8.2655   10.1248 H   0  0  0  0  0  0  0  0  0  0  0  0
    8.7050   -7.2451   10.9766 H   0  0  0  0  0  0  0  0  0  0  0  0
    8.9193   -7.0701    9.2350 H   0  0  0  0  0  0  0  0  0  0  0  0
    7.4333   -1.7094    7.5288 H   0  0  0  0  0  0  0  0  0  0  0  0
    5.5653   -3.1756    6.7670 H   0  0  0  0  0  0  0  0  0  0  0  0
    2.4007   -0.3481    4.2642 H   0  0  0  0  0  0  0  0  0  0  0  0
    1.6520    0.9312    2.4807 H   0  0  0  0  0  0  0  0  0  0  0  0
    0.4742    2.2589    2.6101 H   0  0  0  0  0  0  0  0  0  0  0  0
    1.5450    1.8832    3.9873 H   0  0  0  0  0  0  0  0  0  0  0  0
   -4.0463   -0.8663    4.3927 H   0  0  0  0  0  0  0  0  0  0  0  0
   -3.3616   -1.4254    5.9375 H   0  0  0  0  0  0  0  0  0  0  0  0
   -3.1911   -2.4293    4.4669 H   0  0  0  0  0  0  0  0  0  0  0  0
   -1.5152   -2.7723    6.1505 H   0  0  0  0  0  0  0  0  0  0  0  0
    0.2990   -5.1633    8.3089 H   0  0  0  0  0  0  0  0  0  0  0  0
   -1.5721   -6.0808    7.1231 H   0  0  0  0  0  0  0  0  0  0  0  0
   -3.7077   -5.8890    6.0828 H   0  0  0  0  0  0  0  0  0  0  0  0
   -7.2850   -6.4897    6.0326 H   0  0  0  0  0  0  0  0  0  0  0  0
   -5.6609   -7.1802    6.2738 H   0  0  0  0  0  0  0  0  0  0  0  0
   -5.9541   -5.4479    6.5957 H   0  0  0  0  0  0  0  0  0  0  0  0
   -5.3299   -4.5448    0.3421 H   0  0  0  0  0  0  0  0  0  0  0  0
   -6.6599   -5.7315    0.3270 H   0  0  0  0  0  0  0  0  0  0  0  0
   -4.9681   -6.2921    0.2916 H   0  0  0  0  0  0  0  0  0  0  0  0
   -3.2451   -4.8919    1.2300 H   0  0  0  0  0  0  0  0  0  0  0  0
   -1.1935   -3.9249    0.7788 H   0  0  0  0  0  0  0  0  0  0  0  0
    1.2875   -3.3108    2.4630 H   0  0  0  0  0  0  0  0  0  0  0  0
   -0.4165   -3.9527   -1.1730 H   0  0  0  0  0  0  0  0  0  0  0  0
   -2.3690   -4.8608   -4.0767 H   0  0  0  0  0  0  0  0  0  0  0  0
   -1.0521   -5.3061   -2.9631 H   0  0  0  0  0  0  0  0  0  0  0  0
   -2.3818   -4.2543   -2.4000 H   0  0  0  0  0  0  0  0  0  0  0  0
    0.2351    0.7660   -4.8257 H   0  0  0  0  0  0  0  0  0  0  0  0
    1.6373   -0.1721   -5.4205 H   0  0  0  0  0  0  0  0  0  0  0  0
    0.1290   -0.1196   -6.3695 H   0  0  0  0  0  0  0  0  0  0  0  0
    1.6828    0.1022   -3.1187 H   0  0  0  0  0  0  0  0  0  0  0  0
    3.7596    1.0122   -0.0080 H   0  0  0  0  0  0  0  0  0  0  0  0
    3.0112    2.8743   -1.3036 H   0  0  0  0  0  0  0  0  0  0  0  0
    1.3908    3.5923   -3.3465 H   0  0  0  0  0  0  0  0  0  0  0  0
    0.7904    3.0340   -5.6464 H   0  0  0  0  0  0  0  0  0  0  0  0
    1.8147    4.4656   -7.3578 H   0  0  0  0  0  0  0  0  0  0  0  0
    0.3840    8.2690  -10.1188 H   0  0  0  0  0  0  0  0  0  0  0  0
   -0.6353    8.4734   -8.6824 H   0  0  0  0  0  0  0  0  0  0  0  0
   -1.5554    6.1604   -9.0214 H   0  0  0  0  0  0  0  0  0  0  0  0
   -1.8257    7.1503  -10.4579 H   0  0  0  0  0  0  0  0  0  0  0  0
   -0.5184    5.9582  -10.4374 H   0  0  0  0  0  0  0  0  0  0  0  0
   -2.0821    6.1125   -4.8517 H   0  0  0  0  0  0  0  0  0  0  0  0
   -4.8490    2.2031   -0.6520 H   0  0  0  0  0  0  0  0  0  0  0  0
   -5.7623    0.6445    0.9833 H   0  0  0  0  0  0  0  0  0  0  0  0
   -6.1421   -0.5230    2.9106 H   0  0  0  0  0  0  0  0  0  0  0  0
   -7.1567   -1.2911    1.6566 H   0  0  0  0  0  0  0  0  0  0  0  0
   -7.8408   -2.1035    3.9118 H   0  0  0  0  0  0  0  0  0  0  0  0
   -7.1108   -3.4309    2.9966 H   0  0  0  0  0  0  0  0  0  0  0  0
   -6.1790   -2.6115    4.2455 H   0  0  0  0  0  0  0  0  0  0  0  0
   -2.0649   -0.7797   -1.9586 H   0  0  0  0  0  0  0  0  0  0  0  0
   -5.5156    1.7448   -3.1272 H   0  0  0  0  0  0  0  0  0  0  0  0
   -5.2828    5.0140   -7.0290 H   0  0  0  0  0  0  0  0  0  0  0  0
   -4.8378    7.0866   -7.9796 H   0  0  0  0  0  0  0  0  0  0  0  0
   -4.4062    5.7293   -9.0554 H   0  0  0  0  0  0  0  0  0  0  0  0
   -4.7937    7.3273   -9.7443 H   0  0  0  0  0  0  0  0  0  0  0  0
  -10.8783    5.9425   -9.1276 H   0  0  0  0  0  0  0  0  0  0  0  0
  -10.3856    6.1939  -10.8209 H   0  0  0  0  0  0  0  0  0  0  0  0
  -10.4103    4.5474  -10.1406 H   0  0  0  0  0  0  0  0  0  0  0  0
  -10.0954    4.1204   -7.8650 H   0  0  0  0  0  0  0  0  0  0  0  0
  -10.4138    1.4899   -4.8767 H   0  0  0  0  0  0  0  0  0  0  0  0
  -11.4666    3.9985   -6.2789 H   0  0  0  0  0  0  0  0  0  0  0  0
  -12.4244    2.6048   -5.5852 H   0  0  0  0  0  0  0  0  0  0  0  0
  1  2  2  0  0  0  0
  2  3  1  0  0  0  0
  3  4  2  0  0  0  0
  4  5  1  0  0  0  0
  5  6  2  0  0  0  0
  6  7  1  0  0  0  0
  7  8  2  0  0  0  0
  8  9  1  0  0  0  0
  9 10  1  0  0  0  0
 10 11  1  0  0  0  0
  8 12  1  0  0  0  0
 12 13  1  0  0  0  0
 12 14  2  0  0  0  0
  4 15  1  0  0  0  0
 15 16  2  0  0  0  0
 16 17  1  0  0  0  0
 17 18  1  0  0  0  0
 18 19  2  0  0  0  0
 19 20  1  0  0  0  0
 20 21  2  0  0  0  0
 21 22  1  0  0  0  0
 22 23  1  0  0  0  0
 23 24  1  0  0  0  0
 21 25  1  0  0  0  0
 25 26  2  0  0  0  0
 25 27  1  0  0  0  0
 17 28  2  0  0  0  0
 28 29  1  0  0  0  0
 16 30  1  0  0  0  0
 30 31  2  0  0  0  0
 31 32  1  0  0  0  0
 31 33  1  0  0  0  0
 33 34  1  0  0  0  0
 33 35  2  0  0  0  0
 35 36  1  0  0  0  0
 36 37  2  0  0  0  0
 37 38  1  0  0  0  0
 38 39  1  0  0  0  0
 37 40  1  0  0  0  0
 40 41  1  0  0  0  0
 41 42  1  0  0  0  0
 40 43  2  0  0  0  0
 43 44  1  0  0  0  0
 44 45  2  0  0  0  0
 45 46  1  0  0  0  0
 46 47  2  0  0  0  0
 47 48  1  0  0  0  0
 48 49  1  0  0  0  0
 48 50  2  0  0  0  0
 50 51  1  0  0  0  0
 51 52  2  0  0  0  0
 52 53  1  0  0  0  0
 53 54  1  0  0  0  0
 52 55  1  0  0  0  0
 55 56  1  0  0  0  0
 56 57  1  0  0  0  0
 55 58  2  0  0  0  0
 58 59  1  0  0  0  0
 59 60  2  0  0  0  0
 60 61  1  0  0  0  0
 61 62  2  0  0  0  0
 62 63  1  0  0  0  0
 63 64  1  0  0  0  0
 63 65  2  0  0  0  0
 65 66  1  0  0  0  0
 66 67  2  0  0  0  0
 67 68  1  0  0  0  0
 68 69  1  0  0  0  0
 67 70  1  0  0  0  0
 70 71  1  0  0  0  0
 71 72  1  0  0  0  0
 70 73  2  0  0  0  0
 73 74  1  0  0  0  0
 74 75  2  0  0  0  0
 75 76  1  0  0  0  0
 76 77  2  0  0  0  0
 77 78  1  0  0  0  0
 78 79  2  0  0  0  0
 79 80  1  0  0  0  0
 80 81  2  0  0  0  0
 81 82  1  0  0  0  0
 82 83  2  0  0  0  0
 83 84  1  0  0  0  0
 84 85  2  0  0  0  0
 85 86  1  0  0  0  0
 86 87  1  0  0  0  0
 87 88  1  0  0  0  0
 85 89  1  0  0  0  0
 89 90  1  0  0  0  0
 89 91  2  0  0  0  0
 81 92  1  0  0  0  0
 92 93  2  0  0  0  0
 93 94  1  0  0  0  0
 94 95  1  0  0  0  0
 95 96  2  0  0  0  0
 96 97  1  0  0  0  0
 97 98  2  0  0  0  0
 98 99  1  0  0  0  0
 99100  1  0  0  0  0
100101  1  0  0  0  0
 98102  1  0  0  0  0
102103  2  0  0  0  0
102104  1  0  0  0  0
 94105  2  0  0  0  0
105106  1  0  0  0  0
 93107  1  0  0  0  0
107108  2  0  0  0  0
108109  1  0  0  0  0
108110  1  0  0  0  0
110111  1  0  0  0  0
110112  2  0  0  0  0
112113  1  0  0  0  0
113114  2  0  0  0  0
114115  1  0  0  0  0
115116  1  0  0  0  0
114117  1  0  0  0  0
117118  1  0  0  0  0
118119  1  0  0  0  0
117120  2  0  0  0  0
120121  1  0  0  0  0
121122  2  0  0  0  0
122123  1  0  0  0  0
123124  2  0  0  0  0
 29  1  1  0  0  0  0
 45 34  1  0  0  0  0
 60 49  1  0  0  0  0
 75 64  1  0  0  0  0
106 78  1  0  0  0  0
122111  1  0  0  0  0
 28  3  1  0  0  0  0
 44 35  1  0  0  0  0
 59 50  1  0  0  0  0
 74 65  1  0  0  0  0
105 80  1  0  0  0  0
121112  1  0  0  0  0
 14  5  1  0  0  0  0
 32 15  1  0  0  0  0
 91 82  1  0  0  0  0
109 92  1  0  0  0  0
 26 18  1  0  0  0  0
103 95  1  0  0  0  0
  1125  1  0  0  0  0
  2126  1  0  0  0  0
  6127  1  0  0  0  0
  7128  1  0  0  0  0
 10129  1  0  0  0  0
 10130  1  0  0  0  0
 11131  1  0  0  0  0
 11132  1  0  0  0  0
 11133  1  0  0  0  0
 14134  1  0  0  0  0
 19135  1  0  0  0  0
 20136  1  0  0  0  0
 23137  1  0  0  0  0
 23138  1  0  0  0  0
 24139  1  0  0  0  0
 24140  1  0  0  0  0
 24141  1  0  0  0  0
 26142  1  0  0  0  0
 30143  1  0  0  0  0
 36144  1  0  0  0  0
 39145  1  0  0  0  0
 39146  1  0  0  0  0
 39147  1  0  0  0  0
 42148  1  0  0  0  0
 42149  1  0  0  0  0
 42150  1  0  0  0  0
 43151  1  0  0  0  0
 46152  1  0  0  0  0
 47153  1  0  0  0  0
 51154  1  0  0  0  0
 54155  1  0  0  0  0
 54156  1  0  0  0  0
 54157  1  0  0  0  0
 57158  1  0  0  0  0
 57159  1  0  0  0  0
 57160  1  0  0  0  0
 58161  1  0  0  0  0
 61162  1  0  0  0  0
 62163  1  0  0  0  0
 66164  1  0  0  0  0
 69165  1  0  0  0  0
 69166  1  0  0  0  0
 69167  1  0  0  0  0
 72168  1  0  0  0  0
 72169  1  0  0  0  0
 72170  1  0  0  0  0
 73171  1  0  0  0  0
 76172  1  0  0  0  0
 77173  1  0  0  0  0
 79174  1  0  0  0  0
 83175  1  0  0  0  0
 84176  1  0  0  0  0
 87177  1  0  0  0  0
 87178  1  0  0  0  0
 88179  1  0  0  0  0
 88180  1  0  0  0  0
 88181  1  0  0  0  0
 91182  1  0  0  0  0
 96183  1  0  0  0  0
 97184  1  0  0  0  0
100185  1  0  0  0  0
100186  1  0  0  0  0
101187  1  0  0  0  0
101188  1  0  0  0  0
101189  1  0  0  0  0
103190  1  0  0  0  0
107191  1  0  0  0  0
113192  1  0  0  0  0
116193  1  0  0  0  0
116194  1  0  0  0  0
116195  1  0  0  0  0
119196  1  0  0  0  0
119197  1  0  0  0  0
119198  1  0  0  0  0
120199  1  0  0  0  0
123200  1  0  0  0  0
124201  1  0  0  0  0
124202  1  0  0  0  0
M  END
