
  xtb     03082205593D
 energy: -434.734143845825 gnorm: 0.000266993401 xtb: 6.4.1 (unknown)
252275  0     0  0            999 V2000
   -9.3960    6.1570   10.5504 C   0  0  0  0  0  0  0  0  0  0  0  0
   -9.6755    6.3411    9.2448 C   0  0  0  0  0  0  0  0  0  0  0  0
   -8.8795    5.5249    8.3866 C   0  0  0  0  0  0  0  0  0  0  0  0
   -8.8994    5.4580    6.9867 C   0  0  0  0  0  0  0  0  0  0  0  0
   -9.8295    6.2643    6.1857 C   0  0  0  0  0  0  0  0  0  0  0  0
   -9.3665    7.0614    5.1440 C   0  0  0  0  0  0  0  0  0  0  0  0
  -10.2329    7.8255    4.3858 C   0  0  0  0  0  0  0  0  0  0  0  0
  -11.5998    7.8127    4.6402 C   0  0  0  0  0  0  0  0  0  0  0  0
  -12.8125    8.7326    3.7605 S   0  0  0  0  0  0  0  0  0  0  0  0
  -11.8322    9.6510    2.5151 C   0  0  0  0  0  0  0  0  0  0  0  0
  -12.7766   10.5016    1.6867 C   0  0  0  0  0  0  0  0  0  0  0  0
  -12.0510    7.0003    5.6835 C   0  0  0  0  0  0  0  0  0  0  0  0
  -13.3721    6.9574    5.9527 F   0  0  0  0  0  0  0  0  0  0  0  0
  -11.1979    6.2402    6.4497 C   0  0  0  0  0  0  0  0  0  0  0  0
   -7.9971    4.5880    6.3934 C   0  0  0  0  0  0  0  0  0  0  0  0
   -7.0994    3.7717    7.1261 C   0  0  0  0  0  0  0  0  0  0  0  0
   -7.0656    3.8550    8.5270 C   0  0  0  0  0  0  0  0  0  0  0  0
   -6.1249    3.0754    9.3420 C   0  0  0  0  0  0  0  0  0  0  0  0
   -6.0045    1.6950    9.2165 C   0  0  0  0  0  0  0  0  0  0  0  0
   -5.1400    0.9753   10.0216 C   0  0  0  0  0  0  0  0  0  0  0  0
   -4.3582    1.6140   10.9769 C   0  0  0  0  0  0  0  0  0  0  0  0
   -3.2607    0.8368   12.1157 S   0  0  0  0  0  0  0  0  0  0  0  0
   -3.0164   -0.8435   11.4476 C   0  0  0  0  0  0  0  0  0  0  0  0
   -2.1631   -0.8430   10.1936 C   0  0  0  0  0  0  0  0  0  0  0  0
   -4.4818    3.0008   11.0839 C   0  0  0  0  0  0  0  0  0  0  0  0
   -5.3407    3.7270   10.2933 C   0  0  0  0  0  0  0  0  0  0  0  0
   -3.7315    3.6532   11.9928 F   0  0  0  0  0  0  0  0  0  0  0  0
   -7.9602    4.7372    9.1199 C   0  0  0  0  0  0  0  0  0  0  0  0
   -8.1441    4.9977   10.8364 S   0  0  0  0  0  0  0  0  0  0  0  0
   -6.3023    2.9667    6.2690 C   0  0  0  0  0  0  0  0  0  0  0  0
   -6.5798    3.1399    4.9461 C   0  0  0  0  0  0  0  0  0  0  0  0
   -7.8410    4.3245    4.6784 S   0  0  0  0  0  0  0  0  0  0  0  0
   -5.9714    2.4955    3.8222 C   0  0  0  0  0  0  0  0  0  0  0  0
   -5.3093    1.3046    3.7917 C   0  0  0  0  0  0  0  0  0  0  0  0
   -4.8229    0.9561    2.5046 C   0  0  0  0  0  0  0  0  0  0  0  0
   -4.1062   -0.1937    2.1272 C   0  0  0  0  0  0  0  0  0  0  0  0
   -3.7229   -1.2214    3.1028 C   0  0  0  0  0  0  0  0  0  0  0  0
   -3.0853   -0.8837    4.2946 C   0  0  0  0  0  0  0  0  0  0  0  0
   -2.7270   -1.8537    5.2094 C   0  0  0  0  0  0  0  0  0  0  0  0
   -3.0026   -3.1947    4.9693 C   0  0  0  0  0  0  0  0  0  0  0  0
   -2.5843   -4.5074    6.0766 S   0  0  0  0  0  0  0  0  0  0  0  0
   -2.8178   -3.7309    7.7154 C   0  0  0  0  0  0  0  0  0  0  0  0
   -4.2438   -3.2652    7.9342 C   0  0  0  0  0  0  0  0  0  0  0  0
   -3.6188   -3.5231    3.7631 C   0  0  0  0  0  0  0  0  0  0  0  0
   -3.8927   -4.8123    3.4922 F   0  0  0  0  0  0  0  0  0  0  0  0
   -3.9777   -2.5652    2.8400 C   0  0  0  0  0  0  0  0  0  0  0  0
   -3.7663   -0.3041    0.7869 C   0  0  0  0  0  0  0  0  0  0  0  0
   -4.0765    0.6940   -0.1688 C   0  0  0  0  0  0  0  0  0  0  0  0
   -4.7779    1.8501    0.2077 C   0  0  0  0  0  0  0  0  0  0  0  0
   -5.0538    2.8994   -0.7817 C   0  0  0  0  0  0  0  0  0  0  0  0
   -6.3396    3.3944   -0.9861 C   0  0  0  0  0  0  0  0  0  0  0  0
   -6.5860    4.3113   -1.9862 C   0  0  0  0  0  0  0  0  0  0  0  0
   -5.5639    4.7851   -2.8066 C   0  0  0  0  0  0  0  0  0  0  0  0
   -5.9979    5.9455   -4.0687 S   0  0  0  0  0  0  0  0  0  0  0  0
   -4.9481    5.4688   -5.4939 C   0  0  0  0  0  0  0  0  0  0  0  0
   -5.1313    4.0156   -5.8848 C   0  0  0  0  0  0  0  0  0  0  0  0
   -4.2736    4.3358   -2.5434 C   0  0  0  0  0  0  0  0  0  0  0  0
   -4.0164    3.3995   -1.5641 C   0  0  0  0  0  0  0  0  0  0  0  0
   -3.2185    4.7997   -3.2509 F   0  0  0  0  0  0  0  0  0  0  0  0
   -5.1594    1.9369    1.5363 C   0  0  0  0  0  0  0  0  0  0  0  0
   -6.0430    3.2580    2.2476 S   0  0  0  0  0  0  0  0  0  0  0  0
   -3.5835    0.3668   -1.4535 C   0  0  0  0  0  0  0  0  0  0  0  0
   -2.8808   -0.8002   -1.4942 C   0  0  0  0  0  0  0  0  0  0  0  0
   -2.8451   -1.6023    0.0648 S   0  0  0  0  0  0  0  0  0  0  0  0
   -2.1316   -1.2711   -2.6116 C   0  0  0  0  0  0  0  0  0  0  0  0
   -1.2891   -2.3395   -2.7082 C   0  0  0  0  0  0  0  0  0  0  0  0
   -0.5422   -2.3587   -3.9135 C   0  0  0  0  0  0  0  0  0  0  0  0
    0.4558   -3.2647   -4.3046 C   0  0  0  0  0  0  0  0  0  0  0  0
    0.9345   -4.3591   -3.4494 C   0  0  0  0  0  0  0  0  0  0  0  0
    0.9738   -5.6684   -3.9223 C   0  0  0  0  0  0  0  0  0  0  0  0
    1.5260   -6.6718   -3.1567 C   0  0  0  0  0  0  0  0  0  0  0  0
    2.0698   -6.4081   -1.9006 C   0  0  0  0  0  0  0  0  0  0  0  0
    2.7568   -7.7716   -1.0147 S   0  0  0  0  0  0  0  0  0  0  0  0
    4.2115   -7.0369   -0.1683 C   0  0  0  0  0  0  0  0  0  0  0  0
    5.2170   -8.1346    0.1156 C   0  0  0  0  0  0  0  0  0  0  0  0
    1.9974   -5.1005   -1.4296 C   0  0  0  0  0  0  0  0  0  0  0  0
    2.4731   -4.7741   -0.2055 F   0  0  0  0  0  0  0  0  0  0  0  0
    1.4456   -4.0861   -2.1859 C   0  0  0  0  0  0  0  0  0  0  0  0
    1.0939   -3.0106   -5.5062 C   0  0  0  0  0  0  0  0  0  0  0  0
    0.8149   -1.8840   -6.3199 C   0  0  0  0  0  0  0  0  0  0  0  0
   -0.2043   -0.9921   -5.9464 C   0  0  0  0  0  0  0  0  0  0  0  0
   -0.5035    0.2074   -6.7353 C   0  0  0  0  0  0  0  0  0  0  0  0
   -0.5708    1.4576   -6.1267 C   0  0  0  0  0  0  0  0  0  0  0  0
   -0.8786    2.5915   -6.8522 C   0  0  0  0  0  0  0  0  0  0  0  0
   -1.1285    2.5154   -8.2182 C   0  0  0  0  0  0  0  0  0  0  0  0
   -1.5648    3.8731   -9.2489 S   0  0  0  0  0  0  0  0  0  0  0  0
   -1.7438    5.2601   -8.0651 C   0  0  0  0  0  0  0  0  0  0  0  0
   -2.3249    6.4545   -8.7977 C   0  0  0  0  0  0  0  0  0  0  0  0
   -1.0232    1.2601   -8.8212 C   0  0  0  0  0  0  0  0  0  0  0  0
   -0.7203    0.1219   -8.1095 C   0  0  0  0  0  0  0  0  0  0  0  0
   -1.2266    1.1530  -10.1532 F   0  0  0  0  0  0  0  0  0  0  0  0
   -0.8545   -1.2587   -4.7510 C   0  0  0  0  0  0  0  0  0  0  0  0
   -2.0963   -0.2645   -4.0487 S   0  0  0  0  0  0  0  0  0  0  0  0
    1.7846   -1.7085   -7.3371 C   0  0  0  0  0  0  0  0  0  0  0  0
    2.7844   -2.6415   -7.3104 C   0  0  0  0  0  0  0  0  0  0  0  0
    2.4991   -3.8690   -6.0808 S   0  0  0  0  0  0  0  0  0  0  0  0
    4.0508   -2.6139   -7.9520 C   0  0  0  0  0  0  0  0  0  0  0  0
    5.3640   -3.4077   -7.1489 S   0  0  0  0  0  0  0  0  0  0  0  0
    4.5198   -1.8459   -9.0209 C   0  0  0  0  0  0  0  0  0  0  0  0
    3.7627   -1.1119   -9.9580 C   0  0  0  0  0  0  0  0  0  0  0  0
    4.3934   -0.3894  -10.9325 C   0  0  0  0  0  0  0  0  0  0  0  0
    3.7769    0.3560  -11.8791 O   0  0  0  0  0  0  0  0  0  0  0  0
    2.3718    0.4407  -11.8567 C   0  0  0  0  0  0  0  0  0  0  0  0
    5.8325   -0.3807  -11.0137 C   0  0  0  0  0  0  0  0  0  0  0  0
    6.3249    0.3783  -12.0228 O   0  0  0  0  0  0  0  0  0  0  0  0
    7.7188    0.4445  -12.1913 C   0  0  0  0  0  0  0  0  0  0  0  0
    6.5796   -1.1038  -10.1260 C   0  0  0  0  0  0  0  0  0  0  0  0
    5.9443   -1.8619   -9.1188 C   0  0  0  0  0  0  0  0  0  0  0  0
    6.5585   -2.6186   -8.1140 C   0  0  0  0  0  0  0  0  0  0  0  0
    7.9556   -2.7984   -7.8906 C   0  0  0  0  0  0  0  0  0  0  0  0
    8.5892   -3.1123   -6.7380 C   0  0  0  0  0  0  0  0  0  0  0  0
    8.0709   -3.1838   -5.3993 C   0  0  0  0  0  0  0  0  0  0  0  0
    8.5637   -3.9749   -4.4016 C   0  0  0  0  0  0  0  0  0  0  0  0
    7.8803   -3.8508   -3.1645 C   0  0  0  0  0  0  0  0  0  0  0  0
    8.1046   -4.5575   -1.9705 C   0  0  0  0  0  0  0  0  0  0  0  0
    9.2276   -5.4915   -1.8283 C   0  0  0  0  0  0  0  0  0  0  0  0
    9.0394   -6.7842   -1.3418 C   0  0  0  0  0  0  0  0  0  0  0  0
   10.1067   -7.6425   -1.2000 C   0  0  0  0  0  0  0  0  0  0  0  0
   11.4072   -7.2501   -1.5206 C   0  0  0  0  0  0  0  0  0  0  0  0
   12.6815   -8.4354   -1.2332 S   0  0  0  0  0  0  0  0  0  0  0  0
   14.0093   -7.9966   -2.4253 C   0  0  0  0  0  0  0  0  0  0  0  0
   14.9112   -9.2013   -2.6088 C   0  0  0  0  0  0  0  0  0  0  0  0
   11.5819   -5.9504   -1.9864 C   0  0  0  0  0  0  0  0  0  0  0  0
   12.8134   -5.4724   -2.2851 F   0  0  0  0  0  0  0  0  0  0  0  0
   10.5178   -5.0877   -2.1545 C   0  0  0  0  0  0  0  0  0  0  0  0
    7.2207   -4.3201   -0.9292 C   0  0  0  0  0  0  0  0  0  0  0  0
    6.1479   -3.3988   -1.0155 C   0  0  0  0  0  0  0  0  0  0  0  0
    5.9510   -2.6593   -2.1959 C   0  0  0  0  0  0  0  0  0  0  0  0
    4.8387   -1.7075   -2.2982 C   0  0  0  0  0  0  0  0  0  0  0  0
    3.9414   -1.7607   -3.3631 C   0  0  0  0  0  0  0  0  0  0  0  0
    2.8363   -0.9376   -3.3898 C   0  0  0  0  0  0  0  0  0  0  0  0
    2.5840   -0.0297   -2.3655 C   0  0  0  0  0  0  0  0  0  0  0  0
    1.0742    0.8900   -2.4321 S   0  0  0  0  0  0  0  0  0  0  0  0
    0.5081    0.8859   -0.6875 C   0  0  0  0  0  0  0  0  0  0  0  0
    0.5022   -0.5008   -0.0785 C   0  0  0  0  0  0  0  0  0  0  0  0
    3.5379    0.0810   -1.3596 C   0  0  0  0  0  0  0  0  0  0  0  0
    4.6365   -0.7518   -1.3062 C   0  0  0  0  0  0  0  0  0  0  0  0
    3.4082    1.0101   -0.3816 F   0  0  0  0  0  0  0  0  0  0  0  0
    6.8221   -2.9124   -3.2436 C   0  0  0  0  0  0  0  0  0  0  0  0
    6.7811   -2.1460   -4.8081 S   0  0  0  0  0  0  0  0  0  0  0  0
    5.3528   -3.3951    0.1578 C   0  0  0  0  0  0  0  0  0  0  0  0
    5.8004   -4.2378    1.1353 C   0  0  0  0  0  0  0  0  0  0  0  0
    7.2616   -5.0838    0.6392 S   0  0  0  0  0  0  0  0  0  0  0  0
    5.2058   -4.5517    2.3898 C   0  0  0  0  0  0  0  0  0  0  0  0
    5.5330   -6.0907    3.1155 S   0  0  0  0  0  0  0  0  0  0  0  0
    4.2883   -3.8353    3.1604 C   0  0  0  0  0  0  0  0  0  0  0  0
    3.8461   -2.5067    2.9688 C   0  0  0  0  0  0  0  0  0  0  0  0
    2.9225   -1.9624    3.8150 C   0  0  0  0  0  0  0  0  0  0  0  0
    2.4509   -0.6924    3.7599 O   0  0  0  0  0  0  0  0  0  0  0  0
    3.0100    0.1848    2.8133 C   0  0  0  0  0  0  0  0  0  0  0  0
    2.3556   -2.7549    4.8765 C   0  0  0  0  0  0  0  0  0  0  0  0
    1.3932   -2.1164    5.5923 O   0  0  0  0  0  0  0  0  0  0  0  0
    0.8188   -2.7931    6.6806 C   0  0  0  0  0  0  0  0  0  0  0  0
    2.8102   -4.0187    5.1119 C   0  0  0  0  0  0  0  0  0  0  0  0
    3.8276   -4.5715    4.2980 C   0  0  0  0  0  0  0  0  0  0  0  0
    4.4370   -5.8180    4.4257 C   0  0  0  0  0  0  0  0  0  0  0  0
    4.3238   -6.8513    5.4171 C   0  0  0  0  0  0  0  0  0  0  0  0
    3.9283   -6.7140    6.6820 C   0  0  0  0  0  0  0  0  0  0  0  0
   -9.8460    6.6407   11.3953 H   0  0  0  0  0  0  0  0  0  0  0  0
  -10.4111    7.0365    8.8839 H   0  0  0  0  0  0  0  0  0  0  0  0
   -8.3089    7.1033    4.9328 H   0  0  0  0  0  0  0  0  0  0  0  0
   -9.8305    8.4342    3.5932 H   0  0  0  0  0  0  0  0  0  0  0  0
  -11.3141    8.9234    1.8904 H   0  0  0  0  0  0  0  0  0  0  0  0
  -11.1125   10.2742    3.0463 H   0  0  0  0  0  0  0  0  0  0  0  0
  -13.3095   11.2065    2.3206 H   0  0  0  0  0  0  0  0  0  0  0  0
  -12.2138   11.0584    0.9405 H   0  0  0  0  0  0  0  0  0  0  0  0
  -13.5066    9.8758    1.1789 H   0  0  0  0  0  0  0  0  0  0  0  0
  -11.6044    5.6167    7.2306 H   0  0  0  0  0  0  0  0  0  0  0  0
   -6.6208    1.1691    8.5026 H   0  0  0  0  0  0  0  0  0  0  0  0
   -5.0949   -0.0962    9.9076 H   0  0  0  0  0  0  0  0  0  0  0  0
   -2.5082   -1.3655   12.2584 H   0  0  0  0  0  0  0  0  0  0  0  0
   -3.9894   -1.3087   11.2936 H   0  0  0  0  0  0  0  0  0  0  0  0
   -2.6738   -0.3408    9.3743 H   0  0  0  0  0  0  0  0  0  0  0  0
   -1.9414   -1.8673    9.8998 H   0  0  0  0  0  0  0  0  0  0  0  0
   -1.2253   -0.3254   10.3819 H   0  0  0  0  0  0  0  0  0  0  0  0
   -5.3821    4.7977   10.4130 H   0  0  0  0  0  0  0  0  0  0  0  0
   -5.5310    2.3087    6.6255 H   0  0  0  0  0  0  0  0  0  0  0  0
   -5.2000    0.6753    4.6559 H   0  0  0  0  0  0  0  0  0  0  0  0
   -2.8391    0.1484    4.4938 H   0  0  0  0  0  0  0  0  0  0  0  0
   -2.2182   -1.5606    6.1139 H   0  0  0  0  0  0  0  0  0  0  0  0
   -2.1002   -2.9188    7.8223 H   0  0  0  0  0  0  0  0  0  0  0  0
   -2.5546   -4.5259    8.4128 H   0  0  0  0  0  0  0  0  0  0  0  0
   -4.5013   -2.4683    7.2388 H   0  0  0  0  0  0  0  0  0  0  0  0
   -4.3600   -2.8937    8.9505 H   0  0  0  0  0  0  0  0  0  0  0  0
   -4.9365   -4.0901    7.7853 H   0  0  0  0  0  0  0  0  0  0  0  0
   -4.4775   -2.8738    1.9356 H   0  0  0  0  0  0  0  0  0  0  0  0
   -7.1563    3.0291   -0.3832 H   0  0  0  0  0  0  0  0  0  0  0  0
   -7.5880    4.6706   -2.1612 H   0  0  0  0  0  0  0  0  0  0  0  0
   -3.9117    5.7046   -5.2603 H   0  0  0  0  0  0  0  0  0  0  0  0
   -5.2938    6.1345   -6.2850 H   0  0  0  0  0  0  0  0  0  0  0  0
   -6.1851    3.7923   -6.0365 H   0  0  0  0  0  0  0  0  0  0  0  0
   -4.5986    3.8097   -6.8115 H   0  0  0  0  0  0  0  0  0  0  0  0
   -4.7438    3.3503   -5.1154 H   0  0  0  0  0  0  0  0  0  0  0  0
   -2.9962    3.0868   -1.4037 H   0  0  0  0  0  0  0  0  0  0  0  0
   -3.7319    0.9779   -2.3251 H   0  0  0  0  0  0  0  0  0  0  0  0
   -1.1914   -3.0838   -1.9368 H   0  0  0  0  0  0  0  0  0  0  0  0
    0.5705   -5.8958   -4.8972 H   0  0  0  0  0  0  0  0  0  0  0  0
    1.5601   -7.6855   -3.5238 H   0  0  0  0  0  0  0  0  0  0  0  0
    3.8700   -6.5669    0.7523 H   0  0  0  0  0  0  0  0  0  0  0  0
    4.6233   -6.2823   -0.8378 H   0  0  0  0  0  0  0  0  0  0  0  0
    4.7726   -8.9018    0.7451 H   0  0  0  0  0  0  0  0  0  0  0  0
    6.0783   -7.7185    0.6342 H   0  0  0  0  0  0  0  0  0  0  0  0
    5.5480   -8.5980   -0.8115 H   0  0  0  0  0  0  0  0  0  0  0  0
    1.4403   -3.0820   -1.7909 H   0  0  0  0  0  0  0  0  0  0  0  0
   -0.3537    1.5522   -5.0740 H   0  0  0  0  0  0  0  0  0  0  0  0
   -0.9159    3.5385   -6.3404 H   0  0  0  0  0  0  0  0  0  0  0  0
   -0.7576    5.4908   -7.6616 H   0  0  0  0  0  0  0  0  0  0  0  0
   -2.4095    4.9340   -7.2666 H   0  0  0  0  0  0  0  0  0  0  0  0
   -3.2979    6.2076   -9.2165 H   0  0  0  0  0  0  0  0  0  0  0  0
   -2.4414    7.2887   -8.1091 H   0  0  0  0  0  0  0  0  0  0  0  0
   -1.6694    6.7608   -9.6095 H   0  0  0  0  0  0  0  0  0  0  0  0
   -0.6805   -0.8269   -8.6220 H   0  0  0  0  0  0  0  0  0  0  0  0
    1.7991   -0.8449   -7.9746 H   0  0  0  0  0  0  0  0  0  0  0  0
    2.6887   -1.1539   -9.9071 H   0  0  0  0  0  0  0  0  0  0  0  0
    1.9062   -0.5369  -12.0158 H   0  0  0  0  0  0  0  0  0  0  0  0
    2.1030    1.1040  -12.6764 H   0  0  0  0  0  0  0  0  0  0  0  0
    2.0090    0.8660  -10.9157 H   0  0  0  0  0  0  0  0  0  0  0  0
    8.1448   -0.5411  -12.4069 H   0  0  0  0  0  0  0  0  0  0  0  0
    8.2106    0.8671  -11.3088 H   0  0  0  0  0  0  0  0  0  0  0  0
    7.8809    1.1014  -13.0440 H   0  0  0  0  0  0  0  0  0  0  0  0
    7.6555   -1.1120  -10.1801 H   0  0  0  0  0  0  0  0  0  0  0  0
    8.5730   -2.6811   -8.7733 H   0  0  0  0  0  0  0  0  0  0  0  0
    9.6485   -3.3317   -6.8016 H   0  0  0  0  0  0  0  0  0  0  0  0
    9.3605   -4.6793   -4.5627 H   0  0  0  0  0  0  0  0  0  0  0  0
    8.0457   -7.1257   -1.0982 H   0  0  0  0  0  0  0  0  0  0  0  0
    9.9548   -8.6453   -0.8324 H   0  0  0  0  0  0  0  0  0  0  0  0
   14.5641   -7.1479   -2.0288 H   0  0  0  0  0  0  0  0  0  0  0  0
   13.5265   -7.7194   -3.3612 H   0  0  0  0  0  0  0  0  0  0  0  0
   14.3449  -10.0492   -2.9877 H   0  0  0  0  0  0  0  0  0  0  0  0
   15.7023   -8.9630   -3.3165 H   0  0  0  0  0  0  0  0  0  0  0  0
   15.3644   -9.4855   -1.6618 H   0  0  0  0  0  0  0  0  0  0  0  0
   10.7139   -4.0861   -2.5054 H   0  0  0  0  0  0  0  0  0  0  0  0
    4.0869   -2.4839   -4.1499 H   0  0  0  0  0  0  0  0  0  0  0  0
    2.1297   -0.9939   -4.2010 H   0  0  0  0  0  0  0  0  0  0  0  0
    1.1258    1.5787   -0.1185 H   0  0  0  0  0  0  0  0  0  0  0  0
   -0.5046    1.2844   -0.7547 H   0  0  0  0  0  0  0  0  0  0  0  0
    0.0782   -0.4611    0.9230 H   0  0  0  0  0  0  0  0  0  0  0  0
   -0.0929   -1.1810   -0.6829 H   0  0  0  0  0  0  0  0  0  0  0  0
    1.5102   -0.9053   -0.0062 H   0  0  0  0  0  0  0  0  0  0  0  0
    5.3432   -0.6326   -0.4990 H   0  0  0  0  0  0  0  0  0  0  0  0
    4.4309   -2.8514    0.2357 H   0  0  0  0  0  0  0  0  0  0  0  0
    4.2742   -1.9286    2.1687 H   0  0  0  0  0  0  0  0  0  0  0  0
    4.0864    0.3095    2.9678 H   0  0  0  0  0  0  0  0  0  0  0  0
    2.5117    1.1408    2.9621 H   0  0  0  0  0  0  0  0  0  0  0  0
    2.8298   -0.1588    1.7926 H   0  0  0  0  0  0  0  0  0  0  0  0
    1.5752   -3.1013    7.4101 H   0  0  0  0  0  0  0  0  0  0  0  0
    0.1503   -2.0720    7.1491 H   0  0  0  0  0  0  0  0  0  0  0  0
    0.2490   -3.6703    6.3552 H   0  0  0  0  0  0  0  0  0  0  0  0
    2.3888   -4.6254    5.8935 H   0  0  0  0  0  0  0  0  0  0  0  0
    4.6468   -7.8277    5.0753 H   0  0  0  0  0  0  0  0  0  0  0  0
    3.8886   -7.5635    7.3411 H   0  0  0  0  0  0  0  0  0  0  0  0
    3.6634   -5.7644    7.1103 H   0  0  0  0  0  0  0  0  0  0  0  0
  1  2  2  0  0  0  0
  2  3  1  0  0  0  0
  3  4  2  0  0  0  0
  4  5  1  0  0  0  0
  5  6  2  0  0  0  0
  6  7  1  0  0  0  0
  7  8  2  0  0  0  0
  8  9  1  0  0  0  0
  9 10  1  0  0  0  0
 10 11  1  0  0  0  0
  8 12  1  0  0  0  0
 12 13  1  0  0  0  0
 12 14  2  0  0  0  0
  4 15  1  0  0  0  0
 15 16  2  0  0  0  0
 16 17  1  0  0  0  0
 17 18  1  0  0  0  0
 18 19  2  0  0  0  0
 19 20  1  0  0  0  0
 20 21  2  0  0  0  0
 21 22  1  0  0  0  0
 22 23  1  0  0  0  0
 23 24  1  0  0  0  0
 21 25  1  0  0  0  0
 25 26  2  0  0  0  0
 25 27  1  0  0  0  0
 17 28  2  0  0  0  0
 28 29  1  0  0  0  0
 16 30  1  0  0  0  0
 30 31  2  0  0  0  0
 31 32  1  0  0  0  0
 31 33  1  0  0  0  0
 33 34  2  0  0  0  0
 34 35  1  0  0  0  0
 35 36  2  0  0  0  0
 36 37  1  0  0  0  0
 37 38  2  0  0  0  0
 38 39  1  0  0  0  0
 39 40  2  0  0  0  0
 40 41  1  0  0  0  0
 41 42  1  0  0  0  0
 42 43  1  0  0  0  0
 40 44  1  0  0  0  0
 44 45  1  0  0  0  0
 44 46  2  0  0  0  0
 36 47  1  0  0  0  0
 47 48  2  0  0  0  0
 48 49  1  0  0  0  0
 49 50  1  0  0  0  0
 50 51  2  0  0  0  0
 51 52  1  0  0  0  0
 52 53  2  0  0  0  0
 53 54  1  0  0  0  0
 54 55  1  0  0  0  0
 55 56  1  0  0  0  0
 53 57  1  0  0  0  0
 57 58  2  0  0  0  0
 57 59  1  0  0  0  0
 49 60  2  0  0  0  0
 60 61  1  0  0  0  0
 48 62  1  0  0  0  0
 62 63  2  0  0  0  0
 63 64  1  0  0  0  0
 63 65  1  0  0  0  0
 65 66  2  0  0  0  0
 66 67  1  0  0  0  0
 67 68  2  0  0  0  0
 68 69  1  0  0  0  0
 69 70  2  0  0  0  0
 70 71  1  0  0  0  0
 71 72  2  0  0  0  0
 72 73  1  0  0  0  0
 73 74  1  0  0  0  0
 74 75  1  0  0  0  0
 72 76  1  0  0  0  0
 76 77  1  0  0  0  0
 76 78  2  0  0  0  0
 68 79  1  0  0  0  0
 79 80  2  0  0  0  0
 80 81  1  0  0  0  0
 81 82  1  0  0  0  0
 82 83  2  0  0  0  0
 83 84  1  0  0  0  0
 84 85  2  0  0  0  0
 85 86  1  0  0  0  0
 86 87  1  0  0  0  0
 87 88  1  0  0  0  0
 85 89  1  0  0  0  0
 89 90  2  0  0  0  0
 89 91  1  0  0  0  0
 81 92  2  0  0  0  0
 92 93  1  0  0  0  0
 80 94  1  0  0  0  0
 94 95  2  0  0  0  0
 95 96  1  0  0  0  0
 95 97  1  0  0  0  0
 97 98  1  0  0  0  0
 97 99  2  0  0  0  0
 99100  1  0  0  0  0
100101  2  0  0  0  0
101102  1  0  0  0  0
102103  1  0  0  0  0
101104  1  0  0  0  0
104105  1  0  0  0  0
105106  1  0  0  0  0
104107  2  0  0  0  0
107108  1  0  0  0  0
108109  2  0  0  0  0
109110  1  0  0  0  0
110111  2  0  0  0  0
111112  1  0  0  0  0
112113  2  0  0  0  0
113114  1  0  0  0  0
114115  2  0  0  0  0
115116  1  0  0  0  0
116117  2  0  0  0  0
117118  1  0  0  0  0
118119  2  0  0  0  0
119120  1  0  0  0  0
120121  1  0  0  0  0
121122  1  0  0  0  0
119123  1  0  0  0  0
123124  1  0  0  0  0
123125  2  0  0  0  0
115126  1  0  0  0  0
126127  2  0  0  0  0
127128  1  0  0  0  0
128129  1  0  0  0  0
129130  2  0  0  0  0
130131  1  0  0  0  0
131132  2  0  0  0  0
132133  1  0  0  0  0
133134  1  0  0  0  0
134135  1  0  0  0  0
132136  1  0  0  0  0
136137  2  0  0  0  0
136138  1  0  0  0  0
128139  2  0  0  0  0
139140  1  0  0  0  0
127141  1  0  0  0  0
141142  2  0  0  0  0
142143  1  0  0  0  0
142144  1  0  0  0  0
144145  1  0  0  0  0
144146  2  0  0  0  0
146147  1  0  0  0  0
147148  2  0  0  0  0
148149  1  0  0  0  0
149150  1  0  0  0  0
148151  1  0  0  0  0
151152  1  0  0  0  0
152153  1  0  0  0  0
151154  2  0  0  0  0
154155  1  0  0  0  0
155156  2  0  0  0  0
156157  1  0  0  0  0
157158  2  0  0  0  0
 29  1  1  0  0  0  0
 61 33  1  0  0  0  0
 93 65  1  0  0  0  0
109 98  1  0  0  0  0
140112  1  0  0  0  0
156145  1  0  0  0  0
 28  3  1  0  0  0  0
 60 35  1  0  0  0  0
 92 67  1  0  0  0  0
108 99  1  0  0  0  0
139114  1  0  0  0  0
155146  1  0  0  0  0
 14  5  1  0  0  0  0
 32 15  1  0  0  0  0
 46 37  1  0  0  0  0
 64 47  1  0  0  0  0
 78 69  1  0  0  0  0
 96 79  1  0  0  0  0
125116  1  0  0  0  0
143126  1  0  0  0  0
 26 18  1  0  0  0  0
 58 50  1  0  0  0  0
 90 82  1  0  0  0  0
137129  1  0  0  0  0
  1159  1  0  0  0  0
  2160  1  0  0  0  0
  6161  1  0  0  0  0
  7162  1  0  0  0  0
 10163  1  0  0  0  0
 10164  1  0  0  0  0
 11165  1  0  0  0  0
 11166  1  0  0  0  0
 11167  1  0  0  0  0
 14168  1  0  0  0  0
 19169  1  0  0  0  0
 20170  1  0  0  0  0
 23171  1  0  0  0  0
 23172  1  0  0  0  0
 24173  1  0  0  0  0
 24174  1  0  0  0  0
 24175  1  0  0  0  0
 26176  1  0  0  0  0
 30177  1  0  0  0  0
 34178  1  0  0  0  0
 38179  1  0  0  0  0
 39180  1  0  0  0  0
 42181  1  0  0  0  0
 42182  1  0  0  0  0
 43183  1  0  0  0  0
 43184  1  0  0  0  0
 43185  1  0  0  0  0
 46186  1  0  0  0  0
 51187  1  0  0  0  0
 52188  1  0  0  0  0
 55189  1  0  0  0  0
 55190  1  0  0  0  0
 56191  1  0  0  0  0
 56192  1  0  0  0  0
 56193  1  0  0  0  0
 58194  1  0  0  0  0
 62195  1  0  0  0  0
 66196  1  0  0  0  0
 70197  1  0  0  0  0
 71198  1  0  0  0  0
 74199  1  0  0  0  0
 74200  1  0  0  0  0
 75201  1  0  0  0  0
 75202  1  0  0  0  0
 75203  1  0  0  0  0
 78204  1  0  0  0  0
 83205  1  0  0  0  0
 84206  1  0  0  0  0
 87207  1  0  0  0  0
 87208  1  0  0  0  0
 88209  1  0  0  0  0
 88210  1  0  0  0  0
 88211  1  0  0  0  0
 90212  1  0  0  0  0
 94213  1  0  0  0  0
100214  1  0  0  0  0
103215  1  0  0  0  0
103216  1  0  0  0  0
103217  1  0  0  0  0
106218  1  0  0  0  0
106219  1  0  0  0  0
106220  1  0  0  0  0
107221  1  0  0  0  0
110222  1  0  0  0  0
111223  1  0  0  0  0
113224  1  0  0  0  0
117225  1  0  0  0  0
118226  1  0  0  0  0
121227  1  0  0  0  0
121228  1  0  0  0  0
122229  1  0  0  0  0
122230  1  0  0  0  0
122231  1  0  0  0  0
125232  1  0  0  0  0
130233  1  0  0  0  0
131234  1  0  0  0  0
134235  1  0  0  0  0
134236  1  0  0  0  0
135237  1  0  0  0  0
135238  1  0  0  0  0
135239  1  0  0  0  0
137240  1  0  0  0  0
141241  1  0  0  0  0
147242  1  0  0  0  0
150243  1  0  0  0  0
150244  1  0  0  0  0
150245  1  0  0  0  0
153246  1  0  0  0  0
153247  1  0  0  0  0
153248  1  0  0  0  0
154249  1  0  0  0  0
157250  1  0  0  0  0
158251  1  0  0  0  0
158252  1  0  0  0  0
M  END
