
  xtb     03082203063D
 energy: -176.945457993264 gnorm: 0.000968622627 xtb: 6.4.1 (unknown)
122128  0     0  0            999 V2000
    4.3240   13.5023   -1.3561 C   0  0  0  0  0  0  0  0  0  0  0  0
    3.8404   12.2519   -1.1108 N   0  0  0  0  0  0  0  0  0  0  0  0
    4.4985   11.3545   -1.8832 C   0  0  0  0  0  0  0  0  0  0  0  0
    5.4296   12.0293   -2.6459 C   0  0  0  0  0  0  0  0  0  0  0  0
    5.3150   13.4096   -2.2937 C   0  0  0  0  0  0  0  0  0  0  0  0
    6.1177   14.5343   -2.8533 C   0  0  0  0  0  0  0  0  0  0  0  0
    6.4225   11.5021   -3.5548 C   0  0  0  0  0  0  0  0  0  0  0  0
    6.4515   10.3200   -4.1899 C   0  0  0  0  0  0  0  0  0  0  0  0
    5.4197    9.3107   -4.2726 C   0  0  0  0  0  0  0  0  0  0  0  0
    4.1083    9.5669   -4.4037 C   0  0  0  0  0  0  0  0  0  0  0  0
    3.0513    8.5998   -4.4681 C   0  0  0  0  0  0  0  0  0  0  0  0
    1.8342    8.9464   -5.0033 N   0  0  0  0  0  0  0  0  0  0  0  0
    0.9757    7.9068   -4.9265 C   0  0  0  0  0  0  0  0  0  0  0  0
    1.6214    6.8486   -4.3081 C   0  0  0  0  0  0  0  0  0  0  0  0
    2.9439    7.2943   -4.0157 C   0  0  0  0  0  0  0  0  0  0  0  0
    3.9882    6.5130   -3.2939 C   0  0  0  0  0  0  0  0  0  0  0  0
    1.0861    5.5572   -3.9812 C   0  0  0  0  0  0  0  0  0  0  0  0
   -0.1880    5.1621   -4.1711 C   0  0  0  0  0  0  0  0  0  0  0  0
   -0.7404    3.8950   -3.7881 C   0  0  0  0  0  0  0  0  0  0  0  0
   -0.0495    2.8453   -3.2937 C   0  0  0  0  0  0  0  0  0  0  0  0
   -0.6013    1.6165   -2.8222 C   0  0  0  0  0  0  0  0  0  0  0  0
   -1.9478    1.3613   -2.7572 N   0  0  0  0  0  0  0  0  0  0  0  0
   -2.1585    0.1453   -2.2109 C   0  0  0  0  0  0  0  0  0  0  0  0
   -0.9354   -0.4230   -1.8914 C   0  0  0  0  0  0  0  0  0  0  0  0
    0.0579    0.5113   -2.2944 C   0  0  0  0  0  0  0  0  0  0  0  0
    1.5363    0.3283   -2.2389 C   0  0  0  0  0  0  0  0  0  0  0  0
   -0.7866   -1.7013   -1.2435 C   0  0  0  0  0  0  0  0  0  0  0  0
    0.2595   -2.0930   -0.4931 C   0  0  0  0  0  0  0  0  0  0  0  0
    0.3131   -3.3393    0.2055 C   0  0  0  0  0  0  0  0  0  0  0  0
    1.2730   -3.6180    1.1106 C   0  0  0  0  0  0  0  0  0  0  0  0
    1.3463   -4.7584    1.9715 C   0  0  0  0  0  0  0  0  0  0  0  0
    2.0944   -4.6823    3.1213 N   0  0  0  0  0  0  0  0  0  0  0  0
    1.8984   -5.7883    3.8725 C   0  0  0  0  0  0  0  0  0  0  0  0
    1.0563   -6.6416    3.1873 C   0  0  0  0  0  0  0  0  0  0  0  0
    0.7129   -5.9958    1.9706 C   0  0  0  0  0  0  0  0  0  0  0  0
   -0.1672   -6.5382    0.8985 C   0  0  0  0  0  0  0  0  0  0  0  0
    0.5000   -7.8623    3.7462 C   0  0  0  0  0  0  0  0  0  0  0  0
    0.3951   -9.0707    3.1882 C   0  0  0  0  0  0  0  0  0  0  0  0
   -0.2957  -10.1524    3.8804 C   0  0  0  0  0  0  0  0  0  0  0  0
   -1.5031   -9.9975    4.4407 C   0  0  0  0  0  0  0  0  0  0  0  0
   -2.3258   -8.8295    4.1935 C   0  0  0  0  0  0  0  0  0  0  0  0
   -2.5824   -8.3355    2.5578 S   0  0  0  0  0  0  0  0  0  0  0  0
   -2.9553   -7.9596    5.0679 C   0  0  0  0  0  0  0  0  0  0  0  0
   -2.9716   -8.0350    6.4827 C   0  0  0  0  0  0  0  0  0  0  0  0
   -3.6029   -7.0675    7.2060 C   0  0  0  0  0  0  0  0  0  0  0  0
   -3.6924   -7.0237    8.5640 O   0  0  0  0  0  0  0  0  0  0  0  0
   -3.0916   -8.0577    9.2990 C   0  0  0  0  0  0  0  0  0  0  0  0
   -4.2528   -5.9656    6.5404 C   0  0  0  0  0  0  0  0  0  0  0  0
   -4.8515   -5.0841    7.3884 O   0  0  0  0  0  0  0  0  0  0  0  0
   -5.5326   -3.9894    6.8341 C   0  0  0  0  0  0  0  0  0  0  0  0
   -4.2356   -5.8684    5.1792 C   0  0  0  0  0  0  0  0  0  0  0  0
   -3.5833   -6.8560    4.4064 C   0  0  0  0  0  0  0  0  0  0  0  0
   -3.4589   -6.9103    3.0187 C   0  0  0  0  0  0  0  0  0  0  0  0
   -3.8691   -5.9753    2.0284 C   0  0  0  0  0  0  0  0  0  0  0  0
   -3.8492   -6.2509    0.7044 C   0  0  0  0  0  0  0  0  0  0  0  0
   -4.1140   -5.3515   -0.3702 C   0  0  0  0  0  0  0  0  0  0  0  0
   -4.1147   -3.9845   -0.2391 N   0  0  0  0  0  0  0  0  0  0  0  0
   -4.3265   -3.4061   -1.4444 C   0  0  0  0  0  0  0  0  0  0  0  0
   -4.4992   -4.4006   -2.3891 C   0  0  0  0  0  0  0  0  0  0  0  0
   -4.3668   -5.6378   -1.7055 C   0  0  0  0  0  0  0  0  0  0  0  0
   -4.4737   -6.9808   -2.3398 C   0  0  0  0  0  0  0  0  0  0  0  0
   -4.8213   -4.2603   -3.7935 C   0  0  0  0  0  0  0  0  0  0  0  0
   -4.3590   -3.3315   -4.6432 C   0  0  0  0  0  0  0  0  0  0  0  0
   -3.3371   -2.3585   -4.3501 C   0  0  0  0  0  0  0  0  0  0  0  0
   -2.9797   -1.3872   -5.1864 C   0  0  0  0  0  0  0  0  0  0  0  0
    3.9334   14.3626   -0.8485 H   0  0  0  0  0  0  0  0  0  0  0  0
    3.1134   12.0276   -0.4526 H   0  0  0  0  0  0  0  0  0  0  0  0
    4.2832   10.3065   -1.8306 H   0  0  0  0  0  0  0  0  0  0  0  0
    7.1764   14.3993   -2.6305 H   0  0  0  0  0  0  0  0  0  0  0  0
    5.7924   15.4785   -2.4227 H   0  0  0  0  0  0  0  0  0  0  0  0
    6.0072   14.5872   -3.9362 H   0  0  0  0  0  0  0  0  0  0  0  0
    7.2789   12.1538   -3.6836 H   0  0  0  0  0  0  0  0  0  0  0  0
    7.3638   10.0631   -4.7184 H   0  0  0  0  0  0  0  0  0  0  0  0
    5.7715    8.2899   -4.3246 H   0  0  0  0  0  0  0  0  0  0  0  0
    3.7917   10.6010   -4.4747 H   0  0  0  0  0  0  0  0  0  0  0  0
    1.6375    9.8401   -5.4222 H   0  0  0  0  0  0  0  0  0  0  0  0
   -0.0226    7.9780   -5.3098 H   0  0  0  0  0  0  0  0  0  0  0  0
    4.6362    7.1802   -2.7287 H   0  0  0  0  0  0  0  0  0  0  0  0
    3.5292    5.8105   -2.6015 H   0  0  0  0  0  0  0  0  0  0  0  0
    4.6059    5.9451   -3.9918 H   0  0  0  0  0  0  0  0  0  0  0  0
    1.7844    4.8714   -3.5242 H   0  0  0  0  0  0  0  0  0  0  0  0
   -0.8857    5.8572   -4.6192 H   0  0  0  0  0  0  0  0  0  0  0  0
   -1.8147    3.8120   -3.9063 H   0  0  0  0  0  0  0  0  0  0  0  0
    1.0242    2.9173   -3.2077 H   0  0  0  0  0  0  0  0  0  0  0  0
   -2.6646    1.9930   -3.0699 H   0  0  0  0  0  0  0  0  0  0  0  0
   -3.1496   -0.2370   -2.0666 H   0  0  0  0  0  0  0  0  0  0  0  0
    1.9355    0.6328   -1.2697 H   0  0  0  0  0  0  0  0  0  0  0  0
    1.7906   -0.7170   -2.4022 H   0  0  0  0  0  0  0  0  0  0  0  0
    2.0234    0.9258   -3.0064 H   0  0  0  0  0  0  0  0  0  0  0  0
   -1.6355   -2.3700   -1.3349 H   0  0  0  0  0  0  0  0  0  0  0  0
    1.0900   -1.4213   -0.3342 H   0  0  0  0  0  0  0  0  0  0  0  0
   -0.4895   -4.0382    0.0265 H   0  0  0  0  0  0  0  0  0  0  0  0
    2.0382   -2.8678    1.2874 H   0  0  0  0  0  0  0  0  0  0  0  0
    2.6597   -3.8906    3.3788 H   0  0  0  0  0  0  0  0  0  0  0  0
    2.3799   -5.9227    4.8215 H   0  0  0  0  0  0  0  0  0  0  0  0
   -0.2740   -7.6132    1.0052 H   0  0  0  0  0  0  0  0  0  0  0  0
   -1.1634   -6.0973    0.9508 H   0  0  0  0  0  0  0  0  0  0  0  0
    0.2506   -6.3180   -0.0827 H   0  0  0  0  0  0  0  0  0  0  0  0
    0.1107   -7.7411    4.7526 H   0  0  0  0  0  0  0  0  0  0  0  0
    0.8571   -9.2956    2.2361 H   0  0  0  0  0  0  0  0  0  0  0  0
    0.2273  -11.0963    3.9689 H   0  0  0  0  0  0  0  0  0  0  0  0
   -1.9287  -10.7782    5.0601 H   0  0  0  0  0  0  0  0  0  0  0  0
   -2.4782   -8.8689    6.9551 H   0  0  0  0  0  0  0  0  0  0  0  0
   -3.5354   -9.0310    9.0622 H   0  0  0  0  0  0  0  0  0  0  0  0
   -2.0111   -8.1024    9.1233 H   0  0  0  0  0  0  0  0  0  0  0  0
   -3.2771   -7.8221   10.3459 H   0  0  0  0  0  0  0  0  0  0  0  0
   -6.3504   -4.3123    6.1804 H   0  0  0  0  0  0  0  0  0  0  0  0
   -5.9430   -3.4385    7.6788 H   0  0  0  0  0  0  0  0  0  0  0  0
   -4.8567   -3.3366    6.2707 H   0  0  0  0  0  0  0  0  0  0  0  0
   -4.7184   -5.0492    4.6718 H   0  0  0  0  0  0  0  0  0  0  0  0
   -4.1917   -5.0072    2.3896 H   0  0  0  0  0  0  0  0  0  0  0  0
   -3.5956   -7.2597    0.4064 H   0  0  0  0  0  0  0  0  0  0  0  0
   -3.9349   -3.4949    0.6208 H   0  0  0  0  0  0  0  0  0  0  0  0
   -4.3969   -2.3416   -1.5502 H   0  0  0  0  0  0  0  0  0  0  0  0
   -4.4032   -7.7703   -1.5976 H   0  0  0  0  0  0  0  0  0  0  0  0
   -3.6800   -7.1186   -3.0744 H   0  0  0  0  0  0  0  0  0  0  0  0
   -5.4264   -7.0805   -2.8597 H   0  0  0  0  0  0  0  0  0  0  0  0
   -5.5112   -5.0060   -4.1713 H   0  0  0  0  0  0  0  0  0  0  0  0
   -4.7355   -3.3235   -5.6588 H   0  0  0  0  0  0  0  0  0  0  0  0
   -2.8211   -2.4714   -3.4077 H   0  0  0  0  0  0  0  0  0  0  0  0
   -3.4744   -1.2475   -6.1344 H   0  0  0  0  0  0  0  0  0  0  0  0
   -2.1849   -0.7000   -4.9524 H   0  0  0  0  0  0  0  0  0  0  0  0
  1  2  1  0  0  0  0
  2  3  1  0  0  0  0
  3  4  2  0  0  0  0
  4  5  1  0  0  0  0
  5  6  1  0  0  0  0
  4  7  1  0  0  0  0
  7  8  2  0  0  0  0
  8  9  1  0  0  0  0
  9 10  2  0  0  0  0
 10 11  1  0  0  0  0
 11 12  1  0  0  0  0
 12 13  1  0  0  0  0
 13 14  2  0  0  0  0
 14 15  1  0  0  0  0
 15 16  1  0  0  0  0
 14 17  1  0  0  0  0
 17 18  2  0  0  0  0
 18 19  1  0  0  0  0
 19 20  2  0  0  0  0
 20 21  1  0  0  0  0
 21 22  1  0  0  0  0
 22 23  1  0  0  0  0
 23 24  2  0  0  0  0
 24 25  1  0  0  0  0
 25 26  1  0  0  0  0
 24 27  1  0  0  0  0
 27 28  2  0  0  0  0
 28 29  1  0  0  0  0
 29 30  2  0  0  0  0
 30 31  1  0  0  0  0
 31 32  1  0  0  0  0
 32 33  1  0  0  0  0
 33 34  2  0  0  0  0
 34 35  1  0  0  0  0
 35 36  1  0  0  0  0
 34 37  1  0  0  0  0
 37 38  2  0  0  0  0
 38 39  1  0  0  0  0
 39 40  2  0  0  0  0
 40 41  1  0  0  0  0
 41 42  1  0  0  0  0
 41 43  2  0  0  0  0
 43 44  1  0  0  0  0
 44 45  2  0  0  0  0
 45 46  1  0  0  0  0
 46 47  1  0  0  0  0
 45 48  1  0  0  0  0
 48 49  1  0  0  0  0
 49 50  1  0  0  0  0
 48 51  2  0  0  0  0
 51 52  1  0  0  0  0
 52 53  2  0  0  0  0
 53 54  1  0  0  0  0
 54 55  2  0  0  0  0
 55 56  1  0  0  0  0
 56 57  1  0  0  0  0
 57 58  1  0  0  0  0
 58 59  2  0  0  0  0
 59 60  1  0  0  0  0
 60 61  1  0  0  0  0
 59 62  1  0  0  0  0
 62 63  2  0  0  0  0
 63 64  1  0  0  0  0
 64 65  2  0  0  0  0
  5  1  2  0  0  0  0
 15 11  2  0  0  0  0
 25 21  2  0  0  0  0
 35 31  2  0  0  0  0
 53 42  1  0  0  0  0
 60 56  2  0  0  0  0
 52 43  1  0  0  0  0
  1 66  1  0  0  0  0
  2 67  1  0  0  0  0
  3 68  1  0  0  0  0
  6 69  1  0  0  0  0
  6 70  1  0  0  0  0
  6 71  1  0  0  0  0
  7 72  1  0  0  0  0
  8 73  1  0  0  0  0
  9 74  1  0  0  0  0
 10 75  1  0  0  0  0
 12 76  1  0  0  0  0
 13 77  1  0  0  0  0
 16 78  1  0  0  0  0
 16 79  1  0  0  0  0
 16 80  1  0  0  0  0
 17 81  1  0  0  0  0
 18 82  1  0  0  0  0
 19 83  1  0  0  0  0
 20 84  1  0  0  0  0
 22 85  1  0  0  0  0
 23 86  1  0  0  0  0
 26 87  1  0  0  0  0
 26 88  1  0  0  0  0
 26 89  1  0  0  0  0
 27 90  1  0  0  0  0
 28 91  1  0  0  0  0
 29 92  1  0  0  0  0
 30 93  1  0  0  0  0
 32 94  1  0  0  0  0
 33 95  1  0  0  0  0
 36 96  1  0  0  0  0
 36 97  1  0  0  0  0
 36 98  1  0  0  0  0
 37 99  1  0  0  0  0
 38100  1  0  0  0  0
 39101  1  0  0  0  0
 40102  1  0  0  0  0
 44103  1  0  0  0  0
 47104  1  0  0  0  0
 47105  1  0  0  0  0
 47106  1  0  0  0  0
 50107  1  0  0  0  0
 50108  1  0  0  0  0
 50109  1  0  0  0  0
 51110  1  0  0  0  0
 54111  1  0  0  0  0
 55112  1  0  0  0  0
 57113  1  0  0  0  0
 58114  1  0  0  0  0
 61115  1  0  0  0  0
 61116  1  0  0  0  0
 61117  1  0  0  0  0
 62118  1  0  0  0  0
 63119  1  0  0  0  0
 64120  1  0  0  0  0
 65121  1  0  0  0  0
 65122  1  0  0  0  0
M  END
