
  xtb     03042218013D
 energy: -344.369935710106 gnorm: 0.000560182239 xtb: 6.4.1 (unknown)
202219  0     0  0            999 V2000
   -0.7078   -8.2093    5.3960 C   0  0  0  0  0  0  0  0  0  0  0  0
   -0.9926   -7.0174    4.2128 S   0  0  0  0  0  0  0  0  0  0  0  0
    0.6338   -8.3431    5.6759 C   0  0  0  0  0  0  0  0  0  0  0  0
    1.2286   -9.2432    6.5890 C   0  0  0  0  0  0  0  0  0  0  0  0
    2.5858   -9.2953    6.7387 C   0  0  0  0  0  0  0  0  0  0  0  0
    3.2146  -10.1391    7.6137 O   0  0  0  0  0  0  0  0  0  0  0  0
    2.4297  -10.9956    8.4045 C   0  0  0  0  0  0  0  0  0  0  0  0
    3.4197   -8.4383    5.9380 C   0  0  0  0  0  0  0  0  0  0  0  0
    4.7792   -8.4039    5.9420 O   0  0  0  0  0  0  0  0  0  0  0  0
    5.5634   -9.2689    6.7304 C   0  0  0  0  0  0  0  0  0  0  0  0
    2.8467   -7.5483    5.0615 C   0  0  0  0  0  0  0  0  0  0  0  0
    1.4531   -7.4475    4.9132 C   0  0  0  0  0  0  0  0  0  0  0  0
    0.6985   -6.6263    4.0675 C   0  0  0  0  0  0  0  0  0  0  0  0
    1.0433   -5.5899    3.1622 C   0  0  0  0  0  0  0  0  0  0  0  0
    2.2127   -4.9116    3.0969 C   0  0  0  0  0  0  0  0  0  0  0  0
    2.4959   -3.9055    2.1284 C   0  0  0  0  0  0  0  0  0  0  0  0
    1.7617   -3.4909    1.0509 C   0  0  0  0  0  0  0  0  0  0  0  0
    2.3960   -2.4927    0.2759 C   0  0  0  0  0  0  0  0  0  0  0  0
    1.9197   -1.8630   -0.8852 C   0  0  0  0  0  0  0  0  0  0  0  0
    0.5799   -2.1356   -1.4276 C   0  0  0  0  0  0  0  0  0  0  0  0
   -0.3513   -1.1052   -1.5430 C   0  0  0  0  0  0  0  0  0  0  0  0
   -1.6220   -1.3522   -2.0067 C   0  0  0  0  0  0  0  0  0  0  0  0
   -2.0151   -2.6269   -2.4191 C   0  0  0  0  0  0  0  0  0  0  0  0
   -3.6765   -2.7361   -3.0175 S   0  0  0  0  0  0  0  0  0  0  0  0
   -4.1351   -4.5047   -3.0901 C   0  0  0  0  0  0  0  0  0  0  0  0
   -4.2303   -5.1519   -1.7230 C   0  0  0  0  0  0  0  0  0  0  0  0
   -1.0613   -3.6351   -2.3436 C   0  0  0  0  0  0  0  0  0  0  0  0
   -1.3282   -4.8947   -2.7652 F   0  0  0  0  0  0  0  0  0  0  0  0
    0.2038   -3.4084   -1.8337 C   0  0  0  0  0  0  0  0  0  0  0  0
    2.7579   -0.9387   -1.4806 C   0  0  0  0  0  0  0  0  0  0  0  0
    4.0294   -0.5808   -0.9671 C   0  0  0  0  0  0  0  0  0  0  0  0
    4.4726   -1.1530    0.2379 C   0  0  0  0  0  0  0  0  0  0  0  0
    5.6975   -0.6919    0.9024 C   0  0  0  0  0  0  0  0  0  0  0  0
    6.9234   -0.6181    0.2505 C   0  0  0  0  0  0  0  0  0  0  0  0
    8.0466   -0.1296    0.8918 C   0  0  0  0  0  0  0  0  0  0  0  0
    7.9788    0.3144    2.2066 C   0  0  0  0  0  0  0  0  0  0  0  0
    9.3224    0.9507    3.1559 S   0  0  0  0  0  0  0  0  0  0  0  0
   10.6271    1.2807    1.9241 C   0  0  0  0  0  0  0  0  0  0  0  0
   10.2923    2.4726    1.0476 C   0  0  0  0  0  0  0  0  0  0  0  0
    6.7456    0.2208    2.8521 C   0  0  0  0  0  0  0  0  0  0  0  0
    5.6240   -0.2743    2.2300 C   0  0  0  0  0  0  0  0  0  0  0  0
    6.6434    0.6468    4.1297 F   0  0  0  0  0  0  0  0  0  0  0  0
    3.6516   -2.1112    0.8132 C   0  0  0  0  0  0  0  0  0  0  0  0
    4.0169   -3.0344    2.2455 S   0  0  0  0  0  0  0  0  0  0  0  0
    4.6748    0.3895   -1.7759 C   0  0  0  0  0  0  0  0  0  0  0  0
    3.9628    0.7472   -2.8850 C   0  0  0  0  0  0  0  0  0  0  0  0
    2.4097   -0.0851   -2.9562 S   0  0  0  0  0  0  0  0  0  0  0  0
    4.2208    1.6710   -3.9346 C   0  0  0  0  0  0  0  0  0  0  0  0
    3.1573    1.5783   -5.3046 S   0  0  0  0  0  0  0  0  0  0  0  0
    5.1023    2.7449   -4.0692 C   0  0  0  0  0  0  0  0  0  0  0  0
    6.1378    3.1605   -3.2019 C   0  0  0  0  0  0  0  0  0  0  0  0
    6.8795    4.2694   -3.5000 C   0  0  0  0  0  0  0  0  0  0  0  0
    7.9141    4.7457   -2.7673 O   0  0  0  0  0  0  0  0  0  0  0  0
    8.3258    4.0158   -1.6376 C   0  0  0  0  0  0  0  0  0  0  0  0
    6.6025    5.0473   -4.6833 C   0  0  0  0  0  0  0  0  0  0  0  0
    7.4164    6.1208   -4.8460 O   0  0  0  0  0  0  0  0  0  0  0  0
    7.2297    6.9281   -5.9809 C   0  0  0  0  0  0  0  0  0  0  0  0
    5.5936    4.6805   -5.5233 C   0  0  0  0  0  0  0  0  0  0  0  0
    4.8363    3.5179   -5.2471 C   0  0  0  0  0  0  0  0  0  0  0  0
    3.7546    3.0510   -5.9806 C   0  0  0  0  0  0  0  0  0  0  0  0
    3.0469    3.6852   -7.0665 C   0  0  0  0  0  0  0  0  0  0  0  0
    1.7134    3.8699   -7.0661 C   0  0  0  0  0  0  0  0  0  0  0  0
    0.8517    3.5944   -5.9446 C   0  0  0  0  0  0  0  0  0  0  0  0
    1.1578    3.6272   -4.6164 C   0  0  0  0  0  0  0  0  0  0  0  0
    0.0982    3.2546   -3.7541 C   0  0  0  0  0  0  0  0  0  0  0  0
    0.1218    3.0771   -2.3535 C   0  0  0  0  0  0  0  0  0  0  0  0
    1.3629    3.1938   -1.5759 C   0  0  0  0  0  0  0  0  0  0  0  0
    2.3165    4.1872   -1.8030 C   0  0  0  0  0  0  0  0  0  0  0  0
    3.5279    4.1777   -1.1401 C   0  0  0  0  0  0  0  0  0  0  0  0
    3.8224    3.2070   -0.1900 C   0  0  0  0  0  0  0  0  0  0  0  0
    5.4323    3.1656    0.5598 S   0  0  0  0  0  0  0  0  0  0  0  0
    5.0351    3.2484    2.3426 C   0  0  0  0  0  0  0  0  0  0  0  0
    4.3374    4.5452    2.6974 C   0  0  0  0  0  0  0  0  0  0  0  0
    2.8383    2.2677    0.0904 C   0  0  0  0  0  0  0  0  0  0  0  0
    3.0340    1.3327    1.0438 F   0  0  0  0  0  0  0  0  0  0  0  0
    1.6408    2.2482   -0.5892 C   0  0  0  0  0  0  0  0  0  0  0  0
   -1.0789    2.6934   -1.7658 C   0  0  0  0  0  0  0  0  0  0  0  0
   -2.2574    2.4309   -2.5071 C   0  0  0  0  0  0  0  0  0  0  0  0
   -2.2526    2.5223   -3.9080 C   0  0  0  0  0  0  0  0  0  0  0  0
   -3.4328    2.1457   -4.6947 C   0  0  0  0  0  0  0  0  0  0  0  0
   -4.0452    0.9072   -4.5046 C   0  0  0  0  0  0  0  0  0  0  0  0
   -5.1364    0.5382   -5.2604 C   0  0  0  0  0  0  0  0  0  0  0  0
   -5.6745    1.3935   -6.2193 C   0  0  0  0  0  0  0  0  0  0  0  0
   -7.1077    0.8362   -7.0961 S   0  0  0  0  0  0  0  0  0  0  0  0
   -6.7986    1.3723   -8.8193 C   0  0  0  0  0  0  0  0  0  0  0  0
   -5.4975    0.8164   -9.3619 C   0  0  0  0  0  0  0  0  0  0  0  0
   -5.0721    2.6375   -6.3784 C   0  0  0  0  0  0  0  0  0  0  0  0
   -3.9597    3.0077   -5.6499 C   0  0  0  0  0  0  0  0  0  0  0  0
   -5.5661    3.5370   -7.2581 F   0  0  0  0  0  0  0  0  0  0  0  0
   -1.0781    2.9636   -4.4927 C   0  0  0  0  0  0  0  0  0  0  0  0
   -0.8242    3.1587   -6.2070 S   0  0  0  0  0  0  0  0  0  0  0  0
   -3.3703    2.1518   -1.6785 C   0  0  0  0  0  0  0  0  0  0  0  0
   -3.0895    2.1887   -0.3414 C   0  0  0  0  0  0  0  0  0  0  0  0
   -1.3942    2.5479   -0.0514 S   0  0  0  0  0  0  0  0  0  0  0  0
   -3.9891    2.0421    0.7474 C   0  0  0  0  0  0  0  0  0  0  0  0
   -3.6453    2.7850    2.2747 S   0  0  0  0  0  0  0  0  0  0  0  0
   -5.2421    1.4259    0.7724 C   0  0  0  0  0  0  0  0  0  0  0  0
   -5.8159    0.5907   -0.2118 C   0  0  0  0  0  0  0  0  0  0  0  0
   -7.0673    0.0778   -0.0242 C   0  0  0  0  0  0  0  0  0  0  0  0
   -7.7016   -0.7754   -0.8678 O   0  0  0  0  0  0  0  0  0  0  0  0
   -7.0406   -1.1558   -2.0508 C   0  0  0  0  0  0  0  0  0  0  0  0
   -7.8433    0.4605    1.1281 C   0  0  0  0  0  0  0  0  0  0  0  0
   -9.1191   -0.0066    1.1188 O   0  0  0  0  0  0  0  0  0  0  0  0
   -9.9945    0.4324    2.1295 C   0  0  0  0  0  0  0  0  0  0  0  0
   -7.2821    1.2198    2.1131 C   0  0  0  0  0  0  0  0  0  0  0  0
   -5.9331    1.6322    2.0032 C   0  0  0  0  0  0  0  0  0  0  0  0
   -5.1634    2.2933    2.9641 C   0  0  0  0  0  0  0  0  0  0  0  0
   -5.3793    2.5320    4.3539 C   0  0  0  0  0  0  0  0  0  0  0  0
   -6.0753    1.7811    5.2469 C   0  0  0  0  0  0  0  0  0  0  0  0
   -6.6741    0.5074    5.0357 C   0  0  0  0  0  0  0  0  0  0  0  0
   -8.1456    0.1077    5.8741 S   0  0  0  0  0  0  0  0  0  0  0  0
   -6.3515   -0.5067    4.1319 C   0  0  0  0  0  0  0  0  0  0  0  0
   -5.1710   -0.6595    3.3860 C   0  0  0  0  0  0  0  0  0  0  0  0
   -5.0757   -1.5975    2.3908 C   0  0  0  0  0  0  0  0  0  0  0  0
   -3.8818   -1.5964    1.7417 O   0  0  0  0  0  0  0  0  0  0  0  0
   -3.5610   -2.5586    0.7673 C   0  0  0  0  0  0  0  0  0  0  0  0
   -6.2040   -2.4457    2.1161 C   0  0  0  0  0  0  0  0  0  0  0  0
   -6.1485   -3.2343    0.9983 O   0  0  0  0  0  0  0  0  0  0  0  0
   -7.3452   -3.8396    0.5648 C   0  0  0  0  0  0  0  0  0  0  0  0
   -7.2795   -2.4363    2.9642 C   0  0  0  0  0  0  0  0  0  0  0  0
   -7.3718   -1.4964    4.0116 C   0  0  0  0  0  0  0  0  0  0  0  0
   -8.4146   -1.3199    4.9221 C   0  0  0  0  0  0  0  0  0  0  0  0
   -9.5808   -2.1278    5.0928 C   0  0  0  0  0  0  0  0  0  0  0  0
  -10.5569   -1.8962    5.9726 C   0  0  0  0  0  0  0  0  0  0  0  0
   -1.5295   -8.7471    5.8249 H   0  0  0  0  0  0  0  0  0  0  0  0
    0.5757   -9.8869    7.1553 H   0  0  0  0  0  0  0  0  0  0  0  0
    1.8505  -11.6924    7.7901 H   0  0  0  0  0  0  0  0  0  0  0  0
    1.7525  -10.4340    9.0557 H   0  0  0  0  0  0  0  0  0  0  0  0
    3.1363  -11.5554    9.0154 H   0  0  0  0  0  0  0  0  0  0  0  0
    5.3840  -10.3182    6.4855 H   0  0  0  0  0  0  0  0  0  0  0  0
    5.3950   -9.1129    7.7978 H   0  0  0  0  0  0  0  0  0  0  0  0
    6.5937   -9.0112    6.4847 H   0  0  0  0  0  0  0  0  0  0  0  0
    3.5162   -6.9484    4.4703 H   0  0  0  0  0  0  0  0  0  0  0  0
    0.2479   -5.3066    2.4843 H   0  0  0  0  0  0  0  0  0  0  0  0
    2.9951   -5.1017    3.8143 H   0  0  0  0  0  0  0  0  0  0  0  0
    0.7950   -3.8901    0.8040 H   0  0  0  0  0  0  0  0  0  0  0  0
   -0.0845   -0.1048   -1.2460 H   0  0  0  0  0  0  0  0  0  0  0  0
   -2.3419   -0.5498   -2.0526 H   0  0  0  0  0  0  0  0  0  0  0  0
   -3.4313   -5.0198   -3.7394 H   0  0  0  0  0  0  0  0  0  0  0  0
   -5.1104   -4.4781   -3.5785 H   0  0  0  0  0  0  0  0  0  0  0  0
   -4.9031   -4.5941   -1.0768 H   0  0  0  0  0  0  0  0  0  0  0  0
   -3.2560   -5.1986   -1.2437 H   0  0  0  0  0  0  0  0  0  0  0  0
   -4.6055   -6.1677   -1.8305 H   0  0  0  0  0  0  0  0  0  0  0  0
    0.8977   -4.2340   -1.7899 H   0  0  0  0  0  0  0  0  0  0  0  0
    7.0097   -0.9712   -0.7664 H   0  0  0  0  0  0  0  0  0  0  0  0
    8.9811   -0.1033    0.3546 H   0  0  0  0  0  0  0  0  0  0  0  0
   11.5104    1.4785    2.5314 H   0  0  0  0  0  0  0  0  0  0  0  0
   10.8005    0.3731    1.3473 H   0  0  0  0  0  0  0  0  0  0  0  0
   11.0858    2.6360    0.3210 H   0  0  0  0  0  0  0  0  0  0  0  0
   10.1874    3.3670    1.6568 H   0  0  0  0  0  0  0  0  0  0  0  0
    9.3572    2.3130    0.5154 H   0  0  0  0  0  0  0  0  0  0  0  0
    4.6908   -0.3058    2.7694 H   0  0  0  0  0  0  0  0  0  0  0  0
    5.6378    0.7946   -1.5314 H   0  0  0  0  0  0  0  0  0  0  0  0
    6.3263    2.6002   -2.3037 H   0  0  0  0  0  0  0  0  0  0  0  0
    8.6294    3.0004   -1.9139 H   0  0  0  0  0  0  0  0  0  0  0  0
    9.1824    4.5548   -1.2368 H   0  0  0  0  0  0  0  0  0  0  0  0
    7.5381    3.9641   -0.8804 H   0  0  0  0  0  0  0  0  0  0  0  0
    6.2341    7.3841   -5.9910 H   0  0  0  0  0  0  0  0  0  0  0  0
    7.9841    7.7101   -5.9140 H   0  0  0  0  0  0  0  0  0  0  0  0
    7.3762    6.3603   -6.9059 H   0  0  0  0  0  0  0  0  0  0  0  0
    5.3575    5.2444   -6.4104 H   0  0  0  0  0  0  0  0  0  0  0  0
    3.6307    4.0267   -7.9116 H   0  0  0  0  0  0  0  0  0  0  0  0
    1.2297    4.2619   -7.9504 H   0  0  0  0  0  0  0  0  0  0  0  0
    2.1308    3.9123   -4.2664 H   0  0  0  0  0  0  0  0  0  0  0  0
    2.1012    4.9952   -2.4841 H   0  0  0  0  0  0  0  0  0  0  0  0
    4.2687    4.9327   -1.3536 H   0  0  0  0  0  0  0  0  0  0  0  0
    6.0050    3.1707    2.8328 H   0  0  0  0  0  0  0  0  0  0  0  0
    4.4360    2.3787    2.6009 H   0  0  0  0  0  0  0  0  0  0  0  0
    4.9469    5.3993    2.4089 H   0  0  0  0  0  0  0  0  0  0  0  0
    4.1666    4.5842    3.7712 H   0  0  0  0  0  0  0  0  0  0  0  0
    3.3758    4.6183    2.1908 H   0  0  0  0  0  0  0  0  0  0  0  0
    0.9449    1.4627   -0.3463 H   0  0  0  0  0  0  0  0  0  0  0  0
   -3.6393    0.2091   -3.7891 H   0  0  0  0  0  0  0  0  0  0  0  0
   -5.5886   -0.4320   -5.1231 H   0  0  0  0  0  0  0  0  0  0  0  0
   -7.6551    0.9724   -9.3622 H   0  0  0  0  0  0  0  0  0  0  0  0
   -6.8275    2.4588   -8.8623 H   0  0  0  0  0  0  0  0  0  0  0  0
   -5.4812   -0.2683   -9.2787 H   0  0  0  0  0  0  0  0  0  0  0  0
   -5.3921    1.0893  -10.4100 H   0  0  0  0  0  0  0  0  0  0  0  0
   -4.6455    1.2172   -8.8155 H   0  0  0  0  0  0  0  0  0  0  0  0
   -3.5329    3.9845   -5.8156 H   0  0  0  0  0  0  0  0  0  0  0  0
   -4.3618    2.0230   -2.0702 H   0  0  0  0  0  0  0  0  0  0  0  0
   -5.2367    0.3345   -1.0818 H   0  0  0  0  0  0  0  0  0  0  0  0
   -7.7274   -1.8225   -2.5695 H   0  0  0  0  0  0  0  0  0  0  0  0
   -6.8273   -0.2918   -2.6882 H   0  0  0  0  0  0  0  0  0  0  0  0
   -6.1061   -1.6853   -1.8400 H   0  0  0  0  0  0  0  0  0  0  0  0
  -10.0745    1.5240    2.1398 H   0  0  0  0  0  0  0  0  0  0  0  0
  -10.9639    0.0005    1.8869 H   0  0  0  0  0  0  0  0  0  0  0  0
   -9.6812    0.0827    3.1171 H   0  0  0  0  0  0  0  0  0  0  0  0
   -7.8445    1.5194    2.9803 H   0  0  0  0  0  0  0  0  0  0  0  0
   -4.8818    3.4134    4.7414 H   0  0  0  0  0  0  0  0  0  0  0  0
   -6.2316    2.2054    6.2314 H   0  0  0  0  0  0  0  0  0  0  0  0
   -4.3158   -0.0343    3.5779 H   0  0  0  0  0  0  0  0  0  0  0  0
   -3.7078   -3.5764    1.1358 H   0  0  0  0  0  0  0  0  0  0  0  0
   -2.5046   -2.3987    0.5475 H   0  0  0  0  0  0  0  0  0  0  0  0
   -4.1431   -2.4112   -0.1448 H   0  0  0  0  0  0  0  0  0  0  0  0
   -7.1283   -4.2558   -0.4182 H   0  0  0  0  0  0  0  0  0  0  0  0
   -8.1482   -3.1021    0.4772 H   0  0  0  0  0  0  0  0  0  0  0  0
   -7.6528   -4.6501    1.2332 H   0  0  0  0  0  0  0  0  0  0  0  0
   -8.0980   -3.1201    2.8147 H   0  0  0  0  0  0  0  0  0  0  0  0
   -9.6406   -2.9889    4.4402 H   0  0  0  0  0  0  0  0  0  0  0  0
  -10.5231   -1.0495    6.6378 H   0  0  0  0  0  0  0  0  0  0  0  0
  -11.4082   -2.5474    6.0555 H   0  0  0  0  0  0  0  0  0  0  0  0
  1  2  1  0  0  0  0
  1  3  2  0  0  0  0
  3  4  1  0  0  0  0
  4  5  2  0  0  0  0
  5  6  1  0  0  0  0
  6  7  1  0  0  0  0
  5  8  1  0  0  0  0
  8  9  1  0  0  0  0
  9 10  1  0  0  0  0
  8 11  2  0  0  0  0
 11 12  1  0  0  0  0
 12 13  2  0  0  0  0
 13 14  1  0  0  0  0
 14 15  2  0  0  0  0
 15 16  1  0  0  0  0
 16 17  2  0  0  0  0
 17 18  1  0  0  0  0
 18 19  2  0  0  0  0
 19 20  1  0  0  0  0
 20 21  2  0  0  0  0
 21 22  1  0  0  0  0
 22 23  2  0  0  0  0
 23 24  1  0  0  0  0
 24 25  1  0  0  0  0
 25 26  1  0  0  0  0
 23 27  1  0  0  0  0
 27 28  1  0  0  0  0
 27 29  2  0  0  0  0
 19 30  1  0  0  0  0
 30 31  2  0  0  0  0
 31 32  1  0  0  0  0
 32 33  1  0  0  0  0
 33 34  2  0  0  0  0
 34 35  1  0  0  0  0
 35 36  2  0  0  0  0
 36 37  1  0  0  0  0
 37 38  1  0  0  0  0
 38 39  1  0  0  0  0
 36 40  1  0  0  0  0
 40 41  2  0  0  0  0
 40 42  1  0  0  0  0
 32 43  2  0  0  0  0
 43 44  1  0  0  0  0
 31 45  1  0  0  0  0
 45 46  2  0  0  0  0
 46 47  1  0  0  0  0
 46 48  1  0  0  0  0
 48 49  1  0  0  0  0
 48 50  2  0  0  0  0
 50 51  1  0  0  0  0
 51 52  2  0  0  0  0
 52 53  1  0  0  0  0
 53 54  1  0  0  0  0
 52 55  1  0  0  0  0
 55 56  1  0  0  0  0
 56 57  1  0  0  0  0
 55 58  2  0  0  0  0
 58 59  1  0  0  0  0
 59 60  2  0  0  0  0
 60 61  1  0  0  0  0
 61 62  2  0  0  0  0
 62 63  1  0  0  0  0
 63 64  2  0  0  0  0
 64 65  1  0  0  0  0
 65 66  2  0  0  0  0
 66 67  1  0  0  0  0
 67 68  2  0  0  0  0
 68 69  1  0  0  0  0
 69 70  2  0  0  0  0
 70 71  1  0  0  0  0
 71 72  1  0  0  0  0
 72 73  1  0  0  0  0
 70 74  1  0  0  0  0
 74 75  1  0  0  0  0
 74 76  2  0  0  0  0
 66 77  1  0  0  0  0
 77 78  2  0  0  0  0
 78 79  1  0  0  0  0
 79 80  1  0  0  0  0
 80 81  2  0  0  0  0
 81 82  1  0  0  0  0
 82 83  2  0  0  0  0
 83 84  1  0  0  0  0
 84 85  1  0  0  0  0
 85 86  1  0  0  0  0
 83 87  1  0  0  0  0
 87 88  2  0  0  0  0
 87 89  1  0  0  0  0
 79 90  2  0  0  0  0
 90 91  1  0  0  0  0
 78 92  1  0  0  0  0
 92 93  2  0  0  0  0
 93 94  1  0  0  0  0
 93 95  1  0  0  0  0
 95 96  1  0  0  0  0
 95 97  2  0  0  0  0
 97 98  1  0  0  0  0
 98 99  2  0  0  0  0
 99100  1  0  0  0  0
100101  1  0  0  0  0
 99102  1  0  0  0  0
102103  1  0  0  0  0
103104  1  0  0  0  0
102105  2  0  0  0  0
105106  1  0  0  0  0
106107  2  0  0  0  0
107108  1  0  0  0  0
108109  2  0  0  0  0
109110  1  0  0  0  0
110111  1  0  0  0  0
110112  2  0  0  0  0
112113  1  0  0  0  0
113114  2  0  0  0  0
114115  1  0  0  0  0
115116  1  0  0  0  0
114117  1  0  0  0  0
117118  1  0  0  0  0
118119  1  0  0  0  0
117120  2  0  0  0  0
120121  1  0  0  0  0
121122  2  0  0  0  0
122123  1  0  0  0  0
123124  2  0  0  0  0
 13  2  1  0  0  0  0
 44 16  1  0  0  0  0
 60 49  1  0  0  0  0
 91 63  1  0  0  0  0
107 96  1  0  0  0  0
122111  1  0  0  0  0
 12  3  1  0  0  0  0
 43 18  1  0  0  0  0
 59 50  1  0  0  0  0
 90 65  1  0  0  0  0
106 97  1  0  0  0  0
121112  1  0  0  0  0
 29 20  1  0  0  0  0
 47 30  1  0  0  0  0
 76 67  1  0  0  0  0
 94 77  1  0  0  0  0
 41 33  1  0  0  0  0
 88 80  1  0  0  0  0
  1125  1  0  0  0  0
  4126  1  0  0  0  0
  7127  1  0  0  0  0
  7128  1  0  0  0  0
  7129  1  0  0  0  0
 10130  1  0  0  0  0
 10131  1  0  0  0  0
 10132  1  0  0  0  0
 11133  1  0  0  0  0
 14134  1  0  0  0  0
 15135  1  0  0  0  0
 17136  1  0  0  0  0
 21137  1  0  0  0  0
 22138  1  0  0  0  0
 25139  1  0  0  0  0
 25140  1  0  0  0  0
 26141  1  0  0  0  0
 26142  1  0  0  0  0
 26143  1  0  0  0  0
 29144  1  0  0  0  0
 34145  1  0  0  0  0
 35146  1  0  0  0  0
 38147  1  0  0  0  0
 38148  1  0  0  0  0
 39149  1  0  0  0  0
 39150  1  0  0  0  0
 39151  1  0  0  0  0
 41152  1  0  0  0  0
 45153  1  0  0  0  0
 51154  1  0  0  0  0
 54155  1  0  0  0  0
 54156  1  0  0  0  0
 54157  1  0  0  0  0
 57158  1  0  0  0  0
 57159  1  0  0  0  0
 57160  1  0  0  0  0
 58161  1  0  0  0  0
 61162  1  0  0  0  0
 62163  1  0  0  0  0
 64164  1  0  0  0  0
 68165  1  0  0  0  0
 69166  1  0  0  0  0
 72167  1  0  0  0  0
 72168  1  0  0  0  0
 73169  1  0  0  0  0
 73170  1  0  0  0  0
 73171  1  0  0  0  0
 76172  1  0  0  0  0
 81173  1  0  0  0  0
 82174  1  0  0  0  0
 85175  1  0  0  0  0
 85176  1  0  0  0  0
 86177  1  0  0  0  0
 86178  1  0  0  0  0
 86179  1  0  0  0  0
 88180  1  0  0  0  0
 92181  1  0  0  0  0
 98182  1  0  0  0  0
101183  1  0  0  0  0
101184  1  0  0  0  0
101185  1  0  0  0  0
104186  1  0  0  0  0
104187  1  0  0  0  0
104188  1  0  0  0  0
105189  1  0  0  0  0
108190  1  0  0  0  0
109191  1  0  0  0  0
113192  1  0  0  0  0
116193  1  0  0  0  0
116194  1  0  0  0  0
116195  1  0  0  0  0
119196  1  0  0  0  0
119197  1  0  0  0  0
119198  1  0  0  0  0
120199  1  0  0  0  0
123200  1  0  0  0  0
124201  1  0  0  0  0
124202  1  0  0  0  0
M  END
