
  xtb     03072214103D
 energy: -479.928658628013 gnorm: 0.000439841544 xtb: 6.4.1 (unknown)
277303  0     0  0            999 V2000
   -2.5887    4.6295   16.2428 C   0  0  0  0  0  0  0  0  0  0  0  0
   -1.5188    4.0630   16.8357 C   0  0  0  0  0  0  0  0  0  0  0  0
   -0.5322    3.6232   15.9030 C   0  0  0  0  0  0  0  0  0  0  0  0
    0.6980    3.0016   16.1680 C   0  0  0  0  0  0  0  0  0  0  0  0
    1.0942    2.6229   17.5298 C   0  0  0  0  0  0  0  0  0  0  0  0
    0.2439    1.8748   18.3383 C   0  0  0  0  0  0  0  0  0  0  0  0
    0.6178    1.4931   19.6126 C   0  0  0  0  0  0  0  0  0  0  0  0
    1.8548    1.8590   20.1301 C   0  0  0  0  0  0  0  0  0  0  0  0
    2.4739    1.4353   21.7240 S   0  0  0  0  0  0  0  0  0  0  0  0
    1.0437    0.7013   22.5898 C   0  0  0  0  0  0  0  0  0  0  0  0
    0.0190    1.7414   23.0024 C   0  0  0  0  0  0  0  0  0  0  0  0
    2.6987    2.6068   19.3061 C   0  0  0  0  0  0  0  0  0  0  0  0
    3.9058    2.9787   19.7768 F   0  0  0  0  0  0  0  0  0  0  0  0
    2.3435    2.9826   18.0310 C   0  0  0  0  0  0  0  0  0  0  0  0
    1.5088    2.7342   15.0750 C   0  0  0  0  0  0  0  0  0  0  0  0
    1.1384    3.0498   13.7451 C   0  0  0  0  0  0  0  0  0  0  0  0
   -0.1078    3.6411   13.4756 C   0  0  0  0  0  0  0  0  0  0  0  0
   -0.5372    3.8680   12.0892 C   0  0  0  0  0  0  0  0  0  0  0  0
   -1.7311    3.3228   11.6250 C   0  0  0  0  0  0  0  0  0  0  0  0
   -2.0726    3.3728   10.2873 C   0  0  0  0  0  0  0  0  0  0  0  0
   -1.2409    3.9990    9.3667 C   0  0  0  0  0  0  0  0  0  0  0  0
   -1.4925    4.0581    7.6267 S   0  0  0  0  0  0  0  0  0  0  0  0
   -2.8486    2.8762    7.3162 C   0  0  0  0  0  0  0  0  0  0  0  0
   -4.2199    3.5086    7.4613 C   0  0  0  0  0  0  0  0  0  0  0  0
   -0.0943    4.6222    9.8618 C   0  0  0  0  0  0  0  0  0  0  0  0
    0.2737    4.5524   11.1855 C   0  0  0  0  0  0  0  0  0  0  0  0
    0.7014    5.3016    9.0055 F   0  0  0  0  0  0  0  0  0  0  0  0
   -0.9147    3.9092   14.5707 C   0  0  0  0  0  0  0  0  0  0  0  0
   -2.4827    4.6742   14.5152 S   0  0  0  0  0  0  0  0  0  0  0  0
    2.1074    2.6148   12.8073 C   0  0  0  0  0  0  0  0  0  0  0  0
    3.1767    1.9776   13.3658 C   0  0  0  0  0  0  0  0  0  0  0  0
    3.0413    1.8985   15.1190 S   0  0  0  0  0  0  0  0  0  0  0  0
    4.2843    1.3775   12.6986 C   0  0  0  0  0  0  0  0  0  0  0  0
    5.0804    0.0069   13.3988 S   0  0  0  0  0  0  0  0  0  0  0  0
    4.8403    1.6885   11.4549 C   0  0  0  0  0  0  0  0  0  0  0  0
    4.5227    2.7716   10.6052 C   0  0  0  0  0  0  0  0  0  0  0  0
    5.1826    2.9311    9.4175 C   0  0  0  0  0  0  0  0  0  0  0  0
    4.9387    3.9005    8.5083 O   0  0  0  0  0  0  0  0  0  0  0  0
    3.8489    4.7643    8.7344 C   0  0  0  0  0  0  0  0  0  0  0  0
    6.2576    2.0390    9.0570 C   0  0  0  0  0  0  0  0  0  0  0  0
    6.8553    2.3344    7.8778 O   0  0  0  0  0  0  0  0  0  0  0  0
    7.9232    1.5271    7.4485 C   0  0  0  0  0  0  0  0  0  0  0  0
    6.6038    1.0095    9.8847 C   0  0  0  0  0  0  0  0  0  0  0  0
    5.8773    0.7825   11.0753 C   0  0  0  0  0  0  0  0  0  0  0  0
    6.0869   -0.2361   12.0051 C   0  0  0  0  0  0  0  0  0  0  0  0
    6.9703   -1.3591   11.9735 C   0  0  0  0  0  0  0  0  0  0  0  0
    7.3538   -2.0852   10.8999 C   0  0  0  0  0  0  0  0  0  0  0  0
    6.8184   -2.0049    9.5716 C   0  0  0  0  0  0  0  0  0  0  0  0
    5.5645   -1.6562    9.1666 C   0  0  0  0  0  0  0  0  0  0  0  0
    5.3892   -1.6668    7.7610 C   0  0  0  0  0  0  0  0  0  0  0  0
    4.2429   -1.3275    7.0319 C   0  0  0  0  0  0  0  0  0  0  0  0
    2.9786   -0.9333    7.6699 C   0  0  0  0  0  0  0  0  0  0  0  0
    1.8178   -1.6631    7.4222 C   0  0  0  0  0  0  0  0  0  0  0  0
    0.6261   -1.3148    8.0240 C   0  0  0  0  0  0  0  0  0  0  0  0
    0.5553   -0.2126    8.8666 C   0  0  0  0  0  0  0  0  0  0  0  0
   -0.9641    0.1706    9.6958 S   0  0  0  0  0  0  0  0  0  0  0  0
   -0.3540    0.2499   11.4292 C   0  0  0  0  0  0  0  0  0  0  0  0
   -1.4179   -0.2648   12.3762 C   0  0  0  0  0  0  0  0  0  0  0  0
    1.7057    0.5461    9.0481 C   0  0  0  0  0  0  0  0  0  0  0  0
    1.6546    1.6752    9.7863 F   0  0  0  0  0  0  0  0  0  0  0  0
    2.9146    0.1870    8.4893 C   0  0  0  0  0  0  0  0  0  0  0  0
    4.3400   -1.3800    5.6532 C   0  0  0  0  0  0  0  0  0  0  0  0
    5.5164   -1.7527    4.9593 C   0  0  0  0  0  0  0  0  0  0  0  0
    6.6646   -2.1047    5.6903 C   0  0  0  0  0  0  0  0  0  0  0  0
    7.9243   -2.4503    5.0199 C   0  0  0  0  0  0  0  0  0  0  0  0
    8.4711   -1.6045    4.0559 C   0  0  0  0  0  0  0  0  0  0  0  0
    9.6600   -1.9236    3.4369 C   0  0  0  0  0  0  0  0  0  0  0  0
   10.3540   -3.0905    3.7534 C   0  0  0  0  0  0  0  0  0  0  0  0
   11.8940   -3.3574    2.9260 S   0  0  0  0  0  0  0  0  0  0  0  0
   11.9366   -5.1607    2.6122 C   0  0  0  0  0  0  0  0  0  0  0  0
   10.7520   -5.6208    1.7869 C   0  0  0  0  0  0  0  0  0  0  0  0
    9.8090   -3.9112    4.7361 C   0  0  0  0  0  0  0  0  0  0  0  0
    8.6126   -3.6106    5.3555 C   0  0  0  0  0  0  0  0  0  0  0  0
   10.4373   -5.0431    5.1222 F   0  0  0  0  0  0  0  0  0  0  0  0
    6.5644   -2.0652    7.0742 C   0  0  0  0  0  0  0  0  0  0  0  0
    7.8487   -2.4170    8.2042 S   0  0  0  0  0  0  0  0  0  0  0  0
    5.3245   -1.7225    3.5512 C   0  0  0  0  0  0  0  0  0  0  0  0
    4.0833   -1.2977    3.1830 C   0  0  0  0  0  0  0  0  0  0  0  0
    3.0592   -0.9398    4.5637 S   0  0  0  0  0  0  0  0  0  0  0  0
    3.5078   -1.1197    1.8896 C   0  0  0  0  0  0  0  0  0  0  0  0
    2.3365   -0.4697    1.6389 C   0  0  0  0  0  0  0  0  0  0  0  0
    1.9482   -0.4877    0.2787 C   0  0  0  0  0  0  0  0  0  0  0  0
    0.8056    0.1029   -0.2884 C   0  0  0  0  0  0  0  0  0  0  0  0
   -0.1608    0.8115    0.5600 C   0  0  0  0  0  0  0  0  0  0  0  0
   -0.6711    0.2117    1.7115 C   0  0  0  0  0  0  0  0  0  0  0  0
   -1.5054    0.9096    2.5569 C   0  0  0  0  0  0  0  0  0  0  0  0
   -1.8752    2.2255    2.2859 C   0  0  0  0  0  0  0  0  0  0  0  0
   -2.9313    3.0280    3.4561 S   0  0  0  0  0  0  0  0  0  0  0  0
   -2.2730    4.7347    3.5507 C   0  0  0  0  0  0  0  0  0  0  0  0
   -0.8110    4.7641    3.9453 C   0  0  0  0  0  0  0  0  0  0  0  0
   -1.4168    2.7864    1.0976 C   0  0  0  0  0  0  0  0  0  0  0  0
   -1.7818    4.0351    0.7366 F   0  0  0  0  0  0  0  0  0  0  0  0
   -0.5649    2.1052    0.2504 C   0  0  0  0  0  0  0  0  0  0  0  0
    0.6562   -0.0329   -1.6590 C   0  0  0  0  0  0  0  0  0  0  0  0
    1.5862   -0.7417   -2.4596 C   0  0  0  0  0  0  0  0  0  0  0  0
    2.7446   -1.3092   -1.8970 C   0  0  0  0  0  0  0  0  0  0  0  0
    3.7026   -2.0164   -2.7538 C   0  0  0  0  0  0  0  0  0  0  0  0
    4.1549   -3.2989   -2.4462 C   0  0  0  0  0  0  0  0  0  0  0  0
    4.9800   -3.9771   -3.3147 C   0  0  0  0  0  0  0  0  0  0  0  0
    5.4036   -3.4151   -4.5230 C   0  0  0  0  0  0  0  0  0  0  0  0
    6.4360   -4.4412   -5.5154 S   0  0  0  0  0  0  0  0  0  0  0  0
    6.5737   -3.6258   -7.1556 C   0  0  0  0  0  0  0  0  0  0  0  0
    7.2915   -4.5721   -8.0972 C   0  0  0  0  0  0  0  0  0  0  0  0
    4.9804   -2.1173   -4.7934 C   0  0  0  0  0  0  0  0  0  0  0  0
    4.1466   -1.4300   -3.9348 C   0  0  0  0  0  0  0  0  0  0  0  0
    5.3596   -1.4657   -5.9193 F   0  0  0  0  0  0  0  0  0  0  0  0
    2.8909   -1.1763   -0.5260 C   0  0  0  0  0  0  0  0  0  0  0  0
    4.2253   -1.7759    0.4320 S   0  0  0  0  0  0  0  0  0  0  0  0
    1.1534   -0.8376   -3.8019 C   0  0  0  0  0  0  0  0  0  0  0  0
   -0.0375   -0.2165   -4.0463 C   0  0  0  0  0  0  0  0  0  0  0  0
   -0.6941    0.5357   -2.6090 S   0  0  0  0  0  0  0  0  0  0  0  0
   -0.7043   -0.1873   -5.3087 C   0  0  0  0  0  0  0  0  0  0  0  0
   -0.2756   -0.8229   -6.4385 C   0  0  0  0  0  0  0  0  0  0  0  0
   -1.1310   -0.6522   -7.5509 C   0  0  0  0  0  0  0  0  0  0  0  0
   -0.9877   -1.2263   -8.8271 C   0  0  0  0  0  0  0  0  0  0  0  0
    0.2071   -2.0218   -9.1369 C   0  0  0  0  0  0  0  0  0  0  0  0
    1.4785   -1.5095   -8.8765 C   0  0  0  0  0  0  0  0  0  0  0  0
    2.6032   -2.2817   -9.0722 C   0  0  0  0  0  0  0  0  0  0  0  0
    2.5058   -3.5892   -9.5421 C   0  0  0  0  0  0  0  0  0  0  0  0
    4.0064   -4.5093   -9.7474 S   0  0  0  0  0  0  0  0  0  0  0  0
    3.6009   -6.1241   -8.9828 C   0  0  0  0  0  0  0  0  0  0  0  0
    3.2715   -5.9876   -7.5094 C   0  0  0  0  0  0  0  0  0  0  0  0
    1.2375   -4.0642   -9.8613 C   0  0  0  0  0  0  0  0  0  0  0  0
    1.0765   -5.3031  -10.3731 F   0  0  0  0  0  0  0  0  0  0  0  0
    0.1009   -3.3073   -9.6554 C   0  0  0  0  0  0  0  0  0  0  0  0
   -2.0174   -1.0005   -9.7246 C   0  0  0  0  0  0  0  0  0  0  0  0
   -3.1425   -0.1987   -9.4051 C   0  0  0  0  0  0  0  0  0  0  0  0
   -3.2833    0.3790   -8.1316 C   0  0  0  0  0  0  0  0  0  0  0  0
   -4.4738    1.1749   -7.8109 C   0  0  0  0  0  0  0  0  0  0  0  0
   -4.3733    2.4537   -7.2675 C   0  0  0  0  0  0  0  0  0  0  0  0
   -5.5022    3.2198   -7.0680 C   0  0  0  0  0  0  0  0  0  0  0  0
   -6.7731    2.7390   -7.3794 C   0  0  0  0  0  0  0  0  0  0  0  0
   -8.1456    3.8160   -7.1011 S   0  0  0  0  0  0  0  0  0  0  0  0
   -9.2731    3.4870   -8.5097 C   0  0  0  0  0  0  0  0  0  0  0  0
   -8.5975    3.6785   -9.8518 C   0  0  0  0  0  0  0  0  0  0  0  0
   -6.8627    1.4319   -7.8490 C   0  0  0  0  0  0  0  0  0  0  0  0
   -5.7407    0.6644   -8.0802 C   0  0  0  0  0  0  0  0  0  0  0  0
   -8.0638    0.8646   -8.1029 F   0  0  0  0  0  0  0  0  0  0  0  0
   -2.2608    0.1397   -7.2281 C   0  0  0  0  0  0  0  0  0  0  0  0
   -2.2067    0.6732   -5.5669 S   0  0  0  0  0  0  0  0  0  0  0  0
   -4.0183   -0.0650  -10.5080 C   0  0  0  0  0  0  0  0  0  0  0  0
   -3.6236   -0.7535  -11.6155 C   0  0  0  0  0  0  0  0  0  0  0  0
   -2.1076   -1.5967  -11.3654 S   0  0  0  0  0  0  0  0  0  0  0  0
   -4.3521   -0.8355  -12.8385 C   0  0  0  0  0  0  0  0  0  0  0  0
   -4.0903   -1.5554  -13.9646 C   0  0  0  0  0  0  0  0  0  0  0  0
   -5.0914   -1.4241  -14.9653 C   0  0  0  0  0  0  0  0  0  0  0  0
   -5.1626   -2.0436  -16.2233 C   0  0  0  0  0  0  0  0  0  0  0  0
   -4.1545   -3.0165  -16.6599 C   0  0  0  0  0  0  0  0  0  0  0  0
   -3.7948   -4.0885  -15.8431 C   0  0  0  0  0  0  0  0  0  0  0  0
   -2.8793   -5.0228  -16.2738 C   0  0  0  0  0  0  0  0  0  0  0  0
   -2.2740   -4.9241  -17.5270 C   0  0  0  0  0  0  0  0  0  0  0  0
   -1.0991   -6.1692  -17.9510 S   0  0  0  0  0  0  0  0  0  0  0  0
   -1.2435   -6.3151  -19.7775 C   0  0  0  0  0  0  0  0  0  0  0  0
   -0.7710   -7.6940  -20.1943 C   0  0  0  0  0  0  0  0  0  0  0  0
   -2.6187   -3.8317  -18.3176 C   0  0  0  0  0  0  0  0  0  0  0  0
   -2.0373   -3.6351  -19.5225 F   0  0  0  0  0  0  0  0  0  0  0  0
   -3.5518   -2.9013  -17.9076 C   0  0  0  0  0  0  0  0  0  0  0  0
   -6.2547   -1.7179  -17.0182 C   0  0  0  0  0  0  0  0  0  0  0  0
   -7.2856   -0.8391  -16.6059 C   0  0  0  0  0  0  0  0  0  0  0  0
   -7.2210   -0.2298  -15.3475 C   0  0  0  0  0  0  0  0  0  0  0  0
   -8.2666    0.6607  -14.8235 C   0  0  0  0  0  0  0  0  0  0  0  0
   -9.5879    0.2397  -14.7163 C   0  0  0  0  0  0  0  0  0  0  0  0
  -10.5435    1.0412  -14.1209 C   0  0  0  0  0  0  0  0  0  0  0  0
  -10.2094    2.2920  -13.6149 C   0  0  0  0  0  0  0  0  0  0  0  0
  -11.3329    3.3950  -12.8169 S   0  0  0  0  0  0  0  0  0  0  0  0
  -12.6318    2.2880  -12.1658 C   0  0  0  0  0  0  0  0  0  0  0  0
  -12.1043    1.3601  -11.0887 C   0  0  0  0  0  0  0  0  0  0  0  0
   -8.8903    2.7188  -13.7701 C   0  0  0  0  0  0  0  0  0  0  0  0
   -7.9269    1.9271  -14.3531 C   0  0  0  0  0  0  0  0  0  0  0  0
   -8.5385    3.9404  -13.3233 F   0  0  0  0  0  0  0  0  0  0  0  0
   -6.1163   -0.5319  -14.5671 C   0  0  0  0  0  0  0  0  0  0  0  0
   -5.8479    0.0749  -12.9585 S   0  0  0  0  0  0  0  0  0  0  0  0
   -8.2932   -0.6972  -17.6055 C   0  0  0  0  0  0  0  0  0  0  0  0
   -8.0506   -1.4431  -18.7017 C   0  0  0  0  0  0  0  0  0  0  0  0
   -6.5861   -2.3606  -18.6074 S   0  0  0  0  0  0  0  0  0  0  0  0
   -3.4618    5.0404   16.7110 H   0  0  0  0  0  0  0  0  0  0  0  0
   -1.4066    3.9691   17.9007 H   0  0  0  0  0  0  0  0  0  0  0  0
   -0.7165    1.5632   17.9552 H   0  0  0  0  0  0  0  0  0  0  0  0
   -0.0650    0.8970   20.1959 H   0  0  0  0  0  0  0  0  0  0  0  0
    0.6185   -0.0791   21.9600 H   0  0  0  0  0  0  0  0  0  0  0  0
    1.4912    0.2324   23.4662 H   0  0  0  0  0  0  0  0  0  0  0  0
   -0.7969    1.2640   23.5420 H   0  0  0  0  0  0  0  0  0  0  0  0
    0.4792    2.4822   23.6518 H   0  0  0  0  0  0  0  0  0  0  0  0
   -0.3904    2.2549   22.1352 H   0  0  0  0  0  0  0  0  0  0  0  0
    3.0336    3.5681   17.4445 H   0  0  0  0  0  0  0  0  0  0  0  0
   -2.3856    2.8144   12.3165 H   0  0  0  0  0  0  0  0  0  0  0  0
   -2.9840    2.8969    9.9662 H   0  0  0  0  0  0  0  0  0  0  0  0
   -2.7023    2.0218    7.9758 H   0  0  0  0  0  0  0  0  0  0  0  0
   -2.6895    2.5569    6.2857 H   0  0  0  0  0  0  0  0  0  0  0  0
   -4.3752    3.9029    8.4631 H   0  0  0  0  0  0  0  0  0  0  0  0
   -4.9884    2.7667    7.2538 H   0  0  0  0  0  0  0  0  0  0  0  0
   -4.3319    4.3261    6.7530 H   0  0  0  0  0  0  0  0  0  0  0  0
    1.1809    5.0382   11.5095 H   0  0  0  0  0  0  0  0  0  0  0  0
    1.9736    2.7158   11.7499 H   0  0  0  0  0  0  0  0  0  0  0  0
    3.7704    3.4743   10.9148 H   0  0  0  0  0  0  0  0  0  0  0  0
    3.7781    5.3941    7.8504 H   0  0  0  0  0  0  0  0  0  0  0  0
    4.0110    5.3944    9.6141 H   0  0  0  0  0  0  0  0  0  0  0  0
    2.9187    4.2040    8.8519 H   0  0  0  0  0  0  0  0  0  0  0  0
    8.2355    1.9371    6.4897 H   0  0  0  0  0  0  0  0  0  0  0  0
    8.7637    1.5634    8.1486 H   0  0  0  0  0  0  0  0  0  0  0  0
    7.6113    0.4865    7.3121 H   0  0  0  0  0  0  0  0  0  0  0  0
    7.4467    0.3786    9.6656 H   0  0  0  0  0  0  0  0  0  0  0  0
    7.3589   -1.6583   12.9395 H   0  0  0  0  0  0  0  0  0  0  0  0
    8.1326   -2.8238   11.0377 H   0  0  0  0  0  0  0  0  0  0  0  0
    4.7733   -1.4158    9.8525 H   0  0  0  0  0  0  0  0  0  0  0  0
    1.8601   -2.5275    6.7776 H   0  0  0  0  0  0  0  0  0  0  0  0
   -0.2662   -1.8977    7.8580 H   0  0  0  0  0  0  0  0  0  0  0  0
   -0.1013    1.2855   11.6479 H   0  0  0  0  0  0  0  0  0  0  0  0
    0.5437   -0.3659   11.4754 H   0  0  0  0  0  0  0  0  0  0  0  0
   -1.0630   -0.1800   13.4016 H   0  0  0  0  0  0  0  0  0  0  0  0
   -2.3320    0.3151   12.2742 H   0  0  0  0  0  0  0  0  0  0  0  0
   -1.6467   -1.3074   12.1672 H   0  0  0  0  0  0  0  0  0  0  0  0
    3.7859    0.7969    8.6699 H   0  0  0  0  0  0  0  0  0  0  0  0
    7.9649   -0.6850    3.8044 H   0  0  0  0  0  0  0  0  0  0  0  0
   10.0809   -1.2676    2.6908 H   0  0  0  0  0  0  0  0  0  0  0  0
   12.8712   -5.2945    2.0673 H   0  0  0  0  0  0  0  0  0  0  0  0
   12.0023   -5.6860    3.5623 H   0  0  0  0  0  0  0  0  0  0  0  0
    9.8209   -5.4835    2.3336 H   0  0  0  0  0  0  0  0  0  0  0  0
   10.6927   -5.0590    0.8570 H   0  0  0  0  0  0  0  0  0  0  0  0
   10.8587   -6.6777    1.5513 H   0  0  0  0  0  0  0  0  0  0  0  0
    8.2281   -4.2934    6.0971 H   0  0  0  0  0  0  0  0  0  0  0  0
    6.0775   -2.0066    2.8378 H   0  0  0  0  0  0  0  0  0  0  0  0
    1.7766    0.0252    2.4118 H   0  0  0  0  0  0  0  0  0  0  0  0
   -0.4116   -0.8105    1.9409 H   0  0  0  0  0  0  0  0  0  0  0  0
   -1.8809    0.4480    3.4570 H   0  0  0  0  0  0  0  0  0  0  0  0
   -2.8931    5.1995    4.3170 H   0  0  0  0  0  0  0  0  0  0  0  0
   -2.4522    5.2314    2.5997 H   0  0  0  0  0  0  0  0  0  0  0  0
   -0.1936    4.2755    3.1936 H   0  0  0  0  0  0  0  0  0  0  0  0
   -0.4832    5.7969    4.0409 H   0  0  0  0  0  0  0  0  0  0  0  0
   -0.6594    4.2659    4.9003 H   0  0  0  0  0  0  0  0  0  0  0  0
   -0.2137    2.6023   -0.6405 H   0  0  0  0  0  0  0  0  0  0  0  0
    3.8304   -3.7777   -1.5356 H   0  0  0  0  0  0  0  0  0  0  0  0
    5.3106   -4.9772   -3.0805 H   0  0  0  0  0  0  0  0  0  0  0  0
    7.1297   -2.6984   -7.0325 H   0  0  0  0  0  0  0  0  0  0  0  0
    5.5669   -3.4156   -7.5127 H   0  0  0  0  0  0  0  0  0  0  0  0
    7.3438   -4.1257   -9.0872 H   0  0  0  0  0  0  0  0  0  0  0  0
    6.7561   -5.5155   -8.1724 H   0  0  0  0  0  0  0  0  0  0  0  0
    8.3005   -4.7744   -7.7454 H   0  0  0  0  0  0  0  0  0  0  0  0
    3.8650   -0.4207   -4.1937 H   0  0  0  0  0  0  0  0  0  0  0  0
    1.6971   -1.3777   -4.5534 H   0  0  0  0  0  0  0  0  0  0  0  0
    0.6115   -1.4266   -6.4740 H   0  0  0  0  0  0  0  0  0  0  0  0
    1.5813   -0.4961   -8.5192 H   0  0  0  0  0  0  0  0  0  0  0  0
    3.5826   -1.8842   -8.8538 H   0  0  0  0  0  0  0  0  0  0  0  0
    2.7878   -6.5816   -9.5414 H   0  0  0  0  0  0  0  0  0  0  0  0
    4.5056   -6.7131   -9.1321 H   0  0  0  0  0  0  0  0  0  0  0  0
    3.0548   -6.9685   -7.0909 H   0  0  0  0  0  0  0  0  0  0  0  0
    2.3987   -5.3522   -7.3650 H   0  0  0  0  0  0  0  0  0  0  0  0
    4.1079   -5.5580   -6.9629 H   0  0  0  0  0  0  0  0  0  0  0  0
   -0.8601   -3.7371   -9.8907 H   0  0  0  0  0  0  0  0  0  0  0  0
   -3.4017    2.8633   -7.0382 H   0  0  0  0  0  0  0  0  0  0  0  0
   -5.4188    4.2213   -6.6758 H   0  0  0  0  0  0  0  0  0  0  0  0
   -9.6907    2.4882   -8.3986 H   0  0  0  0  0  0  0  0  0  0  0  0
  -10.0639    4.2227   -8.3615 H   0  0  0  0  0  0  0  0  0  0  0  0
   -9.3373    3.6178  -10.6467 H   0  0  0  0  0  0  0  0  0  0  0  0
   -7.8430    2.9136  -10.0257 H   0  0  0  0  0  0  0  0  0  0  0  0
   -8.1195    4.6539   -9.9059 H   0  0  0  0  0  0  0  0  0  0  0  0
   -5.8680   -0.3434   -8.4450 H   0  0  0  0  0  0  0  0  0  0  0  0
   -4.9114    0.5332  -10.4913 H   0  0  0  0  0  0  0  0  0  0  0  0
   -3.2058   -2.1566  -14.0771 H   0  0  0  0  0  0  0  0  0  0  0  0
   -4.2657   -4.2066  -14.8792 H   0  0  0  0  0  0  0  0  0  0  0  0
   -2.6152   -5.8592  -15.6456 H   0  0  0  0  0  0  0  0  0  0  0  0
   -2.2918   -6.1648  -20.0308 H   0  0  0  0  0  0  0  0  0  0  0  0
   -0.6367   -5.5354  -20.2353 H   0  0  0  0  0  0  0  0  0  0  0  0
   -1.3751   -8.4645  -19.7206 H   0  0  0  0  0  0  0  0  0  0  0  0
    0.2670   -7.8446  -19.9065 H   0  0  0  0  0  0  0  0  0  0  0  0
   -0.8524   -7.7986  -21.2741 H   0  0  0  0  0  0  0  0  0  0  0  0
   -3.7746   -2.0725  -18.5612 H   0  0  0  0  0  0  0  0  0  0  0  0
   -9.8663   -0.7388  -15.0781 H   0  0  0  0  0  0  0  0  0  0  0  0
  -11.5569    0.6798  -14.0486 H   0  0  0  0  0  0  0  0  0  0  0  0
  -13.3714    2.9777  -11.7593 H   0  0  0  0  0  0  0  0  0  0  0  0
  -13.0833    1.7472  -12.9964 H   0  0  0  0  0  0  0  0  0  0  0  0
  -11.3265    0.7081  -11.4815 H   0  0  0  0  0  0  0  0  0  0  0  0
  -12.9135    0.7429  -10.7037 H   0  0  0  0  0  0  0  0  0  0  0  0
  -11.6857    1.9368  -10.2672 H   0  0  0  0  0  0  0  0  0  0  0  0
   -6.9201    2.3038  -14.4401 H   0  0  0  0  0  0  0  0  0  0  0  0
   -9.1471   -0.0540  -17.4921 H   0  0  0  0  0  0  0  0  0  0  0  0
   -8.6425   -1.5186  -19.5930 H   0  0  0  0  0  0  0  0  0  0  0  0
  1  2  2  0  0  0  0
  2  3  1  0  0  0  0
  3  4  2  0  0  0  0
  4  5  1  0  0  0  0
  5  6  2  0  0  0  0
  6  7  1  0  0  0  0
  7  8  2  0  0  0  0
  8  9  1  0  0  0  0
  9 10  1  0  0  0  0
 10 11  1  0  0  0  0
  8 12  1  0  0  0  0
 12 13  1  0  0  0  0
 12 14  2  0  0  0  0
  4 15  1  0  0  0  0
 15 16  2  0  0  0  0
 16 17  1  0  0  0  0
 17 18  1  0  0  0  0
 18 19  2  0  0  0  0
 19 20  1  0  0  0  0
 20 21  2  0  0  0  0
 21 22  1  0  0  0  0
 22 23  1  0  0  0  0
 23 24  1  0  0  0  0
 21 25  1  0  0  0  0
 25 26  2  0  0  0  0
 25 27  1  0  0  0  0
 17 28  2  0  0  0  0
 28 29  1  0  0  0  0
 16 30  1  0  0  0  0
 30 31  2  0  0  0  0
 31 32  1  0  0  0  0
 31 33  1  0  0  0  0
 33 34  1  0  0  0  0
 33 35  2  0  0  0  0
 35 36  1  0  0  0  0
 36 37  2  0  0  0  0
 37 38  1  0  0  0  0
 38 39  1  0  0  0  0
 37 40  1  0  0  0  0
 40 41  1  0  0  0  0
 41 42  1  0  0  0  0
 40 43  2  0  0  0  0
 43 44  1  0  0  0  0
 44 45  2  0  0  0  0
 45 46  1  0  0  0  0
 46 47  2  0  0  0  0
 47 48  1  0  0  0  0
 48 49  2  0  0  0  0
 49 50  1  0  0  0  0
 50 51  2  0  0  0  0
 51 52  1  0  0  0  0
 52 53  2  0  0  0  0
 53 54  1  0  0  0  0
 54 55  2  0  0  0  0
 55 56  1  0  0  0  0
 56 57  1  0  0  0  0
 57 58  1  0  0  0  0
 55 59  1  0  0  0  0
 59 60  1  0  0  0  0
 59 61  2  0  0  0  0
 51 62  1  0  0  0  0
 62 63  2  0  0  0  0
 63 64  1  0  0  0  0
 64 65  1  0  0  0  0
 65 66  2  0  0  0  0
 66 67  1  0  0  0  0
 67 68  2  0  0  0  0
 68 69  1  0  0  0  0
 69 70  1  0  0  0  0
 70 71  1  0  0  0  0
 68 72  1  0  0  0  0
 72 73  2  0  0  0  0
 72 74  1  0  0  0  0
 64 75  2  0  0  0  0
 75 76  1  0  0  0  0
 63 77  1  0  0  0  0
 77 78  2  0  0  0  0
 78 79  1  0  0  0  0
 78 80  1  0  0  0  0
 80 81  2  0  0  0  0
 81 82  1  0  0  0  0
 82 83  2  0  0  0  0
 83 84  1  0  0  0  0
 84 85  2  0  0  0  0
 85 86  1  0  0  0  0
 86 87  2  0  0  0  0
 87 88  1  0  0  0  0
 88 89  1  0  0  0  0
 89 90  1  0  0  0  0
 87 91  1  0  0  0  0
 91 92  1  0  0  0  0
 91 93  2  0  0  0  0
 83 94  1  0  0  0  0
 94 95  2  0  0  0  0
 95 96  1  0  0  0  0
 96 97  1  0  0  0  0
 97 98  2  0  0  0  0
 98 99  1  0  0  0  0
 99100  2  0  0  0  0
100101  1  0  0  0  0
101102  1  0  0  0  0
102103  1  0  0  0  0
100104  1  0  0  0  0
104105  2  0  0  0  0
104106  1  0  0  0  0
 96107  2  0  0  0  0
107108  1  0  0  0  0
 95109  1  0  0  0  0
109110  2  0  0  0  0
110111  1  0  0  0  0
110112  1  0  0  0  0
112113  2  0  0  0  0
113114  1  0  0  0  0
114115  2  0  0  0  0
115116  1  0  0  0  0
116117  2  0  0  0  0
117118  1  0  0  0  0
118119  2  0  0  0  0
119120  1  0  0  0  0
120121  1  0  0  0  0
121122  1  0  0  0  0
119123  1  0  0  0  0
123124  1  0  0  0  0
123125  2  0  0  0  0
115126  1  0  0  0  0
126127  2  0  0  0  0
127128  1  0  0  0  0
128129  1  0  0  0  0
129130  2  0  0  0  0
130131  1  0  0  0  0
131132  2  0  0  0  0
132133  1  0  0  0  0
133134  1  0  0  0  0
134135  1  0  0  0  0
132136  1  0  0  0  0
136137  2  0  0  0  0
136138  1  0  0  0  0
128139  2  0  0  0  0
139140  1  0  0  0  0
127141  1  0  0  0  0
141142  2  0  0  0  0
142143  1  0  0  0  0
142144  1  0  0  0  0
144145  2  0  0  0  0
145146  1  0  0  0  0
146147  2  0  0  0  0
147148  1  0  0  0  0
148149  2  0  0  0  0
149150  1  0  0  0  0
150151  2  0  0  0  0
151152  1  0  0  0  0
152153  1  0  0  0  0
153154  1  0  0  0  0
151155  1  0  0  0  0
155156  1  0  0  0  0
155157  2  0  0  0  0
147158  1  0  0  0  0
158159  2  0  0  0  0
159160  1  0  0  0  0
160161  1  0  0  0  0
161162  2  0  0  0  0
162163  1  0  0  0  0
163164  2  0  0  0  0
164165  1  0  0  0  0
165166  1  0  0  0  0
166167  1  0  0  0  0
164168  1  0  0  0  0
168169  2  0  0  0  0
168170  1  0  0  0  0
160171  2  0  0  0  0
171172  1  0  0  0  0
159173  1  0  0  0  0
173174  2  0  0  0  0
174175  1  0  0  0  0
 29  1  1  0  0  0  0
 45 34  1  0  0  0  0
 76 48  1  0  0  0  0
108 80  1  0  0  0  0
140112  1  0  0  0  0
172144  1  0  0  0  0
 28  3  1  0  0  0  0
 44 35  1  0  0  0  0
 75 50  1  0  0  0  0
107 82  1  0  0  0  0
139114  1  0  0  0  0
171146  1  0  0  0  0
 14  5  1  0  0  0  0
 32 15  1  0  0  0  0
 61 52  1  0  0  0  0
 79 62  1  0  0  0  0
 93 84  1  0  0  0  0
111 94  1  0  0  0  0
125116  1  0  0  0  0
143126  1  0  0  0  0
157148  1  0  0  0  0
175158  1  0  0  0  0
 26 18  1  0  0  0  0
 73 65  1  0  0  0  0
105 97  1  0  0  0  0
137129  1  0  0  0  0
169161  1  0  0  0  0
  1176  1  0  0  0  0
  2177  1  0  0  0  0
  6178  1  0  0  0  0
  7179  1  0  0  0  0
 10180  1  0  0  0  0
 10181  1  0  0  0  0
 11182  1  0  0  0  0
 11183  1  0  0  0  0
 11184  1  0  0  0  0
 14185  1  0  0  0  0
 19186  1  0  0  0  0
 20187  1  0  0  0  0
 23188  1  0  0  0  0
 23189  1  0  0  0  0
 24190  1  0  0  0  0
 24191  1  0  0  0  0
 24192  1  0  0  0  0
 26193  1  0  0  0  0
 30194  1  0  0  0  0
 36195  1  0  0  0  0
 39196  1  0  0  0  0
 39197  1  0  0  0  0
 39198  1  0  0  0  0
 42199  1  0  0  0  0
 42200  1  0  0  0  0
 42201  1  0  0  0  0
 43202  1  0  0  0  0
 46203  1  0  0  0  0
 47204  1  0  0  0  0
 49205  1  0  0  0  0
 53206  1  0  0  0  0
 54207  1  0  0  0  0
 57208  1  0  0  0  0
 57209  1  0  0  0  0
 58210  1  0  0  0  0
 58211  1  0  0  0  0
 58212  1  0  0  0  0
 61213  1  0  0  0  0
 66214  1  0  0  0  0
 67215  1  0  0  0  0
 70216  1  0  0  0  0
 70217  1  0  0  0  0
 71218  1  0  0  0  0
 71219  1  0  0  0  0
 71220  1  0  0  0  0
 73221  1  0  0  0  0
 77222  1  0  0  0  0
 81223  1  0  0  0  0
 85224  1  0  0  0  0
 86225  1  0  0  0  0
 89226  1  0  0  0  0
 89227  1  0  0  0  0
 90228  1  0  0  0  0
 90229  1  0  0  0  0
 90230  1  0  0  0  0
 93231  1  0  0  0  0
 98232  1  0  0  0  0
 99233  1  0  0  0  0
102234  1  0  0  0  0
102235  1  0  0  0  0
103236  1  0  0  0  0
103237  1  0  0  0  0
103238  1  0  0  0  0
105239  1  0  0  0  0
109240  1  0  0  0  0
113241  1  0  0  0  0
117242  1  0  0  0  0
118243  1  0  0  0  0
121244  1  0  0  0  0
121245  1  0  0  0  0
122246  1  0  0  0  0
122247  1  0  0  0  0
122248  1  0  0  0  0
125249  1  0  0  0  0
130250  1  0  0  0  0
131251  1  0  0  0  0
134252  1  0  0  0  0
134253  1  0  0  0  0
135254  1  0  0  0  0
135255  1  0  0  0  0
135256  1  0  0  0  0
137257  1  0  0  0  0
141258  1  0  0  0  0
145259  1  0  0  0  0
149260  1  0  0  0  0
150261  1  0  0  0  0
153262  1  0  0  0  0
153263  1  0  0  0  0
154264  1  0  0  0  0
154265  1  0  0  0  0
154266  1  0  0  0  0
157267  1  0  0  0  0
162268  1  0  0  0  0
163269  1  0  0  0  0
166270  1  0  0  0  0
166271  1  0  0  0  0
167272  1  0  0  0  0
167273  1  0  0  0  0
167274  1  0  0  0  0
169275  1  0  0  0  0
173276  1  0  0  0  0
174277  1  0  0  0  0
M  END
