116

C          4.30130        3.05160        1.32650
S          2.66830        3.36730        1.70710
C          2.09380        2.65140        0.23130
C          3.16650        2.14630       -0.50300
C          4.43810        2.39800        0.12290
C          5.63630        1.95880       -0.49260
C          5.57480        1.25550       -1.65520
C          4.33350        0.93160       -2.24530
C          3.17250        1.35840       -1.67540
F          1.99670        0.98740       -2.22730
C          0.69830        2.67400       -0.05290
S         -0.42490        2.36880        1.23720
C          0.02130        3.00270       -1.22780
C          0.57720        3.38290       -2.46860
C         -0.24260        3.71500       -3.50880
O          0.17580        4.05410       -4.75740
C          1.55280        3.97180       -5.03170
C         -1.67080        3.73630       -3.33510
O         -2.36210        4.17880       -4.41190
C         -3.76760        4.16790       -4.34200
C         -2.22370        3.35900       -2.14280
C         -1.39520        2.99220       -1.06420
C         -1.80870        2.60430        0.21980
C         -3.15110        2.55840        0.67950
C         -3.72940        1.82270        1.67050
C         -3.24050        0.70760        2.38660
S         -1.81260       -0.17210        1.94860
C         -2.03090       -1.37370        3.18730
C         -3.24560       -1.15660        3.85580
C         -3.90800        0.04180        3.43330
C         -5.11020        0.43040        4.05570
C         -5.68080       -0.37030        5.00450
C         -5.10760       -1.60830        5.34080
C         -3.92880       -1.98870        4.76510
F         -3.44800       -3.22300        5.03970
C         -0.98920       -2.30570        3.36990
S         -0.01940       -2.70920        1.98200
C         -0.47570       -2.91850        4.52150
C         -0.87560       -2.70820        5.85590
C         -0.25950       -3.38640        6.87120
O         -0.56870       -3.27690        8.18800
C         -1.66490       -2.47230        8.54480
C          0.81470       -4.29680        6.58560
O          1.31870       -4.92750        7.67690
C          2.37970       -5.83060        7.49570
C          1.26480       -4.44970        5.30230
C          0.64940       -3.74710        4.24630
C          1.04540       -3.72980        2.89620
C          2.23700       -4.27470        2.36750
C          2.72170       -4.18660        1.09850
C          2.02280       -3.75310       -0.06380
S          2.81300       -2.71820       -1.21370
C          1.41410       -2.61880       -2.23390
C          0.39890       -3.44910       -1.74640
C          0.74210       -4.08900       -0.51210
C         -0.14150       -5.02090        0.07420
C         -1.32830       -5.30540       -0.53510
C         -1.67080       -4.70970       -1.76320
C         -0.81910       -3.82310       -2.35490
F         -1.13650       -3.34380       -3.57790
C          1.39400       -1.75070       -3.35680
S          2.76180       -1.61070       -4.40560
C          0.37620       -0.89020       -3.76910
C         -0.83040       -0.63060       -3.08620
C         -1.75980        0.19790       -3.64280
O         -2.95730        0.52140       -3.08740
C         -3.28450       -0.06380       -1.85130
C         -1.51510        0.79030       -4.93240
O         -2.56810        1.47340       -5.44560
C         -2.40460        2.09650       -6.69710
C         -0.30410        0.63920       -5.54580
C          0.69370       -0.17570       -4.96460
C          1.98230       -0.44280       -5.42960
C          2.75250        0.04130       -6.53690
C          2.51000        1.09070       -7.32470
H          5.07620        3.35250        2.00220
H          6.57860        2.18100       -0.01640
H          6.47720        0.90980       -2.13510
H          4.29830        0.32630       -3.13660
H          1.64830        3.41080       -2.57070
H          2.12540        4.69220       -4.43810
H          1.66070        4.21650       -6.08740
H          1.93570        2.96280       -4.84730
H         -4.14220        3.15090       -4.19440
H         -4.13320        4.81990       -3.54130
H         -4.11330        4.55200       -5.30030
H         -3.29130        3.34500       -2.00760
H         -3.81470        3.22680        0.14310
H         -4.75540        2.07570        1.90650
H         -5.58270        1.35740        3.77220
H         -6.60240       -0.07670        5.48270
H         -5.60190       -2.27440        6.02980
H         -1.65210       -1.99160        6.05940
H         -2.58020       -2.79970        8.04150
H         -1.48290       -1.41700        8.31430
H         -1.77950       -2.59080        9.62100
H          2.60680       -6.22040        8.48650
H          3.26740       -5.33290        7.09070
H          2.09590       -6.65810        6.83680
H          2.09080       -5.10520        5.08200
H          2.89150       -4.71960        3.10560
H          3.76950       -4.41810        0.95100
H          0.14820       -5.51750        0.98640
H         -2.00990       -6.01670       -0.09510
H         -2.58860       -4.97460       -2.26380
H         -0.99000       -1.09530       -2.12750
H         -3.32430       -1.15550       -1.92460
H         -2.57330        0.21980       -1.06890
H         -4.27130        0.31710       -1.59260
H         -2.12220        1.37400       -7.47010
H         -1.66040        2.89670       -6.64210
H         -3.37530        2.52290       -6.94360
H         -0.11050        1.10410       -6.49490
H          3.65960       -0.52720       -6.71010
H          3.18670        1.34060       -8.12330
H          1.66160        1.73690       -7.20330
