92

C          5.30620        1.69970        7.60860
O          3.98220        1.77770        7.51160
C          3.61840        1.20720        6.34410
C          4.72950        0.75120        5.67390
C          5.82680        1.07820        6.50400
C          7.25530        0.77480        6.22440
F          7.60210       -0.46750        6.61080
F          7.54000        0.84700        4.91380
F          8.09140        1.61210        6.85280
C          2.23760        1.14680        5.97100
O          1.90800        0.61470        4.78160
C          0.55790        0.66510        4.66110
C          0.00490        1.23840        5.78790
C          1.08890        1.54770        6.63130
C          1.01770        2.18070        7.97660
F          1.67090        3.35540        8.02950
F         -0.24120        2.42750        8.35260
F          1.55960        1.40910        8.93690
C         -0.02410        0.15180        3.46410
O          0.79740       -0.31470        2.49610
C          0.03620       -0.74130        1.46270
C         -1.30450       -0.55710        1.76530
C         -1.34110        0.01560        3.04440
C         -2.56850        0.39200        3.79200
F         -2.63410        1.70800        4.06080
F         -3.68610        0.07480        3.13440
F         -2.64780       -0.22700        4.99050
C          0.61970       -1.25440        0.27960
S         -0.42640       -1.79120       -0.99230
C          1.96220       -1.36100       -0.09810
C          3.09630       -1.02440        0.66810
C          4.34650       -1.17500        0.13200
O          5.50960       -0.89320        0.76110
C          5.45160       -0.42620        2.08720
C          4.50530       -1.67010       -1.21120
O          5.79340       -1.76380       -1.61730
C          6.05650       -2.23150       -2.91670
C          3.40940       -1.99830       -1.96280
C          2.11410       -1.86050       -1.42340
C          0.89070       -2.12390       -2.06830
C          0.75740       -2.70580       -3.35310
C         -0.29450       -2.79110       -4.21780
C         -1.55460       -2.15040       -4.23410
S         -1.93750       -0.74460       -3.30250
C         -2.63180       -2.47350       -5.08310
C         -2.71120       -3.54790       -5.99170
C         -3.84930       -3.74380       -6.72670
O         -4.04310       -4.73750       -7.62720
C         -3.00470       -5.66030       -7.84280
C         -4.97430       -2.85930       -6.57570
O         -6.03290       -3.16730       -7.36250
C         -7.18240       -2.36120       -7.28300
C         -4.91540       -1.81610       -5.69250
C         -3.74860       -1.60330       -4.93100
C         -3.53380       -0.60590       -3.96990
C         -4.42970        0.36540       -3.47450
C         -4.14250        1.17160       -2.42170
C         -5.03860        2.11460       -1.85020
O         -6.26540        2.33960       -2.36090
C         -6.87040        3.26300       -1.59300
C         -6.06160        3.65750       -0.57240
C         -4.86630        2.91590       -0.72870
C         -3.65780        2.97800        0.12620
F         -2.57390        3.44410       -0.53530
F         -3.81870        3.77130        1.18940
F         -3.28220        1.76970        0.59970
H          5.77570        2.11120        8.47980
H          4.75920        0.25920        4.72550
H         -1.02660        1.42250        5.99880
H         -2.14460       -0.78510        1.14350
H          2.94890       -0.65030        1.66610
H          4.90890        0.52300        2.15110
H          4.97710       -1.16550        2.74190
H          6.48490       -0.27400        2.39540
H          5.68640       -3.25220       -3.05900
H          7.14030       -2.22390       -3.01740
H          5.61690       -1.57630       -3.67600
H          3.52140       -2.35830       -2.97160
H          1.66370       -3.19660       -3.68780
H         -0.13030       -3.43090       -5.07660
H         -1.86910       -4.21170       -6.09400
H         -2.10510       -5.16980       -8.22930
H         -2.75570       -6.20680       -6.92710
H         -3.38240       -6.35850       -8.58760
H         -7.89020       -2.78840       -7.99110
H         -7.61780       -2.38050       -6.27860
H         -6.96680       -1.32560       -7.56570
H         -5.74900       -1.14630       -5.56470
H         -5.40140        0.43490       -3.94260
H         -3.17800        1.09840       -1.94050
H         -7.86310        3.55610       -1.86930
H         -6.27230        4.37320        0.19440
