
  xtb     03042216223D
 energy: -198.346234584950 gnorm: 0.000500071087 xtb: 6.4.1 (unknown)
112123  0     0  0            999 V2000
    2.2908    0.6040    3.5999 C   0  0  0  0  0  0  0  0  0  0  0  0
    1.7017   -0.7935    4.3822 S   0  0  0  0  0  0  0  0  0  0  0  0
    1.5715    0.8992    2.4651 C   0  0  0  0  0  0  0  0  0  0  0  0
    1.8108    1.9559    1.5523 C   0  0  0  0  0  0  0  0  0  0  0  0
    1.0570    2.0540    0.4230 C   0  0  0  0  0  0  0  0  0  0  0  0
    1.1891    3.0127   -0.5318 O   0  0  0  0  0  0  0  0  0  0  0  0
    2.2053    3.9717   -0.3734 C   0  0  0  0  0  0  0  0  0  0  0  0
    0.0352    1.0738    0.1423 C   0  0  0  0  0  0  0  0  0  0  0  0
   -0.5731    1.2471   -1.0627 O   0  0  0  0  0  0  0  0  0  0  0  0
   -1.4729    0.2634   -1.5026 C   0  0  0  0  0  0  0  0  0  0  0  0
   -0.2429    0.0771    1.0338 C   0  0  0  0  0  0  0  0  0  0  0  0
    0.5012   -0.0270    2.2318 C   0  0  0  0  0  0  0  0  0  0  0  0
    0.4167   -1.0040    3.2255 C   0  0  0  0  0  0  0  0  0  0  0  0
   -0.4972   -2.0589    3.4748 C   0  0  0  0  0  0  0  0  0  0  0  0
   -1.7948   -2.1611    3.0919 C   0  0  0  0  0  0  0  0  0  0  0  0
   -2.6116   -3.2543    3.4775 C   0  0  0  0  0  0  0  0  0  0  0  0
   -1.8998   -4.6436    4.2320 S   0  0  0  0  0  0  0  0  0  0  0  0
   -3.9961   -3.4235    3.3743 C   0  0  0  0  0  0  0  0  0  0  0  0
   -4.9331   -2.5291    2.8133 C   0  0  0  0  0  0  0  0  0  0  0  0
   -6.2623   -2.8455    2.8052 C   0  0  0  0  0  0  0  0  0  0  0  0
   -7.2543   -2.0698    2.2943 O   0  0  0  0  0  0  0  0  0  0  0  0
   -6.9055   -0.8351    1.7226 C   0  0  0  0  0  0  0  0  0  0  0  0
   -6.7203   -4.0905    3.3683 C   0  0  0  0  0  0  0  0  0  0  0  0
   -8.0650   -4.2706    3.2965 O   0  0  0  0  0  0  0  0  0  0  0  0
   -8.6062   -5.4463    3.8427 C   0  0  0  0  0  0  0  0  0  0  0  0
   -5.8299   -4.9720    3.9098 C   0  0  0  0  0  0  0  0  0  0  0  0
   -4.4503   -4.6599    3.9304 C   0  0  0  0  0  0  0  0  0  0  0  0
   -3.4180   -5.4587    4.4120 C   0  0  0  0  0  0  0  0  0  0  0  0
   -3.4786   -6.7604    5.0308 C   0  0  0  0  0  0  0  0  0  0  0  0
   -2.5366   -7.7024    4.8770 C   0  0  0  0  0  0  0  0  0  0  0  0
   -1.4762   -7.4973    3.8833 C   0  0  0  0  0  0  0  0  0  0  0  0
   -0.1514   -7.1529    4.2316 C   0  0  0  0  0  0  0  0  0  0  0  0
    0.4161   -7.2213    5.4345 N   0  0  0  0  0  0  0  0  0  0  0  0
    1.8891   -6.5816    5.3450 S   0  0  0  0  0  0  0  0  0  0  0  0
    1.8797   -6.1774    3.7883 N   0  0  0  0  0  0  0  0  0  0  0  0
    0.7147   -6.5348    3.2564 C   0  0  0  0  0  0  0  0  0  0  0  0
    0.2861   -6.3267    1.9182 C   0  0  0  0  0  0  0  0  0  0  0  0
   -0.9457   -6.8701    1.5892 C   0  0  0  0  0  0  0  0  0  0  0  0
   -1.8041   -7.4143    2.5451 C   0  0  0  0  0  0  0  0  0  0  0  0
    1.0078   -5.4380    1.0456 C   0  0  0  0  0  0  0  0  0  0  0  0
    0.8068   -5.3423   -0.2842 C   0  0  0  0  0  0  0  0  0  0  0  0
    1.2600   -4.2817   -1.1370 C   0  0  0  0  0  0  0  0  0  0  0  0
    1.8357   -3.0728   -0.6594 C   0  0  0  0  0  0  0  0  0  0  0  0
    2.2439   -2.8042    0.5804 N   0  0  0  0  0  0  0  0  0  0  0  0
    2.8225   -1.3081    0.6321 S   0  0  0  0  0  0  0  0  0  0  0  0
    2.5698   -0.9082   -0.9019 N   0  0  0  0  0  0  0  0  0  0  0  0
    2.0269   -1.9470   -1.5393 C   0  0  0  0  0  0  0  0  0  0  0  0
    1.6999   -2.0286   -2.9194 C   0  0  0  0  0  0  0  0  0  0  0  0
    1.2677   -3.2707   -3.3652 C   0  0  0  0  0  0  0  0  0  0  0  0
    1.0323   -4.3396   -2.5072 C   0  0  0  0  0  0  0  0  0  0  0  0
    1.7565   -0.9101   -3.8203 C   0  0  0  0  0  0  0  0  0  0  0  0
    1.6888    0.3759   -3.4273 C   0  0  0  0  0  0  0  0  0  0  0  0
    1.6597    1.5188   -4.2957 C   0  0  0  0  0  0  0  0  0  0  0  0
    2.0300    1.4969   -5.6672 C   0  0  0  0  0  0  0  0  0  0  0  0
    2.4094    0.4498   -6.3982 N   0  0  0  0  0  0  0  0  0  0  0  0
    2.7425    0.9442   -7.8935 S   0  0  0  0  0  0  0  0  0  0  0  0
    2.4314    2.5088   -7.6968 N   0  0  0  0  0  0  0  0  0  0  0  0
    2.0422    2.7152   -6.4389 C   0  0  0  0  0  0  0  0  0  0  0  0
    1.6861    3.9601   -5.8628 C   0  0  0  0  0  0  0  0  0  0  0  0
    1.2460    3.9169   -4.5515 C   0  0  0  0  0  0  0  0  0  0  0  0
    1.2479    2.7467   -3.7955 C   0  0  0  0  0  0  0  0  0  0  0  0
    1.7408    5.1672   -6.6626 C   0  0  0  0  0  0  0  0  0  0  0  0
    1.9982    6.4113   -6.2314 C   0  0  0  0  0  0  0  0  0  0  0  0
    2.4280    6.8085   -4.9026 C   0  0  0  0  0  0  0  0  0  0  0  0
    1.9819    8.0379   -4.3582 C   0  0  0  0  0  0  0  0  0  0  0  0
    1.1686    8.9224   -4.9359 N   0  0  0  0  0  0  0  0  0  0  0  0
    0.9335   10.1470   -3.9225 S   0  0  0  0  0  0  0  0  0  0  0  0
    1.8365    9.6218   -2.7008 N   0  0  0  0  0  0  0  0  0  0  0  0
    2.3766    8.4498   -3.0373 C   0  0  0  0  0  0  0  0  0  0  0  0
    3.2411    7.6506   -2.2476 C   0  0  0  0  0  0  0  0  0  0  0  0
    3.7035    6.4918   -2.8439 C   0  0  0  0  0  0  0  0  0  0  0  0
    3.3140    6.0874   -4.1240 C   0  0  0  0  0  0  0  0  0  0  0  0
    3.5811    8.0926   -0.9083 C   0  0  0  0  0  0  0  0  0  0  0  0
    4.2343    7.3858    0.0092 C   0  0  0  0  0  0  0  0  0  0  0  0
    3.1305    1.1322    4.0042 H   0  0  0  0  0  0  0  0  0  0  0  0
    2.6047    2.6500    1.7725 H   0  0  0  0  0  0  0  0  0  0  0  0
    2.1405    4.6240   -1.2434 H   0  0  0  0  0  0  0  0  0  0  0  0
    3.1930    3.5002   -0.3454 H   0  0  0  0  0  0  0  0  0  0  0  0
    2.0591    4.5659    0.5342 H   0  0  0  0  0  0  0  0  0  0  0  0
   -0.9990   -0.7234   -1.5468 H   0  0  0  0  0  0  0  0  0  0  0  0
   -1.7697    0.5642   -2.5061 H   0  0  0  0  0  0  0  0  0  0  0  0
   -2.3596    0.2119   -0.8616 H   0  0  0  0  0  0  0  0  0  0  0  0
   -0.9897   -0.6697    0.8221 H   0  0  0  0  0  0  0  0  0  0  0  0
   -0.1153   -2.8333    4.1305 H   0  0  0  0  0  0  0  0  0  0  0  0
   -2.2651   -1.3728    2.5228 H   0  0  0  0  0  0  0  0  0  0  0  0
   -4.5779   -1.6001    2.3990 H   0  0  0  0  0  0  0  0  0  0  0  0
   -6.2395   -0.9642    0.8624 H   0  0  0  0  0  0  0  0  0  0  0  0
   -7.8413   -0.3895    1.3895 H   0  0  0  0  0  0  0  0  0  0  0  0
   -6.4285   -0.1730    2.4531 H   0  0  0  0  0  0  0  0  0  0  0  0
   -8.2255   -6.3389    3.3347 H   0  0  0  0  0  0  0  0  0  0  0  0
   -8.3975   -5.5241    4.9150 H   0  0  0  0  0  0  0  0  0  0  0  0
   -9.6816   -5.3752    3.6888 H   0  0  0  0  0  0  0  0  0  0  0  0
   -6.1501   -5.9113    4.3293 H   0  0  0  0  0  0  0  0  0  0  0  0
   -4.3284   -6.9418    5.6771 H   0  0  0  0  0  0  0  0  0  0  0  0
   -2.5530   -8.6172    5.4498 H   0  0  0  0  0  0  0  0  0  0  0  0
   -1.3159   -6.7660    0.5809 H   0  0  0  0  0  0  0  0  0  0  0  0
   -2.8021   -7.6981    2.2425 H   0  0  0  0  0  0  0  0  0  0  0  0
    1.6964   -4.7622    1.5312 H   0  0  0  0  0  0  0  0  0  0  0  0
    0.2022   -6.0875   -0.7875 H   0  0  0  0  0  0  0  0  0  0  0  0
    1.0503   -3.3904   -4.4169 H   0  0  0  0  0  0  0  0  0  0  0  0
    0.6287   -5.2530   -2.9212 H   0  0  0  0  0  0  0  0  0  0  0  0
    1.7752   -1.1440   -4.8760 H   0  0  0  0  0  0  0  0  0  0  0  0
    1.6050    0.6014   -2.3740 H   0  0  0  0  0  0  0  0  0  0  0  0
    0.8911    4.8279   -4.0934 H   0  0  0  0  0  0  0  0  0  0  0  0
    0.9076    2.7877   -2.7722 H   0  0  0  0  0  0  0  0  0  0  0  0
    1.5463    5.0129   -7.7162 H   0  0  0  0  0  0  0  0  0  0  0  0
    1.8800    7.2356   -6.9229 H   0  0  0  0  0  0  0  0  0  0  0  0
    4.4006    5.8667   -2.3072 H   0  0  0  0  0  0  0  0  0  0  0  0
    3.7229    5.1702   -4.5207 H   0  0  0  0  0  0  0  0  0  0  0  0
    3.2313    9.0892   -0.6745 H   0  0  0  0  0  0  0  0  0  0  0  0
    4.4412    7.7933    0.9832 H   0  0  0  0  0  0  0  0  0  0  0  0
    4.5842    6.3830   -0.1689 H   0  0  0  0  0  0  0  0  0  0  0  0
  1  2  1  0  0  0  0
  1  3  2  0  0  0  0
  3  4  1  0  0  0  0
  4  5  2  0  0  0  0
  5  6  1  0  0  0  0
  6  7  1  0  0  0  0
  5  8  1  0  0  0  0
  8  9  1  0  0  0  0
  9 10  1  0  0  0  0
  8 11  2  0  0  0  0
 11 12  1  0  0  0  0
 12 13  2  0  0  0  0
 13 14  1  0  0  0  0
 14 15  2  0  0  0  0
 15 16  1  0  0  0  0
 16 17  1  0  0  0  0
 16 18  2  0  0  0  0
 18 19  1  0  0  0  0
 19 20  2  0  0  0  0
 20 21  1  0  0  0  0
 21 22  1  0  0  0  0
 20 23  1  0  0  0  0
 23 24  1  0  0  0  0
 24 25  1  0  0  0  0
 23 26  2  0  0  0  0
 26 27  1  0  0  0  0
 27 28  2  0  0  0  0
 28 29  1  0  0  0  0
 29 30  2  0  0  0  0
 30 31  1  0  0  0  0
 31 32  1  0  0  0  0
 32 33  2  0  0  0  0
 33 34  1  0  0  0  0
 34 35  1  0  0  0  0
 35 36  2  0  0  0  0
 36 37  1  0  0  0  0
 37 38  2  0  0  0  0
 38 39  1  0  0  0  0
 37 40  1  0  0  0  0
 40 41  2  0  0  0  0
 41 42  1  0  0  0  0
 42 43  1  0  0  0  0
 43 44  2  0  0  0  0
 44 45  1  0  0  0  0
 45 46  1  0  0  0  0
 46 47  2  0  0  0  0
 47 48  1  0  0  0  0
 48 49  2  0  0  0  0
 49 50  1  0  0  0  0
 48 51  1  0  0  0  0
 51 52  2  0  0  0  0
 52 53  1  0  0  0  0
 53 54  1  0  0  0  0
 54 55  2  0  0  0  0
 55 56  1  0  0  0  0
 56 57  1  0  0  0  0
 57 58  2  0  0  0  0
 58 59  1  0  0  0  0
 59 60  2  0  0  0  0
 60 61  1  0  0  0  0
 59 62  1  0  0  0  0
 62 63  2  0  0  0  0
 63 64  1  0  0  0  0
 64 65  1  0  0  0  0
 65 66  2  0  0  0  0
 66 67  1  0  0  0  0
 67 68  1  0  0  0  0
 68 69  2  0  0  0  0
 69 70  1  0  0  0  0
 70 71  2  0  0  0  0
 71 72  1  0  0  0  0
 70 73  1  0  0  0  0
 73 74  2  0  0  0  0
 13  2  1  0  0  0  0
 28 17  1  0  0  0  0
 39 31  2  0  0  0  0
 50 42  2  0  0  0  0
 61 53  2  0  0  0  0
 72 64  2  0  0  0  0
 12  3  1  0  0  0  0
 27 18  1  0  0  0  0
 36 32  1  0  0  0  0
 47 43  1  0  0  0  0
 58 54  1  0  0  0  0
 69 65  1  0  0  0  0
  1 75  1  0  0  0  0
  4 76  1  0  0  0  0
  7 77  1  0  0  0  0
  7 78  1  0  0  0  0
  7 79  1  0  0  0  0
 10 80  1  0  0  0  0
 10 81  1  0  0  0  0
 10 82  1  0  0  0  0
 11 83  1  0  0  0  0
 14 84  1  0  0  0  0
 15 85  1  0  0  0  0
 19 86  1  0  0  0  0
 22 87  1  0  0  0  0
 22 88  1  0  0  0  0
 22 89  1  0  0  0  0
 25 90  1  0  0  0  0
 25 91  1  0  0  0  0
 25 92  1  0  0  0  0
 26 93  1  0  0  0  0
 29 94  1  0  0  0  0
 30 95  1  0  0  0  0
 38 96  1  0  0  0  0
 39 97  1  0  0  0  0
 40 98  1  0  0  0  0
 41 99  1  0  0  0  0
 49100  1  0  0  0  0
 50101  1  0  0  0  0
 51102  1  0  0  0  0
 52103  1  0  0  0  0
 60104  1  0  0  0  0
 61105  1  0  0  0  0
 62106  1  0  0  0  0
 63107  1  0  0  0  0
 71108  1  0  0  0  0
 72109  1  0  0  0  0
 73110  1  0  0  0  0
 74111  1  0  0  0  0
 74112  1  0  0  0  0
M  END
