
  xtb     03042208343D
 energy: -228.963051726649 gnorm: 0.000530387625 xtb: 6.4.1 (unknown)
108115  0     0  0            999 V2000
    6.6143    3.6523    3.7595 C   0  0  0  0  0  0  0  0  0  0  0  0
    4.9780    4.1684    3.6795 S   0  0  0  0  0  0  0  0  0  0  0  0
    4.4388    2.5802    3.2505 C   0  0  0  0  0  0  0  0  0  0  0  0
    5.5091    1.7052    3.1655 C   0  0  0  0  0  0  0  0  0  0  0  0
    6.7590    2.3275    3.4632 C   0  0  0  0  0  0  0  0  0  0  0  0
    7.9035    1.6138    3.4411 O   0  0  0  0  0  0  0  0  0  0  0  0
    9.0946    2.3049    3.7360 C   0  0  0  0  0  0  0  0  0  0  0  0
    5.3942    0.2676    2.7897 C   0  0  0  0  0  0  0  0  0  0  0  0
    6.5634   -0.3531    2.6310 F   0  0  0  0  0  0  0  0  0  0  0  0
    4.7358    0.0791    1.6188 F   0  0  0  0  0  0  0  0  0  0  0  0
    4.7150   -0.4627    3.7020 F   0  0  0  0  0  0  0  0  0  0  0  0
    3.0458    2.3781    3.0266 C   0  0  0  0  0  0  0  0  0  0  0  0
    2.2856    0.8367    2.8297 S   0  0  0  0  0  0  0  0  0  0  0  0
    0.7442    1.5613    2.5297 C   0  0  0  0  0  0  0  0  0  0  0  0
    0.8094    2.9427    2.6600 C   0  0  0  0  0  0  0  0  0  0  0  0
    2.1188    3.4059    2.9318 C   0  0  0  0  0  0  0  0  0  0  0  0
    2.4878    4.6997    3.1264 O   0  0  0  0  0  0  0  0  0  0  0  0
    2.4973    5.5339    1.9750 C   0  0  0  0  0  0  0  0  0  0  0  0
   -0.3839    3.8329    2.6133 C   0  0  0  0  0  0  0  0  0  0  0  0
   -0.8585    4.0370    1.3576 F   0  0  0  0  0  0  0  0  0  0  0  0
   -0.1674    5.0535    3.1126 F   0  0  0  0  0  0  0  0  0  0  0  0
   -1.4270    3.3449    3.3144 F   0  0  0  0  0  0  0  0  0  0  0  0
   -0.3245    0.7021    2.1670 C   0  0  0  0  0  0  0  0  0  0  0  0
   -1.8490    1.2034    1.5219 S   0  0  0  0  0  0  0  0  0  0  0  0
   -2.4110   -0.4342    1.3320 C   0  0  0  0  0  0  0  0  0  0  0  0
   -1.4458   -1.3230    1.8128 C   0  0  0  0  0  0  0  0  0  0  0  0
   -0.2574   -0.6838    2.2285 C   0  0  0  0  0  0  0  0  0  0  0  0
    0.8651   -1.2778    2.7074 O   0  0  0  0  0  0  0  0  0  0  0  0
    1.5898   -2.1154    1.8174 C   0  0  0  0  0  0  0  0  0  0  0  0
   -1.6594   -2.7867    1.9951 C   0  0  0  0  0  0  0  0  0  0  0  0
   -0.8891   -3.3075    2.9595 F   0  0  0  0  0  0  0  0  0  0  0  0
   -1.3915   -3.5211    0.8858 F   0  0  0  0  0  0  0  0  0  0  0  0
   -2.9196   -3.0924    2.3496 F   0  0  0  0  0  0  0  0  0  0  0  0
   -3.5953   -0.6929    0.6076 C   0  0  0  0  0  0  0  0  0  0  0  0
   -3.8593   -2.2572   -0.1049 S   0  0  0  0  0  0  0  0  0  0  0  0
   -4.5447    0.2203    0.1149 C   0  0  0  0  0  0  0  0  0  0  0  0
   -4.7328    1.5607    0.4976 C   0  0  0  0  0  0  0  0  0  0  0  0
   -5.6764    2.3308   -0.1307 C   0  0  0  0  0  0  0  0  0  0  0  0
   -5.9318    3.6256    0.1513 O   0  0  0  0  0  0  0  0  0  0  0  0
   -5.1416    4.2676    1.1269 C   0  0  0  0  0  0  0  0  0  0  0  0
   -6.4925    1.7737   -1.1787 C   0  0  0  0  0  0  0  0  0  0  0  0
   -7.3839    2.6432   -1.7120 O   0  0  0  0  0  0  0  0  0  0  0  0
   -8.2363    2.1846   -2.7318 C   0  0  0  0  0  0  0  0  0  0  0  0
   -6.3356    0.4666   -1.5490 C   0  0  0  0  0  0  0  0  0  0  0  0
   -5.3711   -0.3378   -0.9053 C   0  0  0  0  0  0  0  0  0  0  0  0
   -5.0408   -1.6605   -1.2107 C   0  0  0  0  0  0  0  0  0  0  0  0
   -5.5346   -2.4892   -2.2666 C   0  0  0  0  0  0  0  0  0  0  0  0
   -4.7957   -3.3836   -2.9695 C   0  0  0  0  0  0  0  0  0  0  0  0
   -3.3752   -3.5206   -2.9586 C   0  0  0  0  0  0  0  0  0  0  0  0
   -2.3206   -2.1780   -2.6614 S   0  0  0  0  0  0  0  0  0  0  0  0
   -2.6249   -4.6711   -3.2243 C   0  0  0  0  0  0  0  0  0  0  0  0
   -3.1199   -5.9570   -3.5294 C   0  0  0  0  0  0  0  0  0  0  0  0
   -2.2506   -6.9949   -3.7207 C   0  0  0  0  0  0  0  0  0  0  0  0
   -2.5986   -8.2677   -4.0270 O   0  0  0  0  0  0  0  0  0  0  0  0
   -3.9646   -8.5773   -4.1480 C   0  0  0  0  0  0  0  0  0  0  0  0
   -0.8297   -6.7876   -3.5973 C   0  0  0  0  0  0  0  0  0  0  0  0
   -0.0884   -7.9003   -3.8117 O   0  0  0  0  0  0  0  0  0  0  0  0
    1.3097   -7.8072   -3.6893 C   0  0  0  0  0  0  0  0  0  0  0  0
   -0.3359   -5.5506   -3.2860 C   0  0  0  0  0  0  0  0  0  0  0  0
   -1.2187   -4.4682   -3.0960 C   0  0  0  0  0  0  0  0  0  0  0  0
   -0.8883   -3.1531   -2.7471 C   0  0  0  0  0  0  0  0  0  0  0  0
    0.3722   -2.6011   -2.4308 C   0  0  0  0  0  0  0  0  0  0  0  0
    0.5386   -1.3696   -1.8881 C   0  0  0  0  0  0  0  0  0  0  0  0
    1.7868   -0.7508   -1.6170 C   0  0  0  0  0  0  0  0  0  0  0  0
    3.3250   -1.4887   -1.9590 S   0  0  0  0  0  0  0  0  0  0  0  0
    4.1726   -0.0847   -1.4824 C   0  0  0  0  0  0  0  0  0  0  0  0
    3.3323    0.9046   -1.0574 C   0  0  0  0  0  0  0  0  0  0  0  0
    1.9617    0.5293   -1.1105 C   0  0  0  0  0  0  0  0  0  0  0  0
    0.9125    1.2735   -0.6531 O   0  0  0  0  0  0  0  0  0  0  0  0
    0.4838    2.3376   -1.4901 C   0  0  0  0  0  0  0  0  0  0  0  0
    3.8332    2.2543   -0.6829 C   0  0  0  0  0  0  0  0  0  0  0  0
    3.9262    3.0694   -1.7638 F   0  0  0  0  0  0  0  0  0  0  0  0
    5.0601    2.2377   -0.1438 F   0  0  0  0  0  0  0  0  0  0  0  0
    3.0471    2.9086    0.1820 F   0  0  0  0  0  0  0  0  0  0  0  0
    7.3737    4.3622    4.0128 H   0  0  0  0  0  0  0  0  0  0  0  0
    9.8883    1.5642    3.6637 H   0  0  0  0  0  0  0  0  0  0  0  0
    9.2751    3.1092    3.0163 H   0  0  0  0  0  0  0  0  0  0  0  0
    9.0714    2.7217    4.7477 H   0  0  0  0  0  0  0  0  0  0  0  0
    3.3270    5.2658    1.3163 H   0  0  0  0  0  0  0  0  0  0  0  0
    2.6335    6.5457    2.3486 H   0  0  0  0  0  0  0  0  0  0  0  0
    1.5631    5.4696    1.4149 H   0  0  0  0  0  0  0  0  0  0  0  0
    2.4338   -2.4805    2.3972 H   0  0  0  0  0  0  0  0  0  0  0  0
    1.9531   -1.5401    0.9619 H   0  0  0  0  0  0  0  0  0  0  0  0
    0.9961   -2.9576    1.4599 H   0  0  0  0  0  0  0  0  0  0  0  0
   -4.1481    1.9648    1.3046 H   0  0  0  0  0  0  0  0  0  0  0  0
   -5.2779    3.8164    2.1142 H   0  0  0  0  0  0  0  0  0  0  0  0
   -5.4881    5.2991    1.1500 H   0  0  0  0  0  0  0  0  0  0  0  0
   -4.0805    4.2426    0.8617 H   0  0  0  0  0  0  0  0  0  0  0  0
   -8.8779    1.3691   -2.3821 H   0  0  0  0  0  0  0  0  0  0  0  0
   -7.6708    1.8512   -3.6082 H   0  0  0  0  0  0  0  0  0  0  0  0
   -8.8545    3.0382   -3.0042 H   0  0  0  0  0  0  0  0  0  0  0  0
   -6.9397    0.0251   -2.3239 H   0  0  0  0  0  0  0  0  0  0  0  0
   -6.5863   -2.3913   -2.5043 H   0  0  0  0  0  0  0  0  0  0  0  0
   -5.3181   -4.0515   -3.6436 H   0  0  0  0  0  0  0  0  0  0  0  0
   -4.1849   -6.0987   -3.6053 H   0  0  0  0  0  0  0  0  0  0  0  0
   -4.0054   -9.6388   -4.3861 H   0  0  0  0  0  0  0  0  0  0  0  0
   -4.5021   -8.3942   -3.2118 H   0  0  0  0  0  0  0  0  0  0  0  0
   -4.4361   -8.0065   -4.9550 H   0  0  0  0  0  0  0  0  0  0  0  0
    1.6888   -8.8076   -3.8900 H   0  0  0  0  0  0  0  0  0  0  0  0
    1.7309   -7.1066   -4.4179 H   0  0  0  0  0  0  0  0  0  0  0  0
    1.6045   -7.5025   -2.6801 H   0  0  0  0  0  0  0  0  0  0  0  0
    0.7228   -5.3824   -3.1819 H   0  0  0  0  0  0  0  0  0  0  0  0
    1.2441   -3.2136   -2.6187 H   0  0  0  0  0  0  0  0  0  0  0  0
   -0.3296   -0.7674   -1.6518 H   0  0  0  0  0  0  0  0  0  0  0  0
    5.2426   -0.0581   -1.5173 H   0  0  0  0  0  0  0  0  0  0  0  0
    0.0691    1.9483   -2.4255 H   0  0  0  0  0  0  0  0  0  0  0  0
    1.2964    3.0309   -1.7197 H   0  0  0  0  0  0  0  0  0  0  0  0
   -0.2904    2.8570   -0.9297 H   0  0  0  0  0  0  0  0  0  0  0  0
  1  2  1  0  0  0  0
  2  3  1  0  0  0  0
  3  4  2  0  0  0  0
  4  5  1  0  0  0  0
  5  6  1  0  0  0  0
  6  7  1  0  0  0  0
  4  8  1  0  0  0  0
  8  9  1  0  0  0  0
  8 10  1  0  0  0  0
  8 11  1  0  0  0  0
  3 12  1  0  0  0  0
 12 13  1  0  0  0  0
 13 14  1  0  0  0  0
 14 15  2  0  0  0  0
 15 16  1  0  0  0  0
 16 17  1  0  0  0  0
 17 18  1  0  0  0  0
 15 19  1  0  0  0  0
 19 20  1  0  0  0  0
 19 21  1  0  0  0  0
 19 22  1  0  0  0  0
 14 23  1  0  0  0  0
 23 24  1  0  0  0  0
 24 25  1  0  0  0  0
 25 26  2  0  0  0  0
 26 27  1  0  0  0  0
 27 28  1  0  0  0  0
 28 29  1  0  0  0  0
 26 30  1  0  0  0  0
 30 31  1  0  0  0  0
 30 32  1  0  0  0  0
 30 33  1  0  0  0  0
 25 34  1  0  0  0  0
 34 35  1  0  0  0  0
 34 36  2  0  0  0  0
 36 37  1  0  0  0  0
 37 38  2  0  0  0  0
 38 39  1  0  0  0  0
 39 40  1  0  0  0  0
 38 41  1  0  0  0  0
 41 42  1  0  0  0  0
 42 43  1  0  0  0  0
 41 44  2  0  0  0  0
 44 45  1  0  0  0  0
 45 46  2  0  0  0  0
 46 47  1  0  0  0  0
 47 48  2  0  0  0  0
 48 49  1  0  0  0  0
 49 50  1  0  0  0  0
 49 51  2  0  0  0  0
 51 52  1  0  0  0  0
 52 53  2  0  0  0  0
 53 54  1  0  0  0  0
 54 55  1  0  0  0  0
 53 56  1  0  0  0  0
 56 57  1  0  0  0  0
 57 58  1  0  0  0  0
 56 59  2  0  0  0  0
 59 60  1  0  0  0  0
 60 61  2  0  0  0  0
 61 62  1  0  0  0  0
 62 63  2  0  0  0  0
 63 64  1  0  0  0  0
 64 65  1  0  0  0  0
 65 66  1  0  0  0  0
 66 67  2  0  0  0  0
 67 68  1  0  0  0  0
 68 69  1  0  0  0  0
 69 70  1  0  0  0  0
 67 71  1  0  0  0  0
 71 72  1  0  0  0  0
 71 73  1  0  0  0  0
 71 74  1  0  0  0  0
  5  1  2  0  0  0  0
 16 12  2  0  0  0  0
 27 23  2  0  0  0  0
 46 35  1  0  0  0  0
 61 50  1  0  0  0  0
 68 64  2  0  0  0  0
 45 36  1  0  0  0  0
 60 51  1  0  0  0  0
  1 75  1  0  0  0  0
  7 76  1  0  0  0  0
  7 77  1  0  0  0  0
  7 78  1  0  0  0  0
 18 79  1  0  0  0  0
 18 80  1  0  0  0  0
 18 81  1  0  0  0  0
 29 82  1  0  0  0  0
 29 83  1  0  0  0  0
 29 84  1  0  0  0  0
 37 85  1  0  0  0  0
 40 86  1  0  0  0  0
 40 87  1  0  0  0  0
 40 88  1  0  0  0  0
 43 89  1  0  0  0  0
 43 90  1  0  0  0  0
 43 91  1  0  0  0  0
 44 92  1  0  0  0  0
 47 93  1  0  0  0  0
 48 94  1  0  0  0  0
 52 95  1  0  0  0  0
 55 96  1  0  0  0  0
 55 97  1  0  0  0  0
 55 98  1  0  0  0  0
 58 99  1  0  0  0  0
 58100  1  0  0  0  0
 58101  1  0  0  0  0
 59102  1  0  0  0  0
 62103  1  0  0  0  0
 63104  1  0  0  0  0
 66105  1  0  0  0  0
 70106  1  0  0  0  0
 70107  1  0  0  0  0
 70108  1  0  0  0  0
M  END
