227

C         17.02410       -2.28850       -4.85340
S         15.37240       -2.36680       -5.26860
C         17.46450       -0.99020       -4.72370
C         18.76820       -0.56380       -4.36840
C         19.03320        0.76690       -4.23670
O         20.23150        1.30880       -3.90240
C         21.30730        0.43830       -3.65720
C         17.98300        1.73510       -4.43520
O         18.37080        3.02020       -4.22700
C         17.42150        4.04130       -4.39620
C         16.72470        1.33960       -4.79380
C         16.43240       -0.02960       -4.97690
C         15.21500       -0.63050       -5.32040
C         13.95340       -0.10540       -5.68440
C         13.67450        1.15450       -6.11380
C         12.37810        1.61900       -6.41810
S         10.96820        0.64420       -6.17300
C         12.01110        2.88110       -6.91380
C         12.88360        3.93860       -7.24380
C         12.38630        5.11050       -7.74200
O         13.12250        6.19810       -8.08580
C         14.51500        6.14380       -7.90870
C         10.97310        5.25650       -7.95830
O         10.61280        6.44710       -8.49740
C          9.24970        6.68550       -8.74710
C         10.11390        4.24220       -7.63260
C         10.60420        3.04200       -7.07670
C          9.87730        1.90970       -6.67500
C          8.50090        1.62930       -6.53370
C          7.45230        2.49250       -6.56450
C          6.11130        2.10580       -6.29500
C          5.58330        0.86290       -6.06570
C          4.21720        0.87290       -5.70350
C          3.40700       -0.22580       -5.35980
C          3.93620       -1.59340       -5.30810
C          3.26810       -2.64440       -5.93500
C          3.76830       -3.92690       -5.88170
C          4.94300       -4.22150       -5.18940
S          5.45770       -5.90980       -5.16150
C          7.29050       -5.81910       -5.05320
C          7.87500       -7.11790       -5.57240
C          5.57920       -3.16920       -4.53770
F          6.69340       -3.37900       -3.79800
C          5.10110       -1.87630       -4.60220
C          2.09340        0.05180       -5.01590
C          1.56260        1.36350       -5.01100
C          2.35980        2.46100       -5.38450
C          1.76760        3.80370       -5.35440
C          2.33930        4.84620       -4.62860
C          1.66720        6.04070       -4.47150
C          0.41450        6.24740       -5.04510
S         -0.43320        7.76160       -4.71520
C         -2.17550        7.19390       -4.52860
C         -2.89090        8.07580       -3.52550
C         -0.09610        5.23500       -5.85310
C          0.55070        4.02600       -5.99410
F         -1.26060        5.40400       -6.51810
C          3.67850        2.18810       -5.69910
S          4.89080        3.36220       -6.13160
C          0.25300        1.40090       -4.47770
C         -0.21780        0.18410       -4.08440
S          0.93110       -1.10330       -4.40350
C         -1.42770       -0.04940       -3.37060
C         -1.88980       -1.20610       -2.81910
C         -3.03770       -1.02730       -2.00380
C         -3.70310       -1.97850       -1.21350
C         -3.28980       -3.38690       -1.18410
C         -1.96670       -3.75000       -0.95260
C         -1.58210       -5.07690       -0.93050
C         -2.51060       -6.09120       -1.13530
S         -2.15920       -7.81610       -1.16790
C         -0.46940       -7.94620       -0.48840
C         -0.42480       -7.66830        1.00220
C         -3.83540       -5.71160       -1.36230
F         -4.76080       -6.66740       -1.57570
C         -4.23180       -4.39430       -1.38480
C         -4.75120       -1.51510       -0.43190
C         -5.16980       -0.16100       -0.40810
C         -4.52930        0.78330       -1.22720
C         -4.90280        2.20390       -1.23120
C         -4.99050        2.93450       -0.04720
C         -5.32510        4.27190       -0.06940
C         -5.57490        4.93640       -1.26830
S         -5.95100        6.66560       -1.18100
C         -7.26980        6.90210       -2.43180
C         -8.47800        6.02720       -2.16510
C         -5.44790        4.20500       -2.44450
C         -5.13400        2.86110       -2.43550
F         -5.62930        4.79530       -3.64620
C         -3.47600        0.32080       -1.99940
S         -2.44630        1.32660       -2.98160
C         -6.20880        0.05470        0.52990
C         -6.54520       -1.06290        1.23840
S         -5.64000       -2.47060        0.72410
C         -7.44490       -1.14840        2.34380
C         -8.04180       -0.11240        3.00290
C         -8.79110       -0.51300        4.13640
C         -9.49640        0.30570        5.03930
C         -9.60830        1.75080        4.81170
C         -9.99210        2.24640        3.56690
C        -10.06550        3.60450        3.33130
C         -9.74790        4.51900        4.32940
S         -9.80000        6.27080        4.12220
C         -9.35410        6.48810        2.36120
C         -7.96600        5.96110        2.05660
C         -9.39830        4.01100        5.58030
F         -9.09920        4.86530        6.57720
C         -9.32530        2.65800        5.83010
C        -10.05350       -0.32270        6.14160
C         -9.97360       -1.72200        6.34830
C         -9.32820       -2.54770        5.41300
C         -9.32940       -4.00500        5.58730
C        -10.52920       -4.67810        5.82050
C        -10.54290       -6.03980        6.02870
C         -9.36600       -6.78540        6.00980
S         -9.50600       -8.52820        6.28620
C         -8.09370       -8.89800        7.39180
C         -8.15040       -8.08680        8.67080
C         -8.18280       -6.10900        5.72990
C         -8.15270       -4.74270        5.53190
F         -7.00970       -6.77310        5.65610
C         -8.72300       -1.91420        4.34020
S         -7.79810       -2.69450        3.08550
C        -10.55910       -2.11790        7.57350
C        -11.12950       -1.09420        8.27670
S        -10.94270        0.44120        7.43440
C        -11.76910       -1.12080        9.54640
S        -11.99480        0.36420       10.40990
C        -12.24390       -2.20030       10.29840
C        -12.29010       -3.56550        9.93680
C        -12.72360       -4.50370       10.82960
O        -12.79310       -5.83670       10.59290
C        -12.37270       -6.31770        9.34010
C        -13.13330       -4.11140       12.15370
O        -13.47290       -5.14710       12.96160
C        -13.87210       -4.86180       14.27870
C        -13.16390       -2.79140       12.49870
C        -12.75580       -1.80120       11.57340
C        -12.71830       -0.42170       11.76900
C        -13.17410        0.40100       12.85580
C        -14.15540        0.11570       13.71060
H         17.58710       -3.19110       -4.72450
H         19.52200       -1.31550       -4.20120
H         22.15050        1.07710       -3.39970
H         21.09510       -0.23700       -2.82160
H         21.55660       -0.15220       -4.54520
H         17.94640        4.97020       -4.17930
H         17.04390        4.07120       -5.42460
H         16.58000        3.93050       -3.70380
H         15.93600        2.06270       -4.90120
H         13.13240       -0.81250       -5.64650
H         14.47490        1.86080       -6.26670
H         13.94320        3.80290       -7.10470
H         14.96880        5.35640       -8.52030
H         14.78090        5.98640       -6.85740
H         14.89110        7.11250       -8.23330
H          8.84150        5.97140       -9.47000
H          9.19940        7.68950       -9.16500
H          8.65910        6.64700       -7.82580
H          9.06090        4.33950       -7.82450
H          8.28790        0.59300       -6.30280
H          7.60800        3.54810       -6.71940
H          6.15380       -0.04220       -6.15970
H          2.36350       -2.44760       -6.48940
H          3.25550       -4.73410       -6.38100
H          7.56730       -5.65170       -4.01350
H          7.60820       -4.97350       -5.66130
H          8.96080       -7.07910       -5.51570
H          7.52420       -7.95830       -4.97780
H          7.58330       -7.28260       -6.60730
H          5.62590       -1.10370       -4.06160
H          3.29200        4.70070       -4.14350
H          2.09170        6.83150       -3.87290
H         -2.13900        6.16230       -4.18190
H         -2.65460        7.23660       -5.50580
H         -2.91490        9.10750       -3.86840
H         -2.39080        8.04310       -2.56020
H         -3.91310        7.72640       -3.39770
H          0.10360        3.26510       -6.61550
H         -0.30770        2.30710       -4.33390
H         -1.40710       -2.15370       -2.97700
H         -1.22820       -2.98540       -0.76430
H         -0.54440       -5.31170       -0.75810
H          0.18850       -7.29060       -1.05750
H         -0.19200       -8.97930       -0.69740
H         -1.07390       -8.36170        1.53170
H          0.59170       -7.79090        1.37130
H         -0.75550       -6.65560        1.22270
H         -5.26720       -4.16140       -1.57720
H         -4.77450        2.45330        0.89430
H         -5.39020        4.83330        0.84950
H         -7.51890        7.95860       -2.33180
H         -6.85530        6.72810       -3.42220
H         -9.25560        6.24850       -2.89310
H         -8.21990        4.97300       -2.24870
H         -8.87270        6.21000       -1.16770
H         -5.07080        2.33870       -3.37730
H         -6.68150        1.00830        0.67610
H         -7.91530        0.91500        2.71550
H        -10.26070        1.55730        2.78020
H        -10.38090        3.95400        2.36070
H         -9.39960        7.56820        2.22380
H        -10.12020        6.02530        1.73960
H         -7.24270        6.39810        2.74130
H         -7.93040        4.87790        2.15970
H         -7.67950        6.22560        1.04090
H         -9.01970        2.32380        6.80860
H        -11.45560       -4.12360        5.82810
H        -11.47090       -6.55870        6.21310
H         -8.20680       -9.96260        7.59580
H         -7.16600       -8.73790        6.84740
H         -9.09540       -8.24940        9.18540
H         -8.04830       -7.02340        8.45990
H         -7.33740       -8.38430        9.32980
H         -7.20290       -4.26720        5.34410
H        -10.48080       -3.12340        7.93770
H        -11.99850       -3.85580        8.94420
H        -12.49760       -7.39830        9.38210
H        -12.98600       -5.91410        8.52790
H        -11.32040       -6.08100        9.14910
H        -14.78170       -4.25230       14.30010
H        -13.08070       -4.35060       14.83710
H        -14.07430       -5.82680       14.74040
H        -13.45950       -2.48180       13.48560
H        -12.68160        1.36320       12.92420
H        -14.42820        0.80640       14.48910
H        -14.73560       -0.78710       13.64620
