120

C          1.87520       -0.95170        0.34780
C          2.09620       -0.40450       -0.89120
C          1.18260        0.66810       -1.20950
N          1.26850        1.30040       -2.39320
C          2.20300        0.89060       -3.20910
C          3.10230       -0.16540       -2.90440
C          4.17300       -0.55600       -3.87610
C          5.26560        0.51290       -3.93830
N          3.05400       -0.79940       -1.76340
C          0.25530        0.90740       -0.18680
S          0.56140       -0.19560        1.13400
C         -0.80770        1.82450       -0.02870
S         -1.90210        1.50990        1.28290
C         -1.14510        3.03210       -0.66290
C         -0.53410        3.60730       -1.79320
C         -0.98840        4.80190       -2.28380
O         -0.49690        5.44050       -3.37250
C          0.50620        4.79870       -4.12450
C         -2.07350        5.48490       -1.63560
O         -2.42170        6.66230       -2.21590
C         -3.47970        7.39750       -1.65580
C         -2.67080        4.93830       -0.53190
C         -2.23230        3.69830       -0.02650
C         -2.74670        3.00960        1.09190
C         -3.83980        3.41260        1.89030
C         -4.39920        2.84190        2.99780
C         -3.93590        1.74620        3.77020
S         -5.09800        0.60500        4.39620
C         -2.64350        1.34130        4.11280
C         -1.45060        2.08200        3.97040
C         -0.24790        1.50490        4.27920
O          0.96190        2.09920        4.14890
C          1.01530        3.37430        3.55870
C         -0.19890        0.15850        4.78570
O          1.05280       -0.31210        5.00630
C          1.19460       -1.65410        5.40070
C         -1.35410       -0.53470        5.01740
C         -2.59970        0.04220        4.69000
C         -3.86580       -0.51880        4.87680
C         -4.17870       -1.81370        5.39290
C         -3.57260       -2.95820        4.98390
C         -2.79820       -3.11710        3.80810
C         -2.07190       -4.25770        3.44080
C         -1.52890       -4.20200        2.11350
N         -0.84830       -5.24230        1.60480
C         -0.68490       -6.26620        2.39590
C         -1.18310       -6.31830        3.72570
C         -0.96960       -7.53160        4.57700
C         -1.88290       -8.67250        4.12490
N         -1.87490       -5.32710        4.23430
C         -1.85170       -3.00890        1.45110
S         -2.78790       -1.98160        2.49500
C         -1.53850       -2.55440        0.16060
C         -0.48900       -2.90500       -0.70180
C         -0.45800       -2.11920       -1.90240
N          0.49920       -2.31800       -2.82280
C          1.39770       -3.21870       -2.54350
C          1.40740       -3.96070       -1.33240
C          2.51490       -4.92330       -1.04100
C          3.74960       -4.17430       -0.53330
N          0.46880       -3.80390       -0.43280
C         -1.47310       -1.14880       -1.96020
S         -2.47360       -1.27020       -0.54580
C         -1.69100       -0.10980       -2.88360
C         -1.02520        0.19870       -4.07810
C         -1.44510        1.46400       -4.62730
N         -0.85360        1.96950       -5.73680
C          0.04940        1.21630       -6.29460
C          0.39250       -0.07940       -5.81490
C          1.33380       -0.95730       -6.57980
C          0.63920       -1.54640       -7.80900
N         -0.13100       -0.56430       -4.71820
C         -2.45040        2.06090       -3.90260
S         -2.87530        1.11980       -2.54590
H          2.39570       -1.75830        0.81950
H          2.26760        1.41170       -4.15600
H          4.60530       -1.50310       -3.55060
H          3.73140       -0.68730       -4.86590
H          5.71620        0.64650       -2.95720
H          4.85440        1.46730       -4.26070
H          6.04250        0.21650       -4.63900
H          0.26530        3.06220       -2.26570
H          1.40100        4.61120       -3.52270
H          0.14460        3.85620       -4.54620
H          0.74870        5.48730       -4.93230
H         -3.58260        8.28510       -2.27780
H         -4.41770        6.83220       -1.67370
H         -3.25920        7.70050       -0.62650
H         -3.48680        5.44330       -0.04260
H         -4.35580        4.28530        1.50970
H         -5.37170        3.22090        3.28990
H         -1.51610        3.09930        3.62180
H          0.50970        4.12540        4.17480
H          0.57370        3.37180        2.55680
H          2.07320        3.62150        3.48680
H          0.73310       -2.33460        4.67690
H          0.76090       -1.83290        6.39020
H          2.26700       -1.83820        5.43960
H         -1.34160       -1.52410        5.44340
H         -4.95360       -1.87160        6.14600
H         -3.73560       -3.87560        5.53360
H         -0.13660       -7.10380        1.98490
H          0.07320       -7.84870        4.50430
H         -1.19150       -7.27230        5.61270
H         -1.68180       -8.94000        3.08990
H         -2.92500       -8.37270        4.20660
H         -1.72400       -9.54980        4.74720
H          2.16040       -3.37990       -3.29370
H          2.76790       -5.46590       -1.95460
H          2.17240       -5.63080       -0.28570
H          3.56400       -3.78370        0.46370
H          4.60520       -4.84400       -0.48610
H          3.98640       -3.33770       -1.18730
H          0.53730        1.62490       -7.17100
H          2.20340       -0.37700       -6.89980
H          1.65360       -1.76280       -5.91840
H         -0.21670       -2.14230       -7.50220
H          1.32660       -2.18360       -8.36050
H          0.29110       -0.75640       -8.47130
H         -2.94100        2.99280       -4.09590
