84

C         -0.61840       -5.04290        0.53020
O         -1.66020       -4.41480       -0.02550
C         -1.40080       -3.08260        0.00390
C         -0.17290       -2.85470        0.57140
C          0.33610       -4.13660        0.91980
C          1.57800       -4.38900        1.52210
N          2.60190       -4.54910        2.01190
C         -2.27520       -2.14580       -0.62810
S         -3.04310       -2.57630       -2.12510
C         -2.42640       -0.79150       -0.35460
C         -2.01650       -0.06930        0.79000
C         -2.28430        1.26740        0.87900
O         -1.97450        2.06900        1.92180
C         -1.32580        1.50180        3.03310
C         -2.99430        1.95190       -0.17760
O         -3.21300        3.26420        0.06730
C         -3.93900        4.00960       -0.87970
C         -3.39470        1.27190       -1.28920
C         -3.09530       -0.10500       -1.41290
C         -3.39550       -0.92210       -2.49440
C         -3.61670       -0.47090       -3.84850
C         -2.79610        0.45580       -4.37630
C         -1.61530        0.92850       -3.67990
S         -1.38890        2.60050       -3.33840
C         -0.60100        0.17750       -3.08540
C         -0.36590       -1.20460       -3.24670
C          0.66950       -1.82670       -2.60040
O          0.91360       -3.16820       -2.67730
C          0.13400       -3.95440       -3.54670
C          1.58030       -1.04570       -1.81200
O          2.64310       -1.51340       -1.10810
C          3.21340       -2.78300       -1.34620
C          1.40370        0.31530       -1.72170
C          0.29930        0.95750       -2.29580
C         -0.03220        2.31850       -2.27380
C          0.50070        3.47180       -1.65560
C          1.38660        3.69140       -0.64650
C          2.05010        2.86810        0.30640
O          1.61500        1.69810        0.81590
C          2.55430        1.25350        1.69900
C          3.60160        2.14760        1.77620
C          3.27520        3.20040        0.90370
C          4.02420        4.35560        0.64760
N          4.62640        5.30980        0.44020
C          2.39750        0.04390        2.43680
O          1.20730       -0.57420        2.55240
C          1.37430       -1.64520        3.37700
C          2.68320       -1.73500        3.78380
C          3.35290       -0.64460        3.18470
C          4.71350       -0.33640        3.31660
N          5.82710       -0.09220        3.44070
C          0.25210       -2.46710        3.69920
O         -0.97800       -2.14980        3.24850
C         -1.82880       -3.10180        3.67530
C         -1.18000       -4.04070        4.41000
C          0.18570       -3.63850        4.44020
C          1.22890       -4.29330        5.10750
N          2.05020       -4.84230        5.68920
H         -0.65000       -6.11210        0.59800
H          0.31480       -1.90980        0.68160
H         -1.52030       -0.59580        1.58550
H         -1.94000        0.72640        3.50290
H         -0.36190        1.07460        2.75030
H         -1.17400        2.31940        3.73600
H         -3.99090        5.02050       -0.47940
H         -4.95280        3.61570       -1.00580
H         -3.43360        4.02720       -1.85040
H         -3.95050        1.74840       -2.08000
H         -4.41800       -0.90330       -4.43070
H         -3.01440        0.89590       -5.34000
H         -1.02050       -1.75500       -3.90190
H          0.54790       -4.95920       -3.47520
H          0.21050       -3.60320       -4.58010
H         -0.91700       -3.97230       -3.24410
H          3.47960       -2.91130       -2.39750
H          2.55250       -3.59420       -1.03710
H          4.11560       -2.80420       -0.73540
H          2.16690        0.87770       -1.21880
H          0.13000        4.38340       -2.11350
H          1.70780        4.72210       -0.54160
H          4.47770        2.06300        2.38510
H          3.11160       -2.48360        4.41720
H         -2.85710       -2.99680        3.39180
H         -1.59450       -4.90900        4.87870
