
  xtb     03072222593D
 energy: -389.583870357582 gnorm: 0.000275736523 xtb: 6.4.1 (unknown)
227247  0     0  0            999 V2000
    3.3653   -4.5780   11.2933 C   0  0  0  0  0  0  0  0  0  0  0  0
    3.9295   -3.3678   11.1045 C   0  0  0  0  0  0  0  0  0  0  0  0
    3.3438   -2.6421   10.0250 C   0  0  0  0  0  0  0  0  0  0  0  0
    3.6706   -1.3572    9.5607 C   0  0  0  0  0  0  0  0  0  0  0  0
    4.8140   -0.6054   10.0907 C   0  0  0  0  0  0  0  0  0  0  0  0
    6.0696   -1.1975   10.1937 C   0  0  0  0  0  0  0  0  0  0  0  0
    7.1634   -0.4848   10.6461 C   0  0  0  0  0  0  0  0  0  0  0  0
    7.0423    0.8524   11.0064 C   0  0  0  0  0  0  0  0  0  0  0  0
    8.3438    1.8765   11.6086 S   0  0  0  0  0  0  0  0  0  0  0  0
    9.8657    0.9434   11.2244 C   0  0  0  0  0  0  0  0  0  0  0  0
   10.1642    0.9129    9.7374 C   0  0  0  0  0  0  0  0  0  0  0  0
    5.7753    1.4304   10.9065 C   0  0  0  0  0  0  0  0  0  0  0  0
    5.6174    2.7233   11.2566 F   0  0  0  0  0  0  0  0  0  0  0  0
    4.6775    0.7313   10.4598 C   0  0  0  0  0  0  0  0  0  0  0  0
    2.8841   -0.8481    8.5390 C   0  0  0  0  0  0  0  0  0  0  0  0
    1.8208   -1.5720    7.9482 C   0  0  0  0  0  0  0  0  0  0  0  0
    1.5164   -2.8702    8.3885 C   0  0  0  0  0  0  0  0  0  0  0  0
    0.4543   -3.6370    7.7242 C   0  0  0  0  0  0  0  0  0  0  0  0
   -0.8262   -3.1056    7.5794 C   0  0  0  0  0  0  0  0  0  0  0  0
   -1.7878   -3.7777    6.8540 C   0  0  0  0  0  0  0  0  0  0  0  0
   -1.5047   -4.9971    6.2489 C   0  0  0  0  0  0  0  0  0  0  0  0
   -2.7613   -5.7869    5.2754 S   0  0  0  0  0  0  0  0  0  0  0  0
   -1.8846   -5.9912    3.6777 C   0  0  0  0  0  0  0  0  0  0  0  0
   -1.5181   -4.6538    3.0667 C   0  0  0  0  0  0  0  0  0  0  0  0
   -0.2444   -5.5473    6.4545 C   0  0  0  0  0  0  0  0  0  0  0  0
    0.7299   -4.8838    7.1728 C   0  0  0  0  0  0  0  0  0  0  0  0
    0.0685   -6.7499    5.9280 F   0  0  0  0  0  0  0  0  0  0  0  0
    2.2909   -3.3726    9.4220 C   0  0  0  0  0  0  0  0  0  0  0  0
    2.0861   -4.9299   10.1815 S   0  0  0  0  0  0  0  0  0  0  0  0
    1.2318   -0.8665    6.8756 C   0  0  0  0  0  0  0  0  0  0  0  0
    1.7952    0.3557    6.6248 C   0  0  0  0  0  0  0  0  0  0  0  0
    3.1073    0.6922    7.7431 S   0  0  0  0  0  0  0  0  0  0  0  0
    1.3992    1.2226    5.5745 C   0  0  0  0  0  0  0  0  0  0  0  0
    0.0093    0.7644    4.6453 S   0  0  0  0  0  0  0  0  0  0  0  0
    1.9729    2.3838    5.0479 C   0  0  0  0  0  0  0  0  0  0  0  0
    3.1135    3.0654    5.5221 C   0  0  0  0  0  0  0  0  0  0  0  0
    3.5571    4.1901    4.8838 C   0  0  0  0  0  0  0  0  0  0  0  0
    4.6465    4.9144    5.2366 O   0  0  0  0  0  0  0  0  0  0  0  0
    5.3650    4.5241    6.3827 C   0  0  0  0  0  0  0  0  0  0  0  0
    2.8402    4.7069    3.7477 C   0  0  0  0  0  0  0  0  0  0  0  0
    3.3517    5.8557    3.2370 O   0  0  0  0  0  0  0  0  0  0  0  0
    2.6635    6.4881    2.1827 C   0  0  0  0  0  0  0  0  0  0  0  0
    1.7419    4.0510    3.2671 C   0  0  0  0  0  0  0  0  0  0  0  0
    1.2992    2.8612    3.8812 C   0  0  0  0  0  0  0  0  0  0  0  0
    0.2209    2.0529    3.5034 C   0  0  0  0  0  0  0  0  0  0  0  0
   -0.6198    2.0037    2.3686 C   0  0  0  0  0  0  0  0  0  0  0  0
   -0.4825    2.6485    1.1847 C   0  0  0  0  0  0  0  0  0  0  0  0
   -1.2939    2.3518    0.0560 C   0  0  0  0  0  0  0  0  0  0  0  0
   -2.3500    1.4885   -0.0563 C   0  0  0  0  0  0  0  0  0  0  0  0
   -2.8110    1.3162   -1.3798 C   0  0  0  0  0  0  0  0  0  0  0  0
   -3.8405    0.4805   -1.8479 C   0  0  0  0  0  0  0  0  0  0  0  0
   -4.6191   -0.3839   -0.9543 C   0  0  0  0  0  0  0  0  0  0  0  0
   -3.9937   -1.2213   -0.0347 C   0  0  0  0  0  0  0  0  0  0  0  0
   -4.7279   -2.0328    0.8090 C   0  0  0  0  0  0  0  0  0  0  0  0
   -6.1176   -2.0406    0.7635 C   0  0  0  0  0  0  0  0  0  0  0  0
   -7.1850   -2.9579    1.8159 S   0  0  0  0  0  0  0  0  0  0  0  0
   -6.0803   -3.7071    3.0639 C   0  0  0  0  0  0  0  0  0  0  0  0
   -5.4661   -5.0137    2.6013 C   0  0  0  0  0  0  0  0  0  0  0  0
   -6.7280   -1.2267   -0.1931 C   0  0  0  0  0  0  0  0  0  0  0  0
   -8.0745   -1.2201   -0.2865 F   0  0  0  0  0  0  0  0  0  0  0  0
   -6.0102   -0.4104   -1.0355 C   0  0  0  0  0  0  0  0  0  0  0  0
   -4.0422    0.4645   -3.2164 C   0  0  0  0  0  0  0  0  0  0  0  0
   -3.2323    1.1608   -4.1501 C   0  0  0  0  0  0  0  0  0  0  0  0
   -2.2570    2.0508   -3.6739 C   0  0  0  0  0  0  0  0  0  0  0  0
   -1.4337    2.9119   -4.5358 C   0  0  0  0  0  0  0  0  0  0  0  0
   -1.4748    4.2936   -4.3484 C   0  0  0  0  0  0  0  0  0  0  0  0
   -0.6817    5.1345   -5.0995 C   0  0  0  0  0  0  0  0  0  0  0  0
    0.2023    4.6250   -6.0459 C   0  0  0  0  0  0  0  0  0  0  0  0
    1.2520    5.7573   -6.9152 S   0  0  0  0  0  0  0  0  0  0  0  0
    1.1437    5.1821   -8.6530 C   0  0  0  0  0  0  0  0  0  0  0  0
   -0.2840    5.1766   -9.1596 C   0  0  0  0  0  0  0  0  0  0  0  0
    0.2511    3.2447   -6.2003 C   0  0  0  0  0  0  0  0  0  0  0  0
   -0.5634    2.3899   -5.4845 C   0  0  0  0  0  0  0  0  0  0  0  0
    1.1377    2.6992   -7.0601 F   0  0  0  0  0  0  0  0  0  0  0  0
   -2.0863    2.1124   -2.3010 C   0  0  0  0  0  0  0  0  0  0  0  0
   -0.8727    3.0657   -1.4920 S   0  0  0  0  0  0  0  0  0  0  0  0
   -3.5200    0.7792   -5.4829 C   0  0  0  0  0  0  0  0  0  0  0  0
   -4.5145   -0.1551   -5.5893 C   0  0  0  0  0  0  0  0  0  0  0  0
   -5.2297   -0.5170   -4.0230 S   0  0  0  0  0  0  0  0  0  0  0  0
   -4.8091   -0.9947   -6.6985 C   0  0  0  0  0  0  0  0  0  0  0  0
   -3.5819   -1.1975   -7.9146 S   0  0  0  0  0  0  0  0  0  0  0  0
   -5.7885   -1.9804   -6.8315 C   0  0  0  0  0  0  0  0  0  0  0  0
   -6.9481   -2.1574   -6.0457 C   0  0  0  0  0  0  0  0  0  0  0  0
   -7.7514   -3.2448   -6.2458 C   0  0  0  0  0  0  0  0  0  0  0  0
   -8.8621   -3.5371   -5.5342 O   0  0  0  0  0  0  0  0  0  0  0  0
   -9.2024   -2.7060   -4.4482 C   0  0  0  0  0  0  0  0  0  0  0  0
   -7.4447   -4.2009   -7.2851 C   0  0  0  0  0  0  0  0  0  0  0  0
   -8.3377   -5.2154   -7.3809 O   0  0  0  0  0  0  0  0  0  0  0  0
   -8.1404   -6.1869   -8.3770 C   0  0  0  0  0  0  0  0  0  0  0  0
   -6.3388   -4.0385   -8.0672 C   0  0  0  0  0  0  0  0  0  0  0  0
   -5.4845   -2.9288   -7.8598 C   0  0  0  0  0  0  0  0  0  0  0  0
   -4.2696   -2.6833   -8.4822 C   0  0  0  0  0  0  0  0  0  0  0  0
   -3.5071   -3.5579   -9.3473 C   0  0  0  0  0  0  0  0  0  0  0  0
   -2.2259   -3.8737   -9.1039 C   0  0  0  0  0  0  0  0  0  0  0  0
   -1.5446   -3.4154   -7.9053 C   0  0  0  0  0  0  0  0  0  0  0  0
   -1.9816   -3.5180   -6.6224 C   0  0  0  0  0  0  0  0  0  0  0  0
   -1.2448   -2.7344   -5.6916 C   0  0  0  0  0  0  0  0  0  0  0  0
   -1.4650   -2.5588   -4.3114 C   0  0  0  0  0  0  0  0  0  0  0  0
   -2.5585   -3.2208   -3.5868 C   0  0  0  0  0  0  0  0  0  0  0  0
   -3.8454   -3.2894   -4.1160 C   0  0  0  0  0  0  0  0  0  0  0  0
   -4.8844   -3.8420   -3.3965 C   0  0  0  0  0  0  0  0  0  0  0  0
   -4.6846   -4.3469   -2.1184 C   0  0  0  0  0  0  0  0  0  0  0  0
   -6.0760   -4.9770   -1.2183 S   0  0  0  0  0  0  0  0  0  0  0  0
   -5.4998   -6.6685   -0.8104 C   0  0  0  0  0  0  0  0  0  0  0  0
   -5.2696   -7.4959   -2.0592 C   0  0  0  0  0  0  0  0  0  0  0  0
   -3.3966   -4.2826   -1.5996 C   0  0  0  0  0  0  0  0  0  0  0  0
   -3.1391   -4.7497   -0.3557 F   0  0  0  0  0  0  0  0  0  0  0  0
   -2.3454   -3.7505   -2.3148 C   0  0  0  0  0  0  0  0  0  0  0  0
   -0.6067   -1.6832   -3.6560 C   0  0  0  0  0  0  0  0  0  0  0  0
    0.4540   -0.9983   -4.2993 C   0  0  0  0  0  0  0  0  0  0  0  0
    0.7082   -1.2197   -5.6645 C   0  0  0  0  0  0  0  0  0  0  0  0
    1.8664   -0.6200   -6.3399 C   0  0  0  0  0  0  0  0  0  0  0  0
    3.1354   -0.6987   -5.7649 C   0  0  0  0  0  0  0  0  0  0  0  0
    4.2247   -0.1220   -6.3822 C   0  0  0  0  0  0  0  0  0  0  0  0
    4.0937    0.5477   -7.5950 C   0  0  0  0  0  0  0  0  0  0  0  0
    5.5403    1.2751   -8.3181 S   0  0  0  0  0  0  0  0  0  0  0  0
    4.9686    2.9792   -8.6755 C   0  0  0  0  0  0  0  0  0  0  0  0
    4.5192    3.6945   -7.4172 C   0  0  0  0  0  0  0  0  0  0  0  0
    2.8357    0.5705   -8.1859 C   0  0  0  0  0  0  0  0  0  0  0  0
    1.7343    0.0073   -7.5742 C   0  0  0  0  0  0  0  0  0  0  0  0
    2.6526    1.1664   -9.3822 F   0  0  0  0  0  0  0  0  0  0  0  0
   -0.1731   -2.0607   -6.3291 C   0  0  0  0  0  0  0  0  0  0  0  0
   -0.0995   -2.4390   -8.0310 S   0  0  0  0  0  0  0  0  0  0  0  0
    1.1559   -0.1408   -3.4135 C   0  0  0  0  0  0  0  0  0  0  0  0
    0.7043   -0.1838   -2.1259 C   0  0  0  0  0  0  0  0  0  0  0  0
   -0.6759   -1.2549   -1.9641 S   0  0  0  0  0  0  0  0  0  0  0  0
    1.3046    0.3866   -0.9655 C   0  0  0  0  0  0  0  0  0  0  0  0
    1.2447   -0.4779    0.5365 S   0  0  0  0  0  0  0  0  0  0  0  0
    2.1224    1.5094   -0.8545 C   0  0  0  0  0  0  0  0  0  0  0  0
    2.3427    2.5131   -1.8241 C   0  0  0  0  0  0  0  0  0  0  0  0
    3.1809    3.5549   -1.5477 C   0  0  0  0  0  0  0  0  0  0  0  0
    3.4543    4.5843   -2.3848 O   0  0  0  0  0  0  0  0  0  0  0  0
    2.8093    4.6114   -3.6344 C   0  0  0  0  0  0  0  0  0  0  0  0
    3.8708    3.6194   -0.2807 C   0  0  0  0  0  0  0  0  0  0  0  0
    4.7253    4.6661   -0.1678 O   0  0  0  0  0  0  0  0  0  0  0  0
    5.6037    4.7043    0.9340 C   0  0  0  0  0  0  0  0  0  0  0  0
    3.6335    2.6824    0.6840 C   0  0  0  0  0  0  0  0  0  0  0  0
    2.7392    1.6162    0.4303 C   0  0  0  0  0  0  0  0  0  0  0  0
    2.3842    0.5823    1.2946 C   0  0  0  0  0  0  0  0  0  0  0  0
    2.9009    0.3118    2.5994 C   0  0  0  0  0  0  0  0  0  0  0  0
    2.5898   -0.7542    3.3383 C   0  0  0  0  0  0  0  0  0  0  0  0
    3.6156   -5.3137   12.0325 H   0  0  0  0  0  0  0  0  0  0  0  0
    4.7219   -2.9776   11.7172 H   0  0  0  0  0  0  0  0  0  0  0  0
    6.1990   -2.2263    9.8929 H   0  0  0  0  0  0  0  0  0  0  0  0
    8.1155   -0.9853   10.7155 H   0  0  0  0  0  0  0  0  0  0  0  0
   10.6398    1.4897   11.7632 H   0  0  0  0  0  0  0  0  0  0  0  0
    9.7839   -0.0536   11.6552 H   0  0  0  0  0  0  0  0  0  0  0  0
   11.0948    0.3779    9.5576 H   0  0  0  0  0  0  0  0  0  0  0  0
    9.3665    0.4183    9.1873 H   0  0  0  0  0  0  0  0  0  0  0  0
   10.2659    1.9260    9.3554 H   0  0  0  0  0  0  0  0  0  0  0  0
    3.7217    1.2287   10.4165 H   0  0  0  0  0  0  0  0  0  0  0  0
   -1.0642   -2.1577    8.0377 H   0  0  0  0  0  0  0  0  0  0  0  0
   -2.7742   -3.3582    6.7297 H   0  0  0  0  0  0  0  0  0  0  0  0
   -1.0122   -6.6207    3.8390 H   0  0  0  0  0  0  0  0  0  0  0  0
   -2.5974   -6.5271    3.0519 H   0  0  0  0  0  0  0  0  0  0  0  0
   -2.4005   -4.0251    2.9741 H   0  0  0  0  0  0  0  0  0  0  0  0
   -0.7861   -4.1324    3.6815 H   0  0  0  0  0  0  0  0  0  0  0  0
   -1.0972   -4.8048    2.0751 H   0  0  0  0  0  0  0  0  0  0  0  0
    1.7026   -5.3382    7.2792 H   0  0  0  0  0  0  0  0  0  0  0  0
    0.4324   -1.2617    6.2752 H   0  0  0  0  0  0  0  0  0  0  0  0
    3.6214    2.6883    6.3927 H   0  0  0  0  0  0  0  0  0  0  0  0
    6.1673    5.2520    6.4874 H   0  0  0  0  0  0  0  0  0  0  0  0
    5.7937    3.5233    6.2667 H   0  0  0  0  0  0  0  0  0  0  0  0
    4.7362    4.5445    7.2778 H   0  0  0  0  0  0  0  0  0  0  0  0
    1.6416    6.7497    2.4745 H   0  0  0  0  0  0  0  0  0  0  0  0
    2.6373    5.8658    1.2828 H   0  0  0  0  0  0  0  0  0  0  0  0
    3.2245    7.3968    1.9724 H   0  0  0  0  0  0  0  0  0  0  0  0
    1.1900    4.4473    2.4345 H   0  0  0  0  0  0  0  0  0  0  0  0
   -1.4158    1.2748    2.4507 H   0  0  0  0  0  0  0  0  0  0  0  0
    0.3239    3.3433    1.0122 H   0  0  0  0  0  0  0  0  0  0  0  0
   -2.7896    0.9802    0.7811 H   0  0  0  0  0  0  0  0  0  0  0  0
   -2.9153   -1.2588    0.0039 H   0  0  0  0  0  0  0  0  0  0  0  0
   -4.2009   -2.6668    1.5026 H   0  0  0  0  0  0  0  0  0  0  0  0
   -6.7366   -3.8771    3.9176 H   0  0  0  0  0  0  0  0  0  0  0  0
   -5.3317   -2.9674    3.3438 H   0  0  0  0  0  0  0  0  0  0  0  0
   -4.8126   -4.8620    1.7465 H   0  0  0  0  0  0  0  0  0  0  0  0
   -4.8916   -5.4519    3.4153 H   0  0  0  0  0  0  0  0  0  0  0  0
   -6.2495   -5.7107    2.3136 H   0  0  0  0  0  0  0  0  0  0  0  0
   -6.5418    0.2231   -1.7281 H   0  0  0  0  0  0  0  0  0  0  0  0
   -2.1501    4.7082   -3.6158 H   0  0  0  0  0  0  0  0  0  0  0  0
   -0.7270    6.2031   -4.9595 H   0  0  0  0  0  0  0  0  0  0  0  0
    1.7511    5.9071   -9.1946 H   0  0  0  0  0  0  0  0  0  0  0  0
    1.6065    4.2014   -8.7333 H   0  0  0  0  0  0  0  0  0  0  0  0
   -0.8891    4.4609   -8.6056 H   0  0  0  0  0  0  0  0  0  0  0  0
   -0.2967    4.8958  -10.2108 H   0  0  0  0  0  0  0  0  0  0  0  0
   -0.7320    6.1625   -9.0544 H   0  0  0  0  0  0  0  0  0  0  0  0
   -0.4799    1.3253   -5.6408 H   0  0  0  0  0  0  0  0  0  0  0  0
   -2.9758    1.1443   -6.3359 H   0  0  0  0  0  0  0  0  0  0  0  0
   -7.1870   -1.4233   -5.2958 H   0  0  0  0  0  0  0  0  0  0  0  0
   -9.4416   -1.6909   -4.7796 H   0  0  0  0  0  0  0  0  0  0  0  0
  -10.0854   -3.1567   -3.9995 H   0  0  0  0  0  0  0  0  0  0  0  0
   -8.4001   -2.6644   -3.7048 H   0  0  0  0  0  0  0  0  0  0  0  0
   -8.1593   -5.7448   -9.3786 H   0  0  0  0  0  0  0  0  0  0  0  0
   -7.1952   -6.7218   -8.2353 H   0  0  0  0  0  0  0  0  0  0  0  0
   -8.9691   -6.8854   -8.2753 H   0  0  0  0  0  0  0  0  0  0  0  0
   -6.0895   -4.7375   -8.8484 H   0  0  0  0  0  0  0  0  0  0  0  0
   -4.0151   -3.9790  -10.2052 H   0  0  0  0  0  0  0  0  0  0  0  0
   -1.6588   -4.4616   -9.8119 H   0  0  0  0  0  0  0  0  0  0  0  0
   -2.8234   -4.1313   -6.3572 H   0  0  0  0  0  0  0  0  0  0  0  0
   -4.0480   -2.8837   -5.0919 H   0  0  0  0  0  0  0  0  0  0  0  0
   -5.8755   -3.8769   -3.8210 H   0  0  0  0  0  0  0  0  0  0  0  0
   -6.3075   -7.0813   -0.2072 H   0  0  0  0  0  0  0  0  0  0  0  0
   -4.6011   -6.5974   -0.2011 H   0  0  0  0  0  0  0  0  0  0  0  0
   -4.9897   -8.5109   -1.7834 H   0  0  0  0  0  0  0  0  0  0  0  0
   -4.4705   -7.0681   -2.6629 H   0  0  0  0  0  0  0  0  0  0  0  0
   -6.1745   -7.5340   -2.6616 H   0  0  0  0  0  0  0  0  0  0  0  0
   -1.3640   -3.7591   -1.8678 H   0  0  0  0  0  0  0  0  0  0  0  0
    3.2666   -1.2266   -4.8325 H   0  0  0  0  0  0  0  0  0  0  0  0
    5.2025   -0.1754   -5.9289 H   0  0  0  0  0  0  0  0  0  0  0  0
    5.8452    3.4573   -9.1119 H   0  0  0  0  0  0  0  0  0  0  0  0
    4.1799    2.9328   -9.4236 H   0  0  0  0  0  0  0  0  0  0  0  0
    3.6461    3.2056   -6.9902 H   0  0  0  0  0  0  0  0  0  0  0  0
    4.2577    4.7253   -7.6483 H   0  0  0  0  0  0  0  0  0  0  0  0
    5.3134    3.6950   -6.6736 H   0  0  0  0  0  0  0  0  0  0  0  0
    0.7770    0.0915   -8.0637 H   0  0  0  0  0  0  0  0  0  0  0  0
    2.0032    0.4456   -3.7157 H   0  0  0  0  0  0  0  0  0  0  0  0
    1.8142    2.4548   -2.7601 H   0  0  0  0  0  0  0  0  0  0  0  0
    3.1477    5.5208   -4.1272 H   0  0  0  0  0  0  0  0  0  0  0  0
    3.0842    3.7463   -4.2467 H   0  0  0  0  0  0  0  0  0  0  0  0
    1.7204    4.6427   -3.5231 H   0  0  0  0  0  0  0  0  0  0  0  0
    6.2858    5.5285    0.7324 H   0  0  0  0  0  0  0  0  0  0  0  0
    6.1727    3.7730    1.0187 H   0  0  0  0  0  0  0  0  0  0  0  0
    5.0805    4.8970    1.8744 H   0  0  0  0  0  0  0  0  0  0  0  0
    4.1135    2.7447    1.6466 H   0  0  0  0  0  0  0  0  0  0  0  0
    3.6120    1.0357    2.9745 H   0  0  0  0  0  0  0  0  0  0  0  0
    1.8834   -1.4901    2.9912 H   0  0  0  0  0  0  0  0  0  0  0  0
    3.0295   -0.9213    4.3049 H   0  0  0  0  0  0  0  0  0  0  0  0
  1  2  2  0  0  0  0
  2  3  1  0  0  0  0
  3  4  2  0  0  0  0
  4  5  1  0  0  0  0
  5  6  2  0  0  0  0
  6  7  1  0  0  0  0
  7  8  2  0  0  0  0
  8  9  1  0  0  0  0
  9 10  1  0  0  0  0
 10 11  1  0  0  0  0
  8 12  1  0  0  0  0
 12 13  1  0  0  0  0
 12 14  2  0  0  0  0
  4 15  1  0  0  0  0
 15 16  2  0  0  0  0
 16 17  1  0  0  0  0
 17 18  1  0  0  0  0
 18 19  2  0  0  0  0
 19 20  1  0  0  0  0
 20 21  2  0  0  0  0
 21 22  1  0  0  0  0
 22 23  1  0  0  0  0
 23 24  1  0  0  0  0
 21 25  1  0  0  0  0
 25 26  2  0  0  0  0
 25 27  1  0  0  0  0
 17 28  2  0  0  0  0
 28 29  1  0  0  0  0
 16 30  1  0  0  0  0
 30 31  2  0  0  0  0
 31 32  1  0  0  0  0
 31 33  1  0  0  0  0
 33 34  1  0  0  0  0
 33 35  2  0  0  0  0
 35 36  1  0  0  0  0
 36 37  2  0  0  0  0
 37 38  1  0  0  0  0
 38 39  1  0  0  0  0
 37 40  1  0  0  0  0
 40 41  1  0  0  0  0
 41 42  1  0  0  0  0
 40 43  2  0  0  0  0
 43 44  1  0  0  0  0
 44 45  2  0  0  0  0
 45 46  1  0  0  0  0
 46 47  2  0  0  0  0
 47 48  1  0  0  0  0
 48 49  2  0  0  0  0
 49 50  1  0  0  0  0
 50 51  2  0  0  0  0
 51 52  1  0  0  0  0
 52 53  2  0  0  0  0
 53 54  1  0  0  0  0
 54 55  2  0  0  0  0
 55 56  1  0  0  0  0
 56 57  1  0  0  0  0
 57 58  1  0  0  0  0
 55 59  1  0  0  0  0
 59 60  1  0  0  0  0
 59 61  2  0  0  0  0
 51 62  1  0  0  0  0
 62 63  2  0  0  0  0
 63 64  1  0  0  0  0
 64 65  1  0  0  0  0
 65 66  2  0  0  0  0
 66 67  1  0  0  0  0
 67 68  2  0  0  0  0
 68 69  1  0  0  0  0
 69 70  1  0  0  0  0
 70 71  1  0  0  0  0
 68 72  1  0  0  0  0
 72 73  2  0  0  0  0
 72 74  1  0  0  0  0
 64 75  2  0  0  0  0
 75 76  1  0  0  0  0
 63 77  1  0  0  0  0
 77 78  2  0  0  0  0
 78 79  1  0  0  0  0
 78 80  1  0  0  0  0
 80 81  1  0  0  0  0
 80 82  2  0  0  0  0
 82 83  1  0  0  0  0
 83 84  2  0  0  0  0
 84 85  1  0  0  0  0
 85 86  1  0  0  0  0
 84 87  1  0  0  0  0
 87 88  1  0  0  0  0
 88 89  1  0  0  0  0
 87 90  2  0  0  0  0
 90 91  1  0  0  0  0
 91 92  2  0  0  0  0
 92 93  1  0  0  0  0
 93 94  2  0  0  0  0
 94 95  1  0  0  0  0
 95 96  2  0  0  0  0
 96 97  1  0  0  0  0
 97 98  2  0  0  0  0
 98 99  1  0  0  0  0
 99100  2  0  0  0  0
100101  1  0  0  0  0
101102  2  0  0  0  0
102103  1  0  0  0  0
103104  1  0  0  0  0
104105  1  0  0  0  0
102106  1  0  0  0  0
106107  1  0  0  0  0
106108  2  0  0  0  0
 98109  1  0  0  0  0
109110  2  0  0  0  0
110111  1  0  0  0  0
111112  1  0  0  0  0
112113  2  0  0  0  0
113114  1  0  0  0  0
114115  2  0  0  0  0
115116  1  0  0  0  0
116117  1  0  0  0  0
117118  1  0  0  0  0
115119  1  0  0  0  0
119120  2  0  0  0  0
119121  1  0  0  0  0
111122  2  0  0  0  0
122123  1  0  0  0  0
110124  1  0  0  0  0
124125  2  0  0  0  0
125126  1  0  0  0  0
125127  1  0  0  0  0
127128  1  0  0  0  0
127129  2  0  0  0  0
129130  1  0  0  0  0
130131  2  0  0  0  0
131132  1  0  0  0  0
132133  1  0  0  0  0
131134  1  0  0  0  0
134135  1  0  0  0  0
135136  1  0  0  0  0
134137  2  0  0  0  0
137138  1  0  0  0  0
138139  2  0  0  0  0
139140  1  0  0  0  0
140141  2  0  0  0  0
 29  1  1  0  0  0  0
 45 34  1  0  0  0  0
 76 48  1  0  0  0  0
 92 81  1  0  0  0  0
123 95  1  0  0  0  0
139128  1  0  0  0  0
 28  3  1  0  0  0  0
 44 35  1  0  0  0  0
 75 50  1  0  0  0  0
 91 82  1  0  0  0  0
122 97  1  0  0  0  0
138129  1  0  0  0  0
 14  5  1  0  0  0  0
 32 15  1  0  0  0  0
 61 52  1  0  0  0  0
 79 62  1  0  0  0  0
108 99  1  0  0  0  0
126109  1  0  0  0  0
 26 18  1  0  0  0  0
 73 65  1  0  0  0  0
120112  1  0  0  0  0
  1142  1  0  0  0  0
  2143  1  0  0  0  0
  6144  1  0  0  0  0
  7145  1  0  0  0  0
 10146  1  0  0  0  0
 10147  1  0  0  0  0
 11148  1  0  0  0  0
 11149  1  0  0  0  0
 11150  1  0  0  0  0
 14151  1  0  0  0  0
 19152  1  0  0  0  0
 20153  1  0  0  0  0
 23154  1  0  0  0  0
 23155  1  0  0  0  0
 24156  1  0  0  0  0
 24157  1  0  0  0  0
 24158  1  0  0  0  0
 26159  1  0  0  0  0
 30160  1  0  0  0  0
 36161  1  0  0  0  0
 39162  1  0  0  0  0
 39163  1  0  0  0  0
 39164  1  0  0  0  0
 42165  1  0  0  0  0
 42166  1  0  0  0  0
 42167  1  0  0  0  0
 43168  1  0  0  0  0
 46169  1  0  0  0  0
 47170  1  0  0  0  0
 49171  1  0  0  0  0
 53172  1  0  0  0  0
 54173  1  0  0  0  0
 57174  1  0  0  0  0
 57175  1  0  0  0  0
 58176  1  0  0  0  0
 58177  1  0  0  0  0
 58178  1  0  0  0  0
 61179  1  0  0  0  0
 66180  1  0  0  0  0
 67181  1  0  0  0  0
 70182  1  0  0  0  0
 70183  1  0  0  0  0
 71184  1  0  0  0  0
 71185  1  0  0  0  0
 71186  1  0  0  0  0
 73187  1  0  0  0  0
 77188  1  0  0  0  0
 83189  1  0  0  0  0
 86190  1  0  0  0  0
 86191  1  0  0  0  0
 86192  1  0  0  0  0
 89193  1  0  0  0  0
 89194  1  0  0  0  0
 89195  1  0  0  0  0
 90196  1  0  0  0  0
 93197  1  0  0  0  0
 94198  1  0  0  0  0
 96199  1  0  0  0  0
100200  1  0  0  0  0
101201  1  0  0  0  0
104202  1  0  0  0  0
104203  1  0  0  0  0
105204  1  0  0  0  0
105205  1  0  0  0  0
105206  1  0  0  0  0
108207  1  0  0  0  0
113208  1  0  0  0  0
114209  1  0  0  0  0
117210  1  0  0  0  0
117211  1  0  0  0  0
118212  1  0  0  0  0
118213  1  0  0  0  0
118214  1  0  0  0  0
120215  1  0  0  0  0
124216  1  0  0  0  0
130217  1  0  0  0  0
133218  1  0  0  0  0
133219  1  0  0  0  0
133220  1  0  0  0  0
136221  1  0  0  0  0
136222  1  0  0  0  0
136223  1  0  0  0  0
137224  1  0  0  0  0
140225  1  0  0  0  0
141226  1  0  0  0  0
141227  1  0  0  0  0
M  END
