100

C          3.57040       -1.69010        4.84410
O          2.31180       -1.96780        4.46770
C          1.62860       -0.81230        4.48280
C          2.42260        0.21750        4.87380
C          3.70130       -0.35700        5.10960
S          5.15740        0.43970        5.68910
C          4.95990        2.06160        5.03900
C          4.56500        2.40760        3.80360
C          4.31760        1.58260        2.66760
S          5.04420        0.02180        2.45180
C          3.57930        1.93320        1.53490
C          2.82400        3.11000        1.32600
C          2.17520        3.30330        0.14000
O          1.40450        4.37790       -0.17460
C          1.21390        5.36880        0.80310
C          2.29040        2.33440       -0.91990
O          1.67820        2.69890       -2.07890
C          1.70990        1.79700       -3.15710
C          2.97760        1.17460       -0.72190
C          3.59950        0.92800        0.52450
C          4.32830       -0.19960        0.89580
C          4.51440       -1.41910        0.15810
C          3.52790       -2.04070       -0.51640
C          2.13130       -1.71170       -0.40060
S          1.42410       -1.37110        1.14300
C          1.17170       -1.62800       -1.39960
C          1.36370       -1.84890       -2.78570
C          0.31640       -1.69920       -3.64720
O          0.37000       -1.86920       -4.99350
C          1.60040       -2.22660       -5.56970
C         -0.98860       -1.33110       -3.15180
O         -1.93540       -1.22740       -4.12010
C         -3.22280       -0.82160       -3.73710
C         -1.19190       -1.11270       -1.82100
C         -0.11230       -1.22860       -0.91490
C         -0.13750       -1.05510        0.46400
C         -1.25350       -0.77670        1.32070
C         -2.21920        0.13510        1.10240
C         -2.20520        1.18290        0.12330
O         -1.06890        1.60480       -0.47210
C         -1.37560        2.66260       -1.24250
C         -2.70500        2.94750       -1.17500
C         -3.24960        1.99170       -0.28620
S         -4.93430        1.75330        0.19690
C         -5.41230        0.82170       -1.22270
C         -5.92670       -0.40390       -1.11870
C         -6.35150       -1.20500       -2.22980
O         -6.57280       -0.68290       -3.45560
C         -6.95290       -1.69180       -4.26120
C         -6.97410       -2.87580       -3.59120
C         -6.57860       -2.56670       -2.26820
S         -6.29980       -3.65960       -0.90830
C         -4.54950       -3.73700       -1.02440
C         -3.75720       -3.92170        0.03760
C         -2.34080       -4.09630       -0.04540
O         -1.70090       -4.14700       -1.24050
C         -0.40210       -4.37010       -0.99040
C         -0.16340       -4.47190        0.34480
C         -1.42070       -4.28600        0.97120
S         -1.83380       -4.35460        2.67060
C         -0.29160       -3.97130        3.43440
C         -0.05200       -4.22300        4.70950
H          4.27540       -2.49420        4.89690
H          0.59450       -0.84690        4.20480
H          2.15200        1.24710        4.98030
H          5.20800        2.81920        5.76530
H          4.40970        3.46630        3.62880
H          2.77080        3.84140        2.11540
H          0.73950        4.95940        1.70120
H          0.55320        6.10660        0.35080
H          2.15850        5.84960        1.07860
H          1.22000        0.85230       -2.90150
H          2.73650        1.59900       -3.48270
H          1.16420        2.28120       -3.96580
H          3.07850        0.44110       -1.50310
H          5.51190       -1.83870        0.15220
H          3.77030       -2.87080       -1.16860
H          2.34440       -2.13520       -3.13000
H          1.41490       -2.29870       -6.63980
H          2.36690       -1.46630       -5.38450
H          1.95390       -3.19430       -5.19800
H         -3.20820        0.17090       -3.27360
H         -3.67880       -1.53080       -3.03870
H         -3.80950       -0.78580       -4.65330
H         -2.16640       -0.86720       -1.43270
H         -1.31910       -1.37730        2.21970
H         -3.08460        0.15430        1.75000
H         -0.56470        3.13530       -1.76010
H         -3.23410        3.73020       -1.67800
H         -5.25310        1.30940       -2.17260
H         -6.02890       -0.87310       -0.15040
H         -7.18040       -1.44340       -5.27870
H         -7.23190       -3.84150       -3.97270
H         -4.15850       -3.67920       -2.02840
H         -4.17240       -3.97440        1.03310
H          0.25330       -4.44050       -1.83520
H          0.77790       -4.66320        0.81720
H          0.41960       -3.48050        2.78950
H          0.88270       -3.93980        5.15900
H         -0.77910       -4.70700        5.33840
