
  xtb     03072217563D
 energy: -252.960484681356 gnorm: 0.000281604901 xtb: 6.4.1 (unknown)
161175  0     0  0            999 V2000
    6.2642    6.6156    1.1536 C   0  0  0  0  0  0  0  0  0  0  0  0
    4.7379    7.4013    1.1649 S   0  0  0  0  0  0  0  0  0  0  0  0
    6.1367    5.2483    1.1852 C   0  0  0  0  0  0  0  0  0  0  0  0
    7.1682    4.2733    1.1663 C   0  0  0  0  0  0  0  0  0  0  0  0
    6.8494    2.9498    1.1826 C   0  0  0  0  0  0  0  0  0  0  0  0
    7.7367    1.9202    1.1769 O   0  0  0  0  0  0  0  0  0  0  0  0
    9.1056    2.2279    1.1348 C   0  0  0  0  0  0  0  0  0  0  0  0
    5.4677    2.5298    1.1988 C   0  0  0  0  0  0  0  0  0  0  0  0
    5.2957    1.1783    1.2118 O   0  0  0  0  0  0  0  0  0  0  0  0
    3.9952    0.6825    1.3891 C   0  0  0  0  0  0  0  0  0  0  0  0
    4.4634    3.4482    1.2033 C   0  0  0  0  0  0  0  0  0  0  0  0
    4.7649    4.8321    1.2198 C   0  0  0  0  0  0  0  0  0  0  0  0
    3.8779    5.8992    1.2090 C   0  0  0  0  0  0  0  0  0  0  0  0
    2.4415    5.8613    1.1747 C   0  0  0  0  0  0  0  0  0  0  0  0
    1.7405    4.9611    1.8798 C   0  0  0  0  0  0  0  0  0  0  0  0
    0.3757    4.7501    1.8111 N   0  0  0  0  0  0  0  0  0  0  0  0
   -0.2684    4.8136    0.5081 C   0  0  0  0  0  0  0  0  0  0  0  0
   -0.3144    3.4402    0.0165 N   0  0  0  0  0  0  0  0  0  0  0  0
   -0.5065    2.6208    1.2049 C   0  0  0  0  0  0  0  0  0  0  0  0
   -1.8960    2.2448    1.3266 N   0  0  0  0  0  0  0  0  0  0  0  0
   -2.1501    1.6030    2.6018 C   0  0  0  0  0  0  0  0  0  0  0  0
   -1.9453    2.6693    3.7251 C   0  0  0  0  0  0  0  0  0  0  0  0
   -1.3131    3.8670    3.2272 N   0  0  0  0  0  0  0  0  0  0  0  0
   -0.1490    3.5521    2.4241 C   0  0  0  0  0  0  0  0  0  0  0  0
   -3.2700    2.9302    4.2618 N   0  0  0  0  0  0  0  0  0  0  0  0
   -4.0380    1.7401    3.9827 C   0  0  0  0  0  0  0  0  0  0  0  0
   -3.5367    1.2345    2.7116 N   0  0  0  0  0  0  0  0  0  0  0  0
   -3.9066   -0.0266    2.2497 C   0  0  0  0  0  0  0  0  0  0  0  0
   -4.9518   -0.7434    2.6650 C   0  0  0  0  0  0  0  0  0  0  0  0
   -5.3417   -1.9522    2.0765 N   0  0  0  0  0  0  0  0  0  0  0  0
   -6.2343   -2.8613    2.7865 C   0  0  0  0  0  0  0  0  0  0  0  0
   -6.4333   -3.9484    1.8499 N   0  0  0  0  0  0  0  0  0  0  0  0
   -5.1536   -4.0998    1.1698 C   0  0  0  0  0  0  0  0  0  0  0  0
   -4.4353   -5.2227    1.7106 N   0  0  0  0  0  0  0  0  0  0  0  0
   -3.0726   -5.2668    1.2416 C   0  0  0  0  0  0  0  0  0  0  0  0
   -2.3190   -4.0191    1.8146 C   0  0  0  0  0  0  0  0  0  0  0  0
   -3.2954   -3.1578    2.4218 N   0  0  0  0  0  0  0  0  0  0  0  0
   -4.3461   -2.8093    1.4855 C   0  0  0  0  0  0  0  0  0  0  0  0
   -1.4129   -4.5471    2.8214 N   0  0  0  0  0  0  0  0  0  0  0  0
   -1.9053   -5.8895    3.0946 C   0  0  0  0  0  0  0  0  0  0  0  0
   -2.3989   -6.4033    1.8207 N   0  0  0  0  0  0  0  0  0  0  0  0
   -1.5422   -7.1123    0.9921 C   0  0  0  0  0  0  0  0  0  0  0  0
   -0.7526   -8.1277    1.3427 C   0  0  0  0  0  0  0  0  0  0  0  0
    0.1110   -8.8152    0.4508 N   0  0  0  0  0  0  0  0  0  0  0  0
    1.4094   -8.1302    0.2804 C   0  0  0  0  0  0  0  0  0  0  0  0
    1.8707   -8.3817   -1.0643 N   0  0  0  0  0  0  0  0  0  0  0  0
    0.6708   -8.5618   -1.8498 C   0  0  0  0  0  0  0  0  0  0  0  0
    0.1749   -7.2781   -2.3075 N   0  0  0  0  0  0  0  0  0  0  0  0
   -1.0428   -7.4294   -3.0792 C   0  0  0  0  0  0  0  0  0  0  0  0
   -1.8998   -8.6540   -2.6411 C   0  0  0  0  0  0  0  0  0  0  0  0
   -1.6885   -8.8207   -1.2221 N   0  0  0  0  0  0  0  0  0  0  0  0
   -0.3471   -9.2302   -0.8774 C   0  0  0  0  0  0  0  0  0  0  0  0
   -3.2761   -8.2594   -2.8712 N   0  0  0  0  0  0  0  0  0  0  0  0
   -3.3056   -6.8453   -2.5841 C   0  0  0  0  0  0  0  0  0  0  0  0
   -1.9775   -6.3389   -2.9118 N   0  0  0  0  0  0  0  0  0  0  0  0
   -1.5885   -5.0563   -2.6893 C   0  0  0  0  0  0  0  0  0  0  0  0
   -2.3926   -4.0353   -2.3118 C   0  0  0  0  0  0  0  0  0  0  0  0
   -1.9311   -2.7022   -2.1347 C   0  0  0  0  0  0  0  0  0  0  0  0
   -0.2411   -2.3089   -2.2433 S   0  0  0  0  0  0  0  0  0  0  0  0
   -2.6843   -1.5504   -1.8829 C   0  0  0  0  0  0  0  0  0  0  0  0
   -4.0859   -1.4532   -1.7094 C   0  0  0  0  0  0  0  0  0  0  0  0
   -4.6708   -0.2376   -1.4911 C   0  0  0  0  0  0  0  0  0  0  0  0
   -5.9981   -0.0217   -1.2941 O   0  0  0  0  0  0  0  0  0  0  0  0
   -6.8278   -1.1345   -1.0837 C   0  0  0  0  0  0  0  0  0  0  0  0
   -3.8741    0.9614   -1.4759 C   0  0  0  0  0  0  0  0  0  0  0  0
   -4.5858    2.1016   -1.3061 O   0  0  0  0  0  0  0  0  0  0  0  0
   -3.8969    3.3299   -1.3041 C   0  0  0  0  0  0  0  0  0  0  0  0
   -2.5168    0.8870   -1.6315 C   0  0  0  0  0  0  0  0  0  0  0  0
   -1.8915   -0.3669   -1.8137 C   0  0  0  0  0  0  0  0  0  0  0  0
   -0.5217   -0.6075   -1.9790 C   0  0  0  0  0  0  0  0  0  0  0  0
    0.5163    0.3431   -1.9605 C   0  0  0  0  0  0  0  0  0  0  0  0
    1.8365    0.0715   -2.1534 C   0  0  0  0  0  0  0  0  0  0  0  0
    2.9090    0.9939   -2.1641 C   0  0  0  0  0  0  0  0  0  0  0  0
    4.5233    0.3594   -2.0301 S   0  0  0  0  0  0  0  0  0  0  0  0
    2.9572    2.3948   -2.2382 C   0  0  0  0  0  0  0  0  0  0  0  0
    1.8847    3.2852   -2.4691 C   0  0  0  0  0  0  0  0  0  0  0  0
    2.0931    4.6356   -2.4789 C   0  0  0  0  0  0  0  0  0  0  0  0
    1.1289    5.5728   -2.7028 O   0  0  0  0  0  0  0  0  0  0  0  0
   -0.1429    5.1337   -3.1160 C   0  0  0  0  0  0  0  0  0  0  0  0
    3.4088    5.1659   -2.2525 C   0  0  0  0  0  0  0  0  0  0  0  0
    3.4783    6.5233   -2.2634 O   0  0  0  0  0  0  0  0  0  0  0  0
    4.7494    7.1181   -2.3498 C   0  0  0  0  0  0  0  0  0  0  0  0
    4.4704    4.3209   -2.0998 C   0  0  0  0  0  0  0  0  0  0  0  0
    4.2834    2.9193   -2.1275 C   0  0  0  0  0  0  0  0  0  0  0  0
    5.2602    1.9270   -2.0320 C   0  0  0  0  0  0  0  0  0  0  0  0
    6.6909    1.9743   -1.9588 C   0  0  0  0  0  0  0  0  0  0  0  0
    7.4922    2.9657   -2.3504 C   0  0  0  0  0  0  0  0  0  0  0  0
    7.1617    7.2006    1.1357 H   0  0  0  0  0  0  0  0  0  0  0  0
    8.1905    4.6140    1.1404 H   0  0  0  0  0  0  0  0  0  0  0  0
    9.4177    2.7980    2.0167 H   0  0  0  0  0  0  0  0  0  0  0  0
    9.6241    1.2704    1.1223 H   0  0  0  0  0  0  0  0  0  0  0  0
    9.3615    2.7924    0.2321 H   0  0  0  0  0  0  0  0  0  0  0  0
    3.5624    1.0285    2.3351 H   0  0  0  0  0  0  0  0  0  0  0  0
    4.0926   -0.4018    1.4086 H   0  0  0  0  0  0  0  0  0  0  0  0
    3.3294    0.9662    0.5669 H   0  0  0  0  0  0  0  0  0  0  0  0
    3.4301    3.1466    1.1694 H   0  0  0  0  0  0  0  0  0  0  0  0
    1.9553    6.5833    0.5347 H   0  0  0  0  0  0  0  0  0  0  0  0
    2.2478    4.3590    2.6217 H   0  0  0  0  0  0  0  0  0  0  0  0
    0.2664    5.4671   -0.1759 H   0  0  0  0  0  0  0  0  0  0  0  0
   -1.2971    5.1701    0.6322 H   0  0  0  0  0  0  0  0  0  0  0  0
    0.5803    3.2159   -0.4124 H   0  0  0  0  0  0  0  0  0  0  0  0
    0.1592    1.7358    1.1755 H   0  0  0  0  0  0  0  0  0  0  0  0
   -2.1707    1.6312    0.5646 H   0  0  0  0  0  0  0  0  0  0  0  0
   -1.4692    0.7324    2.7542 H   0  0  0  0  0  0  0  0  0  0  0  0
   -1.3149    2.2591    4.5269 H   0  0  0  0  0  0  0  0  0  0  0  0
   -1.9758    4.3720    2.6440 H   0  0  0  0  0  0  0  0  0  0  0  0
    0.5878    3.0849    3.0863 H   0  0  0  0  0  0  0  0  0  0  0  0
   -3.6704    3.7247    3.7725 H   0  0  0  0  0  0  0  0  0  0  0  0
   -3.8703    1.0090    4.7936 H   0  0  0  0  0  0  0  0  0  0  0  0
   -5.1047    1.9604    3.9177 H   0  0  0  0  0  0  0  0  0  0  0  0
   -3.2786   -0.3776    1.4432 H   0  0  0  0  0  0  0  0  0  0  0  0
   -5.6162   -0.3935    3.4384 H   0  0  0  0  0  0  0  0  0  0  0  0
   -7.1733   -2.3706    3.0445 H   0  0  0  0  0  0  0  0  0  0  0  0
   -5.7575   -3.2731    3.6875 H   0  0  0  0  0  0  0  0  0  0  0  0
   -7.1566   -3.7037    1.1825 H   0  0  0  0  0  0  0  0  0  0  0  0
   -5.3125   -4.2006    0.0751 H   0  0  0  0  0  0  0  0  0  0  0  0
   -4.9204   -6.0953    1.5413 H   0  0  0  0  0  0  0  0  0  0  0  0
   -3.0087   -5.2863    0.1362 H   0  0  0  0  0  0  0  0  0  0  0  0
   -1.7536   -3.5086    1.0073 H   0  0  0  0  0  0  0  0  0  0  0  0
   -2.8669   -2.3275    2.8148 H   0  0  0  0  0  0  0  0  0  0  0  0
   -3.9472   -2.3508    0.5615 H   0  0  0  0  0  0  0  0  0  0  0  0
   -0.4673   -4.5887    2.4555 H   0  0  0  0  0  0  0  0  0  0  0  0
   -1.1362   -6.5264    3.5240 H   0  0  0  0  0  0  0  0  0  0  0  0
   -2.7606   -5.7990    3.7692 H   0  0  0  0  0  0  0  0  0  0  0  0
   -1.6243   -6.8523   -0.0535 H   0  0  0  0  0  0  0  0  0  0  0  0
   -0.6381   -8.4428    2.3713 H   0  0  0  0  0  0  0  0  0  0  0  0
    2.1256   -8.5001    1.0194 H   0  0  0  0  0  0  0  0  0  0  0  0
    1.2982   -7.0431    0.4229 H   0  0  0  0  0  0  0  0  0  0  0  0
    2.4294   -9.2258   -1.1002 H   0  0  0  0  0  0  0  0  0  0  0  0
    0.8735   -9.1709   -2.7362 H   0  0  0  0  0  0  0  0  0  0  0  0
    0.0071   -6.6900   -1.4967 H   0  0  0  0  0  0  0  0  0  0  0  0
   -0.7509   -7.5213   -4.1413 H   0  0  0  0  0  0  0  0  0  0  0  0
   -1.6648   -9.5618   -3.2248 H   0  0  0  0  0  0  0  0  0  0  0  0
   -2.3941   -9.4159   -0.8079 H   0  0  0  0  0  0  0  0  0  0  0  0
   -0.2350  -10.3349   -0.9265 H   0  0  0  0  0  0  0  0  0  0  0  0
   -3.5194   -8.4334   -3.8403 H   0  0  0  0  0  0  0  0  0  0  0  0
   -4.0741   -6.3329   -3.1699 H   0  0  0  0  0  0  0  0  0  0  0  0
   -3.5206   -6.7098   -1.5135 H   0  0  0  0  0  0  0  0  0  0  0  0
   -0.5380   -4.8786   -2.8733 H   0  0  0  0  0  0  0  0  0  0  0  0
   -3.4490   -4.1993   -2.1571 H   0  0  0  0  0  0  0  0  0  0  0  0
   -4.6808   -2.3507   -1.7631 H   0  0  0  0  0  0  0  0  0  0  0  0
   -6.8812   -1.7764   -1.9708 H   0  0  0  0  0  0  0  0  0  0  0  0
   -7.8169   -0.7281   -0.8782 H   0  0  0  0  0  0  0  0  0  0  0  0
   -6.4857   -1.7184   -0.2223 H   0  0  0  0  0  0  0  0  0  0  0  0
   -4.6639    4.0907   -1.1684 H   0  0  0  0  0  0  0  0  0  0  0  0
   -3.1733    3.3857   -0.4854 H   0  0  0  0  0  0  0  0  0  0  0  0
   -3.3838    3.5010   -2.2571 H   0  0  0  0  0  0  0  0  0  0  0  0
   -1.9119    1.7795   -1.6341 H   0  0  0  0  0  0  0  0  0  0  0  0
    0.1953    1.3502   -1.7496 H   0  0  0  0  0  0  0  0  0  0  0  0
    2.1209   -0.9671   -2.2767 H   0  0  0  0  0  0  0  0  0  0  0  0
    0.9143    2.8857   -2.7037 H   0  0  0  0  0  0  0  0  0  0  0  0
   -0.6412    4.5439   -2.3389 H   0  0  0  0  0  0  0  0  0  0  0  0
   -0.7170    6.0398   -3.3036 H   0  0  0  0  0  0  0  0  0  0  0  0
   -0.0807    4.5464   -4.0382 H   0  0  0  0  0  0  0  0  0  0  0  0
    5.2789    6.7876   -3.2501 H   0  0  0  0  0  0  0  0  0  0  0  0
    4.5687    8.1902   -2.4051 H   0  0  0  0  0  0  0  0  0  0  0  0
    5.3650    6.9030   -1.4720 H   0  0  0  0  0  0  0  0  0  0  0  0
    5.4596    4.7060   -1.9313 H   0  0  0  0  0  0  0  0  0  0  0  0
    7.1385    1.0659   -1.5736 H   0  0  0  0  0  0  0  0  0  0  0  0
    7.1297    3.8731   -2.7979 H   0  0  0  0  0  0  0  0  0  0  0  0
    8.5611    2.8753   -2.2621 H   0  0  0  0  0  0  0  0  0  0  0  0
  1  2  1  0  0  0  0
  1  3  2  0  0  0  0
  3  4  1  0  0  0  0
  4  5  2  0  0  0  0
  5  6  1  0  0  0  0
  6  7  1  0  0  0  0
  5  8  1  0  0  0  0
  8  9  1  0  0  0  0
  9 10  1  0  0  0  0
  8 11  2  0  0  0  0
 11 12  1  0  0  0  0
 12 13  2  0  0  0  0
 13 14  1  0  0  0  0
 14 15  2  0  0  0  0
 15 16  1  0  0  0  0
 16 17  1  0  0  0  0
 17 18  1  0  0  0  0
 18 19  1  0  0  0  0
 19 20  1  0  0  0  0
 20 21  1  0  0  0  0
 21 22  1  0  0  0  0
 22 23  1  0  0  0  0
 23 24  1  0  0  0  0
 22 25  1  0  0  0  0
 25 26  1  0  0  0  0
 26 27  1  0  0  0  0
 27 28  1  0  0  0  0
 28 29  2  0  0  0  0
 29 30  1  0  0  0  0
 30 31  1  0  0  0  0
 31 32  1  0  0  0  0
 32 33  1  0  0  0  0
 33 34  1  0  0  0  0
 34 35  1  0  0  0  0
 35 36  1  0  0  0  0
 36 37  1  0  0  0  0
 37 38  1  0  0  0  0
 36 39  1  0  0  0  0
 39 40  1  0  0  0  0
 40 41  1  0  0  0  0
 41 42  1  0  0  0  0
 42 43  2  0  0  0  0
 43 44  1  0  0  0  0
 44 45  1  0  0  0  0
 45 46  1  0  0  0  0
 46 47  1  0  0  0  0
 47 48  1  0  0  0  0
 48 49  1  0  0  0  0
 49 50  1  0  0  0  0
 50 51  1  0  0  0  0
 51 52  1  0  0  0  0
 50 53  1  0  0  0  0
 53 54  1  0  0  0  0
 54 55  1  0  0  0  0
 55 56  1  0  0  0  0
 56 57  2  0  0  0  0
 57 58  1  0  0  0  0
 58 59  1  0  0  0  0
 58 60  2  0  0  0  0
 60 61  1  0  0  0  0
 61 62  2  0  0  0  0
 62 63  1  0  0  0  0
 63 64  1  0  0  0  0
 62 65  1  0  0  0  0
 65 66  1  0  0  0  0
 66 67  1  0  0  0  0
 65 68  2  0  0  0  0
 68 69  1  0  0  0  0
 69 70  2  0  0  0  0
 70 71  1  0  0  0  0
 71 72  2  0  0  0  0
 72 73  1  0  0  0  0
 73 74  1  0  0  0  0
 73 75  2  0  0  0  0
 75 76  1  0  0  0  0
 76 77  2  0  0  0  0
 77 78  1  0  0  0  0
 78 79  1  0  0  0  0
 77 80  1  0  0  0  0
 80 81  1  0  0  0  0
 81 82  1  0  0  0  0
 80 83  2  0  0  0  0
 83 84  1  0  0  0  0
 84 85  2  0  0  0  0
 85 86  1  0  0  0  0
 86 87  2  0  0  0  0
 13  2  1  0  0  0  0
 24 16  1  0  0  0  0
 38 30  1  0  0  0  0
 52 44  1  0  0  0  0
 70 59  1  0  0  0  0
 85 74  1  0  0  0  0
 12  3  1  0  0  0  0
 24 19  1  0  0  0  0
 38 33  1  0  0  0  0
 52 47  1  0  0  0  0
 69 60  1  0  0  0  0
 84 75  1  0  0  0  0
 27 21  1  0  0  0  0
 41 35  1  0  0  0  0
 55 49  1  0  0  0  0
  1 88  1  0  0  0  0
  4 89  1  0  0  0  0
  7 90  1  0  0  0  0
  7 91  1  0  0  0  0
  7 92  1  0  0  0  0
 10 93  1  0  0  0  0
 10 94  1  0  0  0  0
 10 95  1  0  0  0  0
 11 96  1  0  0  0  0
 14 97  1  0  0  0  0
 15 98  1  0  0  0  0
 17 99  1  0  0  0  0
 17100  1  0  0  0  0
 18101  1  0  0  0  0
 19102  1  0  0  0  0
 20103  1  0  0  0  0
 21104  1  0  0  0  0
 22105  1  0  0  0  0
 23106  1  0  0  0  0
 24107  1  0  0  0  0
 25108  1  0  0  0  0
 26109  1  0  0  0  0
 26110  1  0  0  0  0
 28111  1  0  0  0  0
 29112  1  0  0  0  0
 31113  1  0  0  0  0
 31114  1  0  0  0  0
 32115  1  0  0  0  0
 33116  1  0  0  0  0
 34117  1  0  0  0  0
 35118  1  0  0  0  0
 36119  1  0  0  0  0
 37120  1  0  0  0  0
 38121  1  0  0  0  0
 39122  1  0  0  0  0
 40123  1  0  0  0  0
 40124  1  0  0  0  0
 42125  1  0  0  0  0
 43126  1  0  0  0  0
 45127  1  0  0  0  0
 45128  1  0  0  0  0
 46129  1  0  0  0  0
 47130  1  0  0  0  0
 48131  1  0  0  0  0
 49132  1  0  0  0  0
 50133  1  0  0  0  0
 51134  1  0  0  0  0
 52135  1  0  0  0  0
 53136  1  0  0  0  0
 54137  1  0  0  0  0
 54138  1  0  0  0  0
 56139  1  0  0  0  0
 57140  1  0  0  0  0
 61141  1  0  0  0  0
 64142  1  0  0  0  0
 64143  1  0  0  0  0
 64144  1  0  0  0  0
 67145  1  0  0  0  0
 67146  1  0  0  0  0
 67147  1  0  0  0  0
 68148  1  0  0  0  0
 71149  1  0  0  0  0
 72150  1  0  0  0  0
 76151  1  0  0  0  0
 79152  1  0  0  0  0
 79153  1  0  0  0  0
 79154  1  0  0  0  0
 82155  1  0  0  0  0
 82156  1  0  0  0  0
 82157  1  0  0  0  0
 83158  1  0  0  0  0
 86159  1  0  0  0  0
 87160  1  0  0  0  0
 87161  1  0  0  0  0
M  END
