252

C         -1.31930        2.63890        7.12430
C         -0.63730        2.47630        5.97370
C         -1.18040        1.44890        5.14680
C         -0.70500        0.99950        3.90700
C          0.50330        1.60230        3.32230
C          1.65750        0.84530        3.14060
C          2.82280        1.44200        2.70860
C          2.86900        2.79940        2.39630
S          4.40530        3.45120        1.81930
C          4.44220        5.15900        2.50140
C          5.88210        5.61980        2.61170
C          1.69130        3.52800        2.52230
F          1.64290        4.83710        2.17800
C          0.53260        2.95530        3.00790
C         -1.39760       -0.03910        3.31040
C         -2.52640       -0.65510        3.90540
C         -2.99180       -0.21920        5.15680
C         -4.14850       -0.85290        5.79620
C         -4.25770       -2.24140        5.87880
C         -5.36260       -2.82570        6.45770
C         -6.40670       -2.05810        6.97330
S         -7.81050       -2.94350        7.58600
C         -8.46750       -1.94060        8.97640
C         -9.73970       -1.20180        8.61050
C         -6.27910       -0.67570        6.89360
C         -5.17150       -0.07700        6.32990
F         -7.25910        0.14080        7.34720
C         -2.31090        0.84080        5.73980
S         -2.66180        1.56170        7.28910
C         -3.08760       -1.64610        3.06510
C         -2.44950       -1.79210        1.86880
S         -1.06740       -0.70650        1.73300
C         -2.79790       -2.72860        0.85330
S         -3.76700       -4.11030        1.28180
C         -2.48490       -2.75720       -0.50300
C         -1.77830       -1.78570       -1.25080
C         -1.55940       -1.97940       -2.58310
O         -0.93840       -1.10330       -3.41450
C         -0.41820        0.08380       -2.87090
C         -1.97150       -3.20690       -3.22370
O         -1.58060       -3.31170       -4.51750
C         -1.84330       -4.51020       -5.20470
C         -2.67680       -4.14210       -2.52610
C         -3.01220       -3.90930       -1.16920
C         -3.75910       -4.73210       -0.33590
C         -4.47180       -5.94390       -0.69310
C         -5.33340       -6.01530       -1.71770
C         -5.75600       -4.80350       -2.39770
C         -6.28160       -3.71510       -1.78420
C         -6.34800       -2.56330       -2.61150
C         -6.68040       -1.25530       -2.23690
C         -7.17560       -0.90400       -0.89710
C         -8.35190       -0.17120       -0.75620
C         -8.81260        0.18200        0.49400
C         -8.11120       -0.16250        1.64730
S         -8.77100        0.39680        3.19240
C         -8.48300       -0.99280        4.34510
C         -9.17430       -2.26510        3.90260
C         -6.91670       -0.85790        1.48800
F         -6.16260       -1.18340        2.55980
C         -6.45510       -1.23940        0.24400
C         -6.38540       -0.25950       -3.15150
C         -5.74840       -0.50120       -4.39430
C         -5.50710       -1.82170       -4.80640
C         -4.75930       -2.12100       -6.03750
C         -5.28500       -2.94410       -7.02940
C         -4.56620       -3.20090       -8.17800
C         -3.29010       -2.67290       -8.37080
S         -2.46240       -3.10460       -9.87290
C         -1.43680       -1.64460      -10.29160
C         -2.25690       -0.37830      -10.43010
C         -2.75690       -1.90180       -7.34230
C         -3.47660       -1.60880       -6.20270
F         -1.50260       -1.40800       -7.42440
C         -5.84420       -2.82270       -3.90920
S         -5.45150       -4.51300       -4.10160
C         -5.21110        0.68990       -4.94920
C         -5.35040        1.77880       -4.13330
S         -6.40860        1.44090       -2.76840
C         -4.38930        2.83170       -3.98910
C         -3.27200        3.05390       -4.74570
C         -2.16010        3.50720       -3.98400
C         -0.80660        3.51220       -4.35950
C         -0.39190        3.23700       -5.74560
C         -0.73040        2.02960       -6.35400
C         -0.32550        1.75710       -7.64240
C          0.41430        2.67950       -8.37750
S          0.81240        2.25150      -10.04980
C          2.55480        2.78000      -10.23050
C          3.45550        2.11030       -9.21250
C          0.73900        3.88260       -7.75980
F          1.43530        4.83360       -8.42030
C          0.36620        4.15650       -6.45780
C          0.12650        3.57810       -3.33550
C         -0.23320        3.61900       -1.96530
C         -1.57640        3.71940       -1.59290
C         -2.04060        3.58550       -0.19820
C         -1.88760        4.58090        0.75880
C         -2.46270        4.43790        2.00730
C         -3.18620        3.29760        2.35080
S         -3.92740        3.23090        3.95350
C         -5.56050        2.46050        3.64200
C         -6.33810        3.17680        2.55720
C         -3.26370        2.27900        1.40650
C         -2.71610        2.41930        0.14960
F         -3.90050        1.12160        1.68030
C         -2.50220        3.67850       -2.61890
S         -4.20950        3.46570       -2.35530
C          0.84250        3.24130       -1.12300
C          1.98040        2.93250       -1.79650
S          1.83140        3.22460       -3.52350
C          3.04480        2.13160       -1.25260
C          4.39650        2.17500       -1.32210
C          5.02910        1.08850       -0.65020
C          6.39990        0.85080       -0.45750
C          7.41550        1.81980       -0.88650
C          8.53020        1.43280       -1.62690
C          9.47480        2.36210       -2.00750
C          9.35890        3.70450       -1.65180
S         10.66310        4.79110       -2.15130
C          9.79780        6.33170       -2.63370
C          8.77330        6.09050       -3.72400
C          8.25690        4.06860       -0.88440
F          8.09600        5.34360       -0.45790
C          7.28910        3.15600       -0.52050
C          6.74510       -0.31940        0.20260
C          5.79560       -1.24890        0.69880
C          4.42630       -0.99810        0.53420
C          3.37080       -1.87840        1.05370
C          2.34070       -2.30300        0.21700
C          1.29680       -3.06600        0.69790
C          1.24800       -3.43780        2.03620
S         -0.07160       -4.37460        2.74380
C         -0.53740       -5.49590        1.37830
C          0.59640       -6.42410        0.99230
C          2.28400       -3.00930        2.86450
C          3.33550       -2.24960        2.39490
F          2.26270       -3.33360        4.17280
C          4.08750        0.16540       -0.13910
S          2.45770        0.70780       -0.40140
C          6.40650       -2.36580        1.31880
C          7.77130       -2.30020        1.35260
S          8.36690       -0.83460        0.57900
C          8.71380       -3.22680        1.87690
S         10.36820       -3.11810        1.37910
C          8.54370       -4.28800        2.77320
C          7.38320       -4.68550        3.45870
C          7.37080       -5.78370        4.28260
O          6.16710       -6.03880        4.85700
C          6.02500       -6.93370        5.93760
C          8.56440       -6.56990        4.42830
O          8.46780       -7.71240        5.17450
C          9.60960       -8.51740        5.32770
C          9.72170       -6.16170        3.82320
C          9.75960       -5.00110        3.02060
C         10.85770       -4.46250        2.35020
C         12.25030       -4.81330        2.35040
C         12.91580       -5.45390        3.31110
H         -1.12650        3.33830        7.91410
H          0.23040        3.05150        5.70560
H          1.64750       -0.20780        3.37480
H          3.72900        0.86510        2.60850
H          3.96490        5.11850        3.47980
H          3.87040        5.80590        1.83760
H          6.45620        4.93730        3.23460
H          6.34990        5.66920        1.63160
H          5.91340        6.61140        3.05820
H         -0.34920        3.56770        3.11610
H         -3.45660       -2.86330        5.51020
H         -5.44300       -3.89990        6.51850
H         -7.67880       -1.26560        9.29920
H         -8.65750       -2.66880        9.76550
H         -9.54960       -0.45880        7.84110
H        -10.13080       -0.69320        9.48930
H        -10.49130       -1.89910        8.24660
H         -5.13690        0.99960        6.28250
H         -3.97320       -2.20090        3.31360
H         -1.42900       -0.89830       -0.75080
H         -1.21370        0.74120       -2.50160
H          0.28620       -0.11290       -2.05670
H          0.10460        0.57780       -3.68840
H         -2.91790       -4.68260       -5.32010
H         -1.39160       -4.39080       -6.18790
H         -1.38880       -5.36810       -4.69910
H         -2.97880       -5.07230       -2.97690
H         -4.26990       -6.82330       -0.09450
H         -5.74330       -6.96200       -2.03970
H         -6.57830       -3.72040       -0.75120
H         -8.91620        0.10460       -1.63400
H         -9.73120        0.73750        0.60150
H         -7.41180       -1.13460        4.46550
H         -8.90240       -0.62520        5.28100
H        -10.23960       -2.09420        3.76260
H         -9.03720       -3.03080        4.66370
H         -8.75460       -2.62890        2.96630
H         -5.50960       -1.75500        0.17660
H         -6.27190       -3.36380       -6.90730
H         -4.98410       -3.82030       -8.95610
H         -0.64690       -1.54360       -9.55090
H         -0.99010       -1.92580      -11.24520
H         -1.60610        0.44530      -10.71860
H         -2.74030       -0.11950       -9.48970
H         -3.02670       -0.50250      -11.18870
H         -3.00050       -1.02850       -5.42780
H         -4.62770        0.70690       -5.85140
H         -3.20070        2.78730       -5.78430
H         -1.28260        1.28520       -5.80130
H         -0.57020        0.81330       -8.10060
H          2.80700        2.47100      -11.24500
H          2.60280        3.86500      -10.16800
H          3.19700        2.41960       -8.20120
H          4.49080        2.38660       -9.40210
H          3.36470        1.02770       -9.27550
H          0.65070        5.10090       -6.02010
H         -1.34550        5.48170        0.51520
H         -2.38000        5.22840        2.73810
H         -6.06670        2.55580        4.60250
H         -5.41460        1.40530        3.42000
H         -6.40710        4.24050        2.77630
H         -7.34380        2.76490        2.50550
H         -5.86780        3.05230        1.58340
H         -2.82500        1.60630       -0.55210
H          0.73830        3.12220       -0.05900
H          4.93510        2.95970       -1.82140
H          8.64410        0.40290       -1.92750
H         10.33050        2.06230       -2.59210
H          9.35390        6.78170       -1.74850
H         10.60670        6.97030       -2.98850
H          7.96970        5.44930       -3.36670
H          8.34190        7.03900       -4.03780
H          9.23730        5.61460       -4.58540
H          6.45920        3.48230        0.08650
H          2.36170       -2.04100       -0.82970
H          0.50640       -3.35840        0.02470
H         -1.38130       -6.05300        1.78490
H         -0.88330       -4.90400        0.53200
H          0.26130       -7.11500        0.22100
H          1.44310       -5.85880        0.60690
H          0.92750       -6.99680        1.85560
H          4.10440       -1.93310        3.08300
H          5.83960       -3.20460        1.67420
H          6.46710       -4.12860        3.37240
H          5.01030       -6.77290        6.30210
H          6.73670       -6.71890        6.73750
H          6.13880       -7.97280        5.62180
H         10.41300       -7.98250        5.84450
H          9.29010       -9.36150        5.93730
H          9.97660       -8.88450        4.36400
H         10.62070       -6.74490        3.91400
H         12.79600       -4.46120        1.48300
H         13.96740       -5.65810        3.21150
H         12.45460       -5.76250        4.23190
