152

C         -2.82390        4.58980       10.18040
S         -3.00050        5.59750        8.81350
C         -1.95260        3.55360        9.94460
C         -1.54940        2.54830       10.85860
C         -0.63350        1.61670       10.47400
O         -0.16940        0.59720       11.24250
C         -0.67550        0.46960       12.54660
C         -0.04810        1.67130        9.15570
O          0.87070        0.69730        8.92860
C          1.40100        0.57860        7.63520
C         -0.41850        2.63680        8.26300
C         -1.41960        3.57310        8.61380
C         -1.93350        4.61230        7.84410
C         -1.71200        5.04120        6.50100
C         -1.62230        4.33920        5.34050
C         -1.84900        2.97720        5.04320
S         -2.29610        1.76600        6.20660
C         -1.85790        2.42300        3.74660
C         -1.46900        3.04130        2.54120
C         -1.55480        2.35870        1.35780
O         -1.12040        2.82060        0.15830
C         -0.34340        3.99330        0.15400
C         -2.16590        1.05850        1.31760
O         -2.35080        0.55940        0.06870
C         -3.04210       -0.65950       -0.06350
C         -2.49420        0.42430        2.48290
C         -2.24260        1.05430        3.72080
C         -2.37760        0.50230        5.00240
C         -2.43230       -0.83580        5.45300
C         -1.97560       -1.97210        4.84440
C         -1.21890       -2.12170        3.66040
S         -1.46760       -3.58540        2.73100
C         -0.34150       -1.26590        2.97550
C          0.28660       -0.09670        3.46120
C          0.99050        0.70250        2.60330
O          1.63000        1.85670        2.93600
C          1.69610        2.21200        4.29360
C          1.08750        0.36240        1.21130
O          1.67900        1.30360        0.43360
C          1.57200        1.15420       -0.96230
C          0.62880       -0.85020        0.77040
C         -0.04800       -1.70690        1.65640
C         -0.56590       -2.98530        1.36450
C         -0.42200       -3.70870        0.17970
C         -0.94830       -4.95000       -0.07010
C         -0.77860       -5.63300       -1.27630
S          0.17190       -4.95250       -2.56870
C         -1.30700       -6.87810       -1.67090
C         -2.12660       -7.72610       -0.90430
C         -2.57360       -8.90810       -1.43290
O         -3.36480       -9.80860       -0.79260
C         -3.77030       -9.52020        0.52160
C         -2.21190       -9.27920       -2.76960
O         -2.72300      -10.47070       -3.17840
C         -2.42740      -10.91300       -4.47840
C         -1.41690       -8.45710       -3.52510
C         -0.94330       -7.24410       -2.99190
C         -0.13140       -6.28360       -3.64300
C          0.45660       -6.44110       -4.90510
C          1.17580       -5.59110       -5.71160
C          1.37000       -4.20180       -5.70400
S          0.39720       -3.06380       -4.82120
C          2.29070       -3.50520       -6.52180
C          3.26040       -4.06470       -7.37480
C          4.10320       -3.25410       -8.08870
O          5.07310       -3.68210       -8.94000
C          5.24000       -5.06520       -9.11920
C          4.00890       -1.82830       -7.96840
O          4.90330       -1.13810       -8.72620
C          4.88260        0.26460       -8.66590
C          3.07480       -1.27040       -7.13800
C          2.20110       -2.09390       -6.40180
C          1.20150       -1.67840       -5.50300
C          0.85120       -0.36990       -5.13810
C         -0.14370       -0.07060       -4.25020
C         -0.57680        1.19160       -3.80300
S         -2.08780        1.23940       -2.93640
C         -0.04600        2.49010       -3.91070
C          1.20020        2.88490       -4.43860
C          1.56090        4.20450       -4.45860
O          2.73780        4.68980       -4.94040
C          3.65550        3.78220       -5.49270
C          0.67420        5.20740       -3.93920
O          1.14490        6.47960       -4.03610
C          0.34320        7.52310       -3.54510
C         -0.52110        4.84240       -3.38720
C         -0.90170        3.48140       -3.34480
C         -2.06250        2.95450       -2.76960
C         -3.11070        3.65820       -2.10370
C         -4.16390        3.08480       -1.51820
H         -3.36670        4.80840       11.07800
H         -1.98200        2.55380       11.84570
H         -0.43810        1.34690       13.15780
H         -0.18670       -0.40680       12.96870
H         -1.75960        0.31480       12.54360
H          0.60590        0.44650        6.89380
H          2.00760        1.45070        7.36740
H          2.03130       -0.30920        7.65270
H          0.05060        2.72080        7.29720
H         -1.70040        6.12020        6.39230
H         -1.42760        4.93530        4.45730
H         -1.07960        4.04510        2.56670
H         -0.93650        4.86820        0.44290
H          0.51840        3.89340        0.82110
H          0.00140        4.11720       -0.87140
H         -3.11230       -0.84290       -1.13440
H         -4.04830       -0.59400        0.36350
H         -2.50200       -1.48470        0.40750
H         -2.94680       -0.55220        2.48520
H         -2.86220       -0.96110        6.44020
H         -2.26850       -2.90840        5.30630
H          0.19420        0.14320        4.50630
H          2.20030        1.43710        4.88070
H          2.27870        3.13150        4.33000
H          0.70180        2.39800        4.71010
H          2.16040        0.30620       -1.32840
H          1.96520        2.07390       -1.39280
H          0.52740        1.03050       -1.26110
H          0.75800       -1.15100       -0.25560
H          0.15700       -3.23830       -0.60380
H         -1.53340       -5.43100        0.70220
H         -2.39090       -7.42790        0.09640
H         -4.38420      -10.36410        0.83180
H         -2.91280       -9.42820        1.19680
H         -4.36610       -8.60230        0.56680
H         -2.80370      -10.21740       -5.23620
H         -1.35070      -11.05600       -4.62060
H         -2.93440      -11.87060       -4.58550
H         -1.15130       -8.72740       -4.53340
H          0.36430       -7.44930       -5.29220
H          1.66320       -6.07930       -6.54780
H          3.33500       -5.13650       -7.45310
H          5.50750       -5.56400       -8.18150
H          4.33810       -5.52990       -9.53220
H          6.05770       -5.17310       -9.83000
H          3.92060        0.66840       -9.00000
H          5.09680        0.62850       -7.65470
H          5.66730        0.60010       -9.34190
H          2.99320       -0.20090       -7.03650
H          1.39950        0.41840       -5.62820
H         -0.71230       -0.90720       -3.86010
H          1.87830        2.13220       -4.79730
H          4.50030        4.38320       -5.82520
H          4.00000        3.05290       -4.75120
H          3.22910        3.25230       -6.35190
H         -0.61910        7.57110       -4.06600
H          0.16770        7.42360       -2.46830
H          0.90150        8.43810       -3.73540
H         -1.18810        5.58100       -2.97460
H         -3.01000        4.73560       -2.08460
H         -4.28520        2.01520       -1.51190
H         -4.91970        3.66590       -1.02030
