116

C         -4.00370       -2.56040       -0.77000
S         -2.35430       -2.95190       -0.55500
C         -2.40560       -2.68180        1.16870
C         -3.70610       -2.32220        1.54450
C         -4.61130       -2.23540        0.42070
N         -5.90080       -1.86230        0.56620
C         -6.28220       -1.58870        1.77790
N         -5.55450       -1.66240        2.90020
C         -4.28940       -2.01960        2.79670
C         -3.55090       -2.13010        4.00550
N         -2.95490       -2.26300        4.97560
C         -1.24540       -2.72060        1.96750
C          0.00580       -2.90480        1.45060
C          1.24110       -2.77230        2.10480
S          2.61010       -2.46120        1.07400
C          1.63310       -2.74660        3.45990
C          0.84590       -3.00630        4.59470
C          1.39680       -2.92260        5.85080
O          0.74680       -3.14660        7.00610
C         -0.62230       -3.49170        6.96480
C          2.78330       -2.57580        6.01220
O          3.19530       -2.50980        7.29750
C          4.53490       -2.17150        7.56020
C          3.56960       -2.35540        4.91130
C          3.01660       -2.45430        3.62180
C          3.70110       -2.25030        2.40630
C          5.08190       -2.04740        2.21760
C          5.69770       -1.63590        1.06330
C          5.07560       -0.95550       -0.00380
S          5.56730       -1.23240       -1.64940
C          4.07630        0.04060        0.04650
C          3.58940        0.68060        1.20000
C          2.67000        1.69420        1.09120
O          2.17850        2.42280        2.11010
C          2.63150        2.14870        3.41660
C          2.19150        2.08530       -0.20630
O          1.24180        3.04470       -0.18940
C          0.64740        3.43030       -1.40630
C          2.70810        1.50550       -1.33950
C          3.64410        0.46110       -1.23740
C          4.29080       -0.22930       -2.29070
C          3.95000       -0.32000       -3.64580
C          2.68060       -0.03810       -4.08910
C          2.17630       -0.14620       -5.38350
S          0.47270        0.11040       -5.59930
C          0.51210       -0.11630       -7.32130
C          1.84090       -0.38770       -7.71760
C          2.78100       -0.41020       -6.63120
N          4.08370       -0.64830       -6.80350
C          4.47130       -0.86880       -8.03660
N          3.71040       -0.86470       -9.12490
C          2.41590       -0.62540       -8.98710
C          1.66390       -0.62010      -10.19370
N          1.08640       -0.62440      -11.18370
C         -0.63910       -0.16540       -8.12120
C         -1.95290        0.02900       -7.77430
C         -2.48410        0.59940       -6.60120
S         -4.03070        0.08670       -5.97930
C         -3.90510        1.05860       -4.53200
C         -2.77460        1.87450       -4.61630
C         -1.97640        1.62170       -5.78330
N         -0.87590        2.33060       -6.06600
C         -0.56390        3.28370       -5.22320
N         -1.23020        3.63380       -4.12910
C         -2.32400        2.95560       -3.81820
C         -3.02410        3.42410       -2.67560
N         -3.55710        3.84600       -1.75290
C         -4.87460        0.94380       -3.50080
C         -4.62090        0.91600       -2.16290
C         -3.37990        0.72630       -1.52100
S         -1.90270        0.26110       -2.30200
C         -1.05060        0.00260       -0.80610
C         -1.85980        0.34490        0.26790
C         -3.19450        0.71320       -0.12770
N         -4.15430        0.99160        0.76130
C         -3.81350        0.92270        2.02130
N         -2.60980        0.62700        2.51700
C         -1.63490        0.34970        1.67290
C         -0.36050        0.08940        2.22990
N          0.67610       -0.11210        2.68100
C          0.26060       -0.56800       -0.80040
C          0.76570       -1.27320       -1.81410
H         -4.44660       -2.57900       -1.74410
H         -7.30870       -1.27620        1.91350
H         -1.38260       -2.51200        3.01560
H          0.07540       -3.05030        0.37800
H         -0.18790       -3.27650        4.47660
H         -0.92490       -3.59870        8.00450
H         -1.22260       -2.71430        6.48700
H         -0.77600       -4.44160        6.44350
H          4.62930       -2.16780        8.64450
H          5.22580       -2.90940        7.13930
H          4.78150       -1.17810        7.17140
H          4.61250       -2.10570        5.01510
H          5.71590       -2.34560        3.04300
H          6.75070       -1.85860        0.94470
H          3.96510        0.37630        2.16200
H          3.71430        2.28880        3.49830
H          2.36090        1.13370        3.72000
H          2.12230        2.86650        4.05680
H         -0.16260        4.10810       -1.14410
H          1.35560        3.95200       -2.05640
H          0.23640        2.56840       -1.94200
H          2.43500        1.88230       -2.30930
H          4.67330       -0.71880       -4.34230
H          1.93550        0.22160       -3.35100
H          5.52180       -1.07250       -8.19330
H         -0.46500       -0.50100       -9.13520
H         -2.68960       -0.34670       -8.47390
H          0.32730        3.85770       -5.43950
H         -5.89900        0.80900       -3.82250
H         -5.45380        0.94840       -1.47350
H         -4.58200        1.13300        2.75280
H          0.82580       -0.43600        0.11090
H          1.74280       -1.71670       -1.75450
H          0.19800       -1.44900       -2.71370
