227

C          1.39880        3.27320       11.38160
C          2.22620        3.43510       10.32980
C          1.57720        3.22820        9.07590
C          2.11840        3.35110        7.78810
C          3.53740        3.66050        7.56840
C          4.53910        2.90050        8.16460
C          5.87420        3.17470        7.93740
C          6.25410        4.21970        7.10320
S          7.91820        4.68700        6.75120
C          8.87980        3.17550        7.10840
C          8.56270        2.05480        6.13700
C          5.23900        4.98240        6.52400
F          5.57130        6.01510        5.72530
C          3.90530        4.71690        6.73840
C          1.24810        3.15970        6.72610
C         -0.12400        2.84870        6.89140
C         -0.66590        2.72760        8.18030
C         -2.09060        2.44200        8.38570
C         -3.07040        3.20520        7.75110
C         -4.40670        2.93260        7.94400
C         -4.82360        1.89330        8.77580
S         -6.56230        1.65960        8.96310
C         -6.73950       -0.15400        9.20560
C         -8.13050       -0.57120        8.77080
C         -3.83550        1.15980        9.42550
C         -2.49290        1.41580        9.23310
F         -4.15880        0.16150       10.27910
C          0.20800        2.91140        9.24330
S         -0.22110        2.86010       10.93430
C         -0.77430        2.65100        5.64560
C          0.04600        2.80760        4.56950
S          1.68910        3.20850        5.03850
C         -0.28430        2.68950        3.18840
C          0.55370        2.81040        2.12030
C         -0.08940        2.64150        0.86980
C          0.48260        2.72780       -0.41120
C          1.93360        2.87290       -0.57810
C          2.79950        2.00350        0.07880
C          4.16810        2.08790       -0.08340
C          4.72610        3.06200       -0.90170
S          6.44590        3.27590       -1.21730
C          7.24940        1.89290       -0.33660
C          7.44910        2.17960        1.14050
C          3.84730        3.93470       -1.54710
F          4.35450        4.88560       -2.35930
C          2.48030        3.85060       -1.40560
C         -0.38350        2.60260       -1.48300
C         -1.77320        2.35300       -1.34600
C         -2.34110        2.25300       -0.06220
C         -3.76780        1.97650        0.12690
C         -4.74210        2.69380       -0.55890
C         -6.08620        2.41890       -0.39320
C         -6.50420        1.40460        0.46030
S         -8.17480        0.93620        0.75370
C         -9.13340        2.08160       -0.30580
C        -10.61020        1.77800       -0.13640
C         -5.51640        0.69650        1.14630
C         -4.17800        0.97070        1.00050
F         -5.88390       -0.30380        1.97740
C         -1.47680        2.39910        1.01270
S         -1.93550        2.35480        2.69840
C         -2.39440        2.12950       -2.59750
C         -1.54600        2.20190       -3.67120
S          0.08580        2.61910       -3.15950
C         -1.85060        1.89200       -5.02150
S         -3.33960        1.06800       -5.38590
C         -1.08460        2.05270       -6.18080
C          0.18800        2.64740       -6.30880
C          0.80420        2.70140       -7.52810
O          2.03240        3.22500       -7.75590
C          2.76390        3.70720       -6.65410
C          0.15200        2.17510       -8.69890
O          0.86690        2.31080       -9.84440
C          0.30810        1.82760      -11.03950
C         -1.08220        1.59730       -8.59480
C         -1.72480        1.52450       -7.33960
C         -2.94690        0.90450       -7.06380
C         -3.83650        0.33340       -8.02250
C         -4.61120       -0.77780       -7.92090
C         -4.55490       -1.83840       -6.98360
S         -3.19940       -2.12700       -5.94600
C         -5.47440       -2.90000       -6.89030
C         -6.70680       -3.02020       -7.56390
C         -7.49820       -4.11750       -7.35810
O         -8.69950       -4.34610       -7.94870
C         -9.18970       -3.39070       -8.85490
C         -7.08150       -5.14890       -6.45000
O         -7.95770       -6.18070       -6.33600
C         -7.64190       -7.23220       -5.46010
C         -5.89060       -5.04040       -5.78370
C         -5.06480       -3.91790       -5.98800
C         -3.81870       -3.65090       -5.38620
C         -3.16770       -4.44640       -4.42750
C         -1.95890       -4.18780       -3.84140
C         -1.37360       -4.90210       -2.77260
S          0.32060       -4.64870       -2.44020
C         -1.91500       -5.79930       -1.83380
C         -3.26870       -6.15550       -1.65230
C         -3.63160       -7.03460       -0.66990
O         -4.90400       -7.43380       -0.40560
C         -5.94210       -6.92130       -1.20050
C         -2.63720       -7.60570        0.19380
O         -3.12360       -8.48230        1.10740
C         -2.22460       -9.07230        2.01240
C         -1.32910       -7.22670        0.07150
C         -0.93940       -6.31150       -0.93030
C          0.34840       -5.77850       -1.11550
C          1.50510       -6.21550       -0.41420
C          2.74290       -5.68190       -0.24870
C          3.20020       -4.38590       -0.62910
C          2.47470       -3.25200       -0.82950
C          3.22950       -2.16600       -1.33200
C          2.71720       -0.97690       -1.86840
C          1.26320       -0.78130       -1.80700
C          0.59210       -0.75700       -0.58640
C         -0.78780       -0.73810       -0.53660
C         -1.53580       -0.79670       -1.70390
S         -3.31920       -0.79550       -1.67400
C         -3.68970       -2.53580       -1.24040
C         -3.21750       -2.95690        0.13490
C         -0.85170       -0.79430       -2.91130
F         -1.52850       -0.85230       -4.06720
C          0.52530       -0.76780       -2.98100
C          3.60940       -0.16010       -2.53930
C          5.00220       -0.42180       -2.57980
C          5.52140       -1.59280       -2.00330
C          6.95400       -1.91140       -2.04210
C          7.62100       -2.28250       -0.87890
C          8.96740       -2.59220       -0.89040
C          9.69640       -2.54500       -2.07240
S         11.40470       -2.93710       -2.25070
C         12.01300       -3.11640       -0.53880
C         12.15780       -1.78100        0.16670
C          9.01070       -2.18410       -3.23460
C          7.67120       -1.86950       -3.23600
F          9.68400       -2.14590       -4.40240
C          4.60740       -2.46580       -1.42930
S          4.92180       -4.09860       -0.89340
C          5.70110        0.60600       -3.28190
C          4.88240        1.54900       -3.78880
S          3.20810        1.27790       -3.43760
H          1.63100        3.37090       12.42420
H          3.26120        3.71080       10.41960
H          4.26990        2.07050        8.80080
H          6.62120        2.56670        8.42240
H          8.71510        2.88660        8.14550
H          9.91380        3.50270        7.00080
H          8.74830        2.38110        5.11620
H          9.19130        1.19170        6.34820
H          7.51990        1.75430        6.21660
H          3.16310        5.34230        6.26840
H         -2.77780        4.02600        7.11430
H         -5.16200        3.52350        7.44970
H         -6.56990       -0.37930       10.25750
H         -5.97680       -0.63560        8.59590
H         -8.25220       -1.64320        8.91120
H         -8.88520       -0.05440        9.35930
H         -8.28920       -0.33490        7.72110
H         -1.77120        0.80110        9.74800
H         -1.81120        2.38270        5.54840
H          1.59920        3.03980        2.22740
H          2.39480        1.22960        0.71220
H          4.79390        1.37600        0.42930
H          6.66870        0.98890       -0.51690
H          8.21120        1.78990       -0.83960
H          7.94480        1.33530        1.61720
H          6.49960        2.35470        1.64130
H          8.06710        3.06500        1.26880
H          1.85210        4.55010       -1.93350
H         -4.44660        3.49520       -1.21880
H         -6.80780        3.00330       -0.94030
H         -8.90760        3.10050        0.00940
H         -8.81930        1.92680       -1.33820
H        -11.19960        2.44660       -0.76030
H        -10.82300        0.75140       -0.42530
H        -10.90940        1.91250        0.90040
H         -3.46190        0.37890        1.54750
H         -3.43150        1.86810       -2.70510
H          0.66920        3.05270       -5.43700
H          2.91460        2.92660       -5.90130
H          3.72620        4.02070       -7.05510
H          2.26980        4.56460       -6.18630
H          0.13440        0.74720      -10.99450
H         -0.63260        2.33550      -11.27770
H          1.04060        2.04340      -11.81550
H         -1.58310        1.18450       -9.45480
H         -3.89220        0.87970       -8.95800
H         -5.32100       -0.94110       -8.72310
H         -7.01510       -2.23460       -8.23350
H         -9.34370       -2.41980       -8.37210
H        -10.14690       -3.77720       -9.20040
H         -8.51870       -3.26700       -9.71170
H         -7.55670       -6.88170       -4.42530
H         -8.46990       -7.93520       -5.53360
H         -6.71360       -7.73550       -5.75160
H         -5.57080       -5.81130       -5.10230
H         -3.69390       -5.34790       -4.15330
H         -1.37480       -3.36500       -4.23330
H         -4.02140       -5.69140       -2.26330
H         -5.81320       -7.19730       -2.25330
H         -6.85560       -7.37480       -0.81960
H         -6.01690       -5.83160       -1.11730
H         -2.82500       -9.73530        2.63290
H         -1.45740       -9.65700        1.49380
H         -1.74160       -8.32130        2.64650
H         -0.58260       -7.61050        0.74610
H          1.36250       -7.18490        0.05020
H          3.48800       -6.30860        0.22430
H          1.41990       -3.19250       -0.64390
H          1.15870       -0.75880        0.33260
H         -1.29650       -0.68970        0.41320
H         -3.25840       -3.15890       -2.02180
H         -4.77700       -2.57340       -1.30800
H         -3.55120       -3.97360        0.33650
H         -3.62610       -2.29950        0.89900
H         -2.13080       -2.94300        0.19210
H          1.00740       -0.77930       -3.94600
H          7.07980       -2.32300        0.05460
H          9.44020       -2.88010        0.03420
H         11.35650       -3.80320       -0.00610
H         12.98490       -3.59370       -0.66320
H         12.83830       -1.13820       -0.38660
H         12.55800       -1.93180        1.16770
H         11.19870       -1.27390        0.24750
H          7.18840       -1.62260       -4.16830
H          6.76990        0.63140       -3.39070
H          5.15370        2.41980       -4.35310
