277

C         -6.83080       -3.56960       10.09470
C         -6.68850       -2.43780        9.37700
C         -6.58160       -2.68060        7.97510
C         -6.41870       -1.75070        6.94330
C         -6.19410       -0.31330        7.15870
C         -5.13590        0.11860        7.95270
C         -4.79810        1.45650        8.02010
C         -5.51030        2.40690        7.29820
S         -5.11550        4.12650        7.26020
C         -3.31210        4.14450        7.55780
C         -2.53720        3.41200        6.47920
C         -6.61350        1.97030        6.56570
F         -7.36770        2.87480        5.91550
C         -6.95250        0.63780        6.48000
C         -6.36620       -2.25710        5.65270
C         -6.39770       -3.63960        5.34630
C         -6.54980       -4.57220        6.38490
C         -6.55520       -6.01820        6.12910
C         -7.57480       -6.83160        6.61920
C         -7.55680       -8.19120        6.39410
C         -6.52860       -8.79480        5.67280
S         -6.64010      -10.54140        5.41280
C         -4.91740      -11.13230        5.60330
C         -4.34550      -10.78150        6.96210
C         -5.52960       -7.96720        5.17000
C         -5.52790       -6.60600        5.39840
F         -4.51230       -8.47150        4.43570
C         -6.66730       -4.06160        7.67150
S         -6.84810       -5.00720        9.12880
C         -6.24990       -3.87030        3.95030
C         -6.10560       -2.72500        3.22770
S         -6.15520       -1.28670        4.22870
C         -5.86300       -2.52050        1.83450
C         -5.96130       -1.32280        1.19450
C         -5.50260       -1.35130       -0.14280
C         -5.38260       -0.25570       -1.00890
C         -5.86600        1.06790       -0.59060
C         -5.00810        2.15660       -0.46300
C         -5.48530        3.36530       -0.00370
C         -6.83130        3.55240        0.31530
S         -7.28670        5.16390        0.86990
C         -8.82140        4.96290        1.84880
C         -8.64950        4.05590        3.04930
C         -7.68230        2.46800        0.12610
F         -9.01570        2.56950        0.32850
C         -7.21070        1.23930       -0.28860
C         -4.75580       -0.49000       -2.21810
C         -4.30490       -1.77570       -2.61040
C         -4.45310       -2.88160       -1.75210
C         -3.91320       -4.19200       -2.13520
C         -3.03640       -4.87810       -1.29540
C         -2.47180       -6.06930       -1.69340
C         -2.76040       -6.63730       -2.93560
S         -1.98270       -8.17700       -3.29910
C         -1.84960       -8.22560       -5.13060
C         -0.82370       -9.27520       -5.50780
C         -3.66640       -5.95980       -3.74700
C         -4.22460       -4.75520       -3.36850
F         -4.03860       -6.45990       -4.94800
C         -5.03110       -2.63360       -0.51710
S         -5.24000       -3.78230        0.78540
C         -3.58430       -1.72430       -3.82850
C         -3.46660       -0.46540       -4.34650
S         -4.33360        0.72380       -3.39540
C         -2.54610       -0.05960       -5.36040
C         -1.60700       -0.85460       -5.95330
C         -0.56310       -0.13110       -6.58010
C          0.68750       -0.64960       -6.96770
C          0.87370       -2.10580       -7.01270
C         -0.01370       -2.89580       -7.74400
C          0.10920       -4.26830       -7.75410
C          1.10700       -4.90980       -7.02270
S          1.10880       -6.67970       -7.03060
C          2.87960       -7.12300       -7.15670
C          3.52380       -6.53110       -8.39380
C          1.97630       -4.11070       -6.28730
F          2.94160       -4.66520       -5.51970
C          1.88100       -2.73360       -6.28860
C          1.70630        0.27110       -7.14200
C          1.49410        1.67390       -7.07960
C          0.22450        2.19110       -6.77360
C          0.01440        3.62800       -6.54110
C          0.80380        4.31940       -5.62220
C          0.60120        5.66320       -5.39380
C         -0.39400        6.36690       -6.06620
S         -0.53640        8.10330       -5.75170
C         -2.33410        8.32980       -5.48980
C         -2.83860        7.50210       -4.32490
C         -1.17710        5.66410       -6.97640
C         -0.99520        4.31420       -7.20470
F         -2.14420        6.29210       -7.67750
C         -0.76790        1.26700       -6.49320
S         -2.28170        1.63940       -5.70590
C          2.71000        2.39660       -7.07970
C          3.81800        1.60020       -6.97890
S          3.41450       -0.09410       -7.21950
C          5.00160        1.95690       -6.25930
C          5.10290        3.09180       -5.49980
C          5.92630        2.94370       -4.36070
C          5.91160        3.79080       -3.23490
C          5.21710        5.08270       -3.30730
C          5.52810        6.00250       -4.30980
C          4.84120        7.19050       -4.41040
C          3.80680        7.52060       -3.52870
S          3.05850        9.09260       -3.80090
C          1.51080        9.11420       -2.81600
C          0.73870       10.36670       -3.18030
C          3.51450        6.59490       -2.53160
F          2.52930        6.81750       -1.62740
C          4.19830        5.40030       -2.41770
C          6.43490        3.26200       -2.06830
C          7.07270        1.99750       -2.02410
C          7.17200        1.18950       -3.17310
C          7.78860       -0.13840       -3.05470
C          7.10890       -1.29940       -3.40530
C          7.66100       -2.54740       -3.18620
C          8.92080       -2.67960       -2.61540
S          9.73690       -4.19390       -2.24730
C          8.67160       -5.47650       -2.98630
C          8.78900       -5.52830       -4.49810
C          9.59620       -1.50530       -2.27880
C          9.05610       -0.25800       -2.48520
F         10.82030       -1.59180       -1.71120
C          6.52950        1.66140       -4.30440
S          6.14060        0.72690       -5.73250
C          7.33630        1.57770       -0.70000
C          6.88640        2.43940        0.25910
S          6.26140        3.92330       -0.45950
C          6.67720        2.18510        1.64330
S          5.52010        3.16720        2.48830
C          7.06280        1.09710        2.42980
C          7.96380        0.05550        2.11650
C          8.10690       -1.00950        2.95960
O          8.88330       -2.09270        2.72200
C          9.54030       -2.18870        1.47580
C          7.39870       -1.05020        4.21690
O          7.64120       -2.16640        4.95240
C          7.01890       -2.28230        6.20620
C          6.58030       -0.02180        4.57750
C          6.38380        1.06590        3.69050
C          5.49080        2.11050        3.85480
C          4.53630        2.37260        4.92300
C          3.21270        2.22830        4.76900
C          2.56200        1.62110        3.63620
C          1.24840        1.72030        3.28660
C          0.88300        0.92430        2.16510
C         -0.37870        0.77440        1.56100
C         -1.52440        1.58740        1.98380
C         -1.39330        2.96600        2.13610
C         -2.44750        3.74860        2.56580
C         -3.67990        3.17480        2.86190
S         -5.08990        4.00740        3.48360
C         -4.55540        5.75500        3.57600
C         -5.70080        6.58060        4.12910
C         -3.80680        1.79790        2.66420
F         -5.00460        1.22930        2.91490
C         -2.76750        1.00650        2.23850
C         -0.47190       -0.16900        0.54400
C          0.62140       -0.95820        0.11090
C          1.87960       -0.80030        0.70430
C          3.03270       -1.65650        0.39080
C          2.91860       -3.04160        0.49660
C          4.02060       -3.85950        0.34790
C          5.27290       -3.31630        0.08910
S          6.74310       -4.28750       -0.07030
C          6.59050       -5.42960        1.34840
C          6.50700       -4.69170        2.66950
C          5.36410       -1.93670       -0.06180
C          4.27580       -1.10520        0.09040
F          6.56550       -1.39450       -0.33860
C          1.97970        0.15850        1.70220
S          3.43090        0.50810        2.59480
C          0.25930       -1.82010       -0.96740
C         -1.03150       -1.69210       -1.33130
S         -1.90410       -0.52770       -0.39420
H         -6.93620       -3.66910       11.15740
H         -6.66940       -1.45150        9.80440
H         -4.54720       -0.60600        8.49550
H         -3.96420        1.75570        8.63530
H         -3.11430        3.74160        8.55060
H         -3.06720        5.20670        7.56250
H         -1.46930        3.48290        6.67870
H         -2.73740        3.84590        5.50310
H         -2.81490        2.36030        6.44320
H         -7.80280        0.35150        5.88180
H         -8.39040       -6.39250        7.17230
H         -8.34710       -8.81820        6.77620
H         -4.31360      -10.73540        4.79040
H         -5.01030      -12.21160        5.48220
H         -4.26520       -9.70270        7.08280
H         -4.97990      -11.17100        7.75550
H         -3.35190      -11.21360        7.06390
H         -4.71300       -6.01530        5.00890
H         -6.26390       -4.84610        3.49850
H         -6.31560       -0.43100        1.67800
H         -3.95910        2.04160       -0.69020
H         -4.81280        4.20080        0.11780
H         -9.61110        4.61860        1.18450
H         -9.04590        5.98490        2.15800
H         -8.36870        3.05000        2.74860
H         -7.88250        4.43010        3.72130
H         -9.58890        3.99880        3.59460
H         -7.91170        0.42590       -0.39900
H         -2.77190       -4.45570       -0.33850
H         -1.78180       -6.58830       -1.04660
H         -2.82760       -8.46560       -5.54360
H         -1.53420       -7.23750       -5.46310
H          0.14200       -9.03600       -5.06920
H         -1.13250      -10.25730       -5.15700
H         -0.71510       -9.30320       -6.58930
H         -4.92730       -4.27820       -4.03480
H         -3.11510       -2.58470       -4.27000
H         -1.59380       -1.92450       -5.85530
H         -0.79540       -2.42280       -8.31880
H         -0.57580       -4.87500       -8.32590
H          2.86090       -8.21200       -7.20410
H          3.38700       -6.81560       -6.24500
H          2.97840       -6.82730       -9.28760
H          3.53860       -5.44380       -8.34170
H          4.54960       -6.88450       -8.47730
H          2.57280       -2.16800       -5.68520
H          1.55910        3.79110       -5.05980
H          1.21870        6.19160       -4.68410
H         -2.42940        9.39660       -5.28740
H         -2.85770        8.09640       -6.41400
H         -2.73410        6.43790       -4.53010
H         -2.28040        7.73550       -3.42030
H         -3.89110        7.71610       -4.15060
H         -1.62850        3.81540       -7.92190
H          2.75250        3.46840       -7.03230
H          4.49130        3.96130       -5.65760
H          6.32240        5.78110       -5.00650
H          5.08840        7.89980       -5.18510
H          1.77340        9.10570       -1.75960
H          0.94330        8.22070       -3.07050
H          0.49310       10.36200       -4.23970
H         -0.18400       10.40750       -2.60540
H          1.32600       11.25590       -2.96250
H          3.90790        4.71900       -1.63340
H          6.11570       -1.23410       -3.82180
H          7.08290       -3.41920       -3.44350
H          9.03720       -6.40100       -2.53920
H          7.65140       -5.30670       -2.64640
H          8.15750       -6.32310       -4.89090
H          9.81840       -5.72610       -4.78760
H          8.48270       -4.58660       -4.94800
H          9.62370        0.61650       -2.20670
H          7.72320        0.60300       -0.49080
H          8.53540        0.10470        1.20850
H          8.82830       -2.15630        0.64690
H         10.28470       -1.39790        1.34930
H         10.04320       -3.15370        1.47830
H          7.31910       -1.47320        6.88010
H          7.35320       -3.23440        6.61470
H          5.92750       -2.28880        6.11350
H          6.04770       -0.01560        5.51460
H          4.93070        2.74670        5.85990
H          2.54580        2.54070        5.56250
H          0.54770        2.33530        3.82310
H         -0.45290        3.43830        1.89500
H         -2.30200        4.81200        2.66770
H         -4.29030        6.07920        2.56980
H         -3.68770        5.80960        4.23420
H         -6.02040        6.18680        5.09170
H         -5.38280        7.61270        4.25950
H         -6.54280        6.56140        3.44210
H         -2.92620       -0.05470        2.13050
H          1.95840       -3.47800        0.72810
H          3.90980       -4.92850        0.44560
H          7.49760       -6.03050        1.28900
H          5.72820       -6.07590        1.18430
H          6.47870       -5.40950        3.48710
H          5.60570       -4.08130        2.71490
H          7.36980       -4.04430        2.80880
H          4.40850       -0.04040       -0.02140
H          0.95320       -2.48660       -1.44700
H         -1.55360       -2.21600       -2.10750
