
  xtb     03042222333D
 energy: -254.006104109894 gnorm: 0.000393970943 xtb: 6.4.1 (unknown)
152163  0     0  0            999 V2000
   -2.8239    4.5898   10.1804 C   0  0  0  0  0  0  0  0  0  0  0  0
   -3.0005    5.5975    8.8135 S   0  0  0  0  0  0  0  0  0  0  0  0
   -1.9526    3.5536    9.9446 C   0  0  0  0  0  0  0  0  0  0  0  0
   -1.5494    2.5483   10.8586 C   0  0  0  0  0  0  0  0  0  0  0  0
   -0.6335    1.6167   10.4740 C   0  0  0  0  0  0  0  0  0  0  0  0
   -0.1694    0.5972   11.2425 O   0  0  0  0  0  0  0  0  0  0  0  0
   -0.6755    0.4696   12.5466 C   0  0  0  0  0  0  0  0  0  0  0  0
   -0.0481    1.6713    9.1557 C   0  0  0  0  0  0  0  0  0  0  0  0
    0.8707    0.6973    8.9286 O   0  0  0  0  0  0  0  0  0  0  0  0
    1.4010    0.5786    7.6352 C   0  0  0  0  0  0  0  0  0  0  0  0
   -0.4185    2.6368    8.2630 C   0  0  0  0  0  0  0  0  0  0  0  0
   -1.4196    3.5731    8.6138 C   0  0  0  0  0  0  0  0  0  0  0  0
   -1.9335    4.6123    7.8441 C   0  0  0  0  0  0  0  0  0  0  0  0
   -1.7120    5.0412    6.5010 C   0  0  0  0  0  0  0  0  0  0  0  0
   -1.6223    4.3392    5.3405 C   0  0  0  0  0  0  0  0  0  0  0  0
   -1.8490    2.9772    5.0432 C   0  0  0  0  0  0  0  0  0  0  0  0
   -2.2961    1.7660    6.2066 S   0  0  0  0  0  0  0  0  0  0  0  0
   -1.8579    2.4230    3.7466 C   0  0  0  0  0  0  0  0  0  0  0  0
   -1.4690    3.0413    2.5412 C   0  0  0  0  0  0  0  0  0  0  0  0
   -1.5548    2.3587    1.3578 C   0  0  0  0  0  0  0  0  0  0  0  0
   -1.1204    2.8206    0.1583 O   0  0  0  0  0  0  0  0  0  0  0  0
   -0.3434    3.9933    0.1540 C   0  0  0  0  0  0  0  0  0  0  0  0
   -2.1659    1.0585    1.3176 C   0  0  0  0  0  0  0  0  0  0  0  0
   -2.3508    0.5594    0.0687 O   0  0  0  0  0  0  0  0  0  0  0  0
   -3.0421   -0.6595   -0.0635 C   0  0  0  0  0  0  0  0  0  0  0  0
   -2.4942    0.4243    2.4829 C   0  0  0  0  0  0  0  0  0  0  0  0
   -2.2426    1.0543    3.7208 C   0  0  0  0  0  0  0  0  0  0  0  0
   -2.3776    0.5023    5.0024 C   0  0  0  0  0  0  0  0  0  0  0  0
   -2.4323   -0.8358    5.4530 C   0  0  0  0  0  0  0  0  0  0  0  0
   -1.9756   -1.9721    4.8444 C   0  0  0  0  0  0  0  0  0  0  0  0
   -1.2189   -2.1217    3.6604 C   0  0  0  0  0  0  0  0  0  0  0  0
   -1.4676   -3.5854    2.7310 S   0  0  0  0  0  0  0  0  0  0  0  0
   -0.3415   -1.2659    2.9755 C   0  0  0  0  0  0  0  0  0  0  0  0
    0.2866   -0.0967    3.4612 C   0  0  0  0  0  0  0  0  0  0  0  0
    0.9905    0.7025    2.6033 C   0  0  0  0  0  0  0  0  0  0  0  0
    1.6300    1.8567    2.9360 O   0  0  0  0  0  0  0  0  0  0  0  0
    1.6961    2.2120    4.2936 C   0  0  0  0  0  0  0  0  0  0  0  0
    1.0875    0.3624    1.2113 C   0  0  0  0  0  0  0  0  0  0  0  0
    1.6790    1.3036    0.4336 O   0  0  0  0  0  0  0  0  0  0  0  0
    1.5720    1.1542   -0.9623 C   0  0  0  0  0  0  0  0  0  0  0  0
    0.6288   -0.8502    0.7704 C   0  0  0  0  0  0  0  0  0  0  0  0
   -0.0480   -1.7069    1.6564 C   0  0  0  0  0  0  0  0  0  0  0  0
   -0.5659   -2.9853    1.3645 C   0  0  0  0  0  0  0  0  0  0  0  0
   -0.4220   -3.7087    0.1797 C   0  0  0  0  0  0  0  0  0  0  0  0
   -0.9483   -4.9500   -0.0701 C   0  0  0  0  0  0  0  0  0  0  0  0
   -0.7786   -5.6330   -1.2763 C   0  0  0  0  0  0  0  0  0  0  0  0
    0.1719   -4.9525   -2.5687 S   0  0  0  0  0  0  0  0  0  0  0  0
   -1.3070   -6.8781   -1.6709 C   0  0  0  0  0  0  0  0  0  0  0  0
   -2.1266   -7.7261   -0.9043 C   0  0  0  0  0  0  0  0  0  0  0  0
   -2.5736   -8.9081   -1.4329 C   0  0  0  0  0  0  0  0  0  0  0  0
   -3.3648   -9.8086   -0.7926 O   0  0  0  0  0  0  0  0  0  0  0  0
   -3.7703   -9.5202    0.5216 C   0  0  0  0  0  0  0  0  0  0  0  0
   -2.2119   -9.2792   -2.7696 C   0  0  0  0  0  0  0  0  0  0  0  0
   -2.7230  -10.4707   -3.1784 O   0  0  0  0  0  0  0  0  0  0  0  0
   -2.4274  -10.9130   -4.4784 C   0  0  0  0  0  0  0  0  0  0  0  0
   -1.4169   -8.4571   -3.5251 C   0  0  0  0  0  0  0  0  0  0  0  0
   -0.9433   -7.2441   -2.9919 C   0  0  0  0  0  0  0  0  0  0  0  0
   -0.1314   -6.2836   -3.6430 C   0  0  0  0  0  0  0  0  0  0  0  0
    0.4566   -6.4411   -4.9051 C   0  0  0  0  0  0  0  0  0  0  0  0
    1.1758   -5.5911   -5.7116 C   0  0  0  0  0  0  0  0  0  0  0  0
    1.3700   -4.2018   -5.7040 C   0  0  0  0  0  0  0  0  0  0  0  0
    0.3972   -3.0638   -4.8212 S   0  0  0  0  0  0  0  0  0  0  0  0
    2.2907   -3.5052   -6.5218 C   0  0  0  0  0  0  0  0  0  0  0  0
    3.2604   -4.0647   -7.3748 C   0  0  0  0  0  0  0  0  0  0  0  0
    4.1032   -3.2541   -8.0887 C   0  0  0  0  0  0  0  0  0  0  0  0
    5.0731   -3.6821   -8.9400 O   0  0  0  0  0  0  0  0  0  0  0  0
    5.2400   -5.0652   -9.1192 C   0  0  0  0  0  0  0  0  0  0  0  0
    4.0089   -1.8283   -7.9684 C   0  0  0  0  0  0  0  0  0  0  0  0
    4.9033   -1.1381   -8.7262 O   0  0  0  0  0  0  0  0  0  0  0  0
    4.8826    0.2646   -8.6659 C   0  0  0  0  0  0  0  0  0  0  0  0
    3.0748   -1.2704   -7.1380 C   0  0  0  0  0  0  0  0  0  0  0  0
    2.2011   -2.0939   -6.4018 C   0  0  0  0  0  0  0  0  0  0  0  0
    1.2015   -1.6784   -5.5030 C   0  0  0  0  0  0  0  0  0  0  0  0
    0.8512   -0.3699   -5.1381 C   0  0  0  0  0  0  0  0  0  0  0  0
   -0.1437   -0.0706   -4.2502 C   0  0  0  0  0  0  0  0  0  0  0  0
   -0.5768    1.1916   -3.8030 C   0  0  0  0  0  0  0  0  0  0  0  0
   -2.0878    1.2394   -2.9364 S   0  0  0  0  0  0  0  0  0  0  0  0
   -0.0460    2.4901   -3.9107 C   0  0  0  0  0  0  0  0  0  0  0  0
    1.2002    2.8849   -4.4386 C   0  0  0  0  0  0  0  0  0  0  0  0
    1.5609    4.2045   -4.4586 C   0  0  0  0  0  0  0  0  0  0  0  0
    2.7378    4.6898   -4.9404 O   0  0  0  0  0  0  0  0  0  0  0  0
    3.6555    3.7822   -5.4927 C   0  0  0  0  0  0  0  0  0  0  0  0
    0.6742    5.2074   -3.9392 C   0  0  0  0  0  0  0  0  0  0  0  0
    1.1449    6.4796   -4.0361 O   0  0  0  0  0  0  0  0  0  0  0  0
    0.3432    7.5231   -3.5451 C   0  0  0  0  0  0  0  0  0  0  0  0
   -0.5211    4.8424   -3.3872 C   0  0  0  0  0  0  0  0  0  0  0  0
   -0.9017    3.4814   -3.3448 C   0  0  0  0  0  0  0  0  0  0  0  0
   -2.0625    2.9545   -2.7696 C   0  0  0  0  0  0  0  0  0  0  0  0
   -3.1107    3.6582   -2.1037 C   0  0  0  0  0  0  0  0  0  0  0  0
   -4.1639    3.0848   -1.5182 C   0  0  0  0  0  0  0  0  0  0  0  0
   -3.3667    4.8084   11.0780 H   0  0  0  0  0  0  0  0  0  0  0  0
   -1.9820    2.5538   11.8457 H   0  0  0  0  0  0  0  0  0  0  0  0
   -0.4381    1.3469   13.1578 H   0  0  0  0  0  0  0  0  0  0  0  0
   -0.1867   -0.4068   12.9687 H   0  0  0  0  0  0  0  0  0  0  0  0
   -1.7596    0.3148   12.5436 H   0  0  0  0  0  0  0  0  0  0  0  0
    0.6059    0.4465    6.8938 H   0  0  0  0  0  0  0  0  0  0  0  0
    2.0076    1.4507    7.3674 H   0  0  0  0  0  0  0  0  0  0  0  0
    2.0313   -0.3092    7.6527 H   0  0  0  0  0  0  0  0  0  0  0  0
    0.0506    2.7208    7.2972 H   0  0  0  0  0  0  0  0  0  0  0  0
   -1.7004    6.1202    6.3923 H   0  0  0  0  0  0  0  0  0  0  0  0
   -1.4276    4.9353    4.4573 H   0  0  0  0  0  0  0  0  0  0  0  0
   -1.0796    4.0451    2.5667 H   0  0  0  0  0  0  0  0  0  0  0  0
   -0.9365    4.8682    0.4429 H   0  0  0  0  0  0  0  0  0  0  0  0
    0.5184    3.8934    0.8211 H   0  0  0  0  0  0  0  0  0  0  0  0
    0.0014    4.1172   -0.8714 H   0  0  0  0  0  0  0  0  0  0  0  0
   -3.1123   -0.8429   -1.1344 H   0  0  0  0  0  0  0  0  0  0  0  0
   -4.0483   -0.5940    0.3635 H   0  0  0  0  0  0  0  0  0  0  0  0
   -2.5020   -1.4847    0.4075 H   0  0  0  0  0  0  0  0  0  0  0  0
   -2.9468   -0.5522    2.4852 H   0  0  0  0  0  0  0  0  0  0  0  0
   -2.8622   -0.9611    6.4402 H   0  0  0  0  0  0  0  0  0  0  0  0
   -2.2685   -2.9084    5.3063 H   0  0  0  0  0  0  0  0  0  0  0  0
    0.1942    0.1432    4.5063 H   0  0  0  0  0  0  0  0  0  0  0  0
    2.2003    1.4371    4.8807 H   0  0  0  0  0  0  0  0  0  0  0  0
    2.2787    3.1315    4.3300 H   0  0  0  0  0  0  0  0  0  0  0  0
    0.7018    2.3980    4.7101 H   0  0  0  0  0  0  0  0  0  0  0  0
    2.1604    0.3062   -1.3284 H   0  0  0  0  0  0  0  0  0  0  0  0
    1.9652    2.0739   -1.3928 H   0  0  0  0  0  0  0  0  0  0  0  0
    0.5274    1.0305   -1.2611 H   0  0  0  0  0  0  0  0  0  0  0  0
    0.7580   -1.1510   -0.2556 H   0  0  0  0  0  0  0  0  0  0  0  0
    0.1570   -3.2383   -0.6038 H   0  0  0  0  0  0  0  0  0  0  0  0
   -1.5334   -5.4310    0.7022 H   0  0  0  0  0  0  0  0  0  0  0  0
   -2.3909   -7.4279    0.0964 H   0  0  0  0  0  0  0  0  0  0  0  0
   -4.3842  -10.3641    0.8318 H   0  0  0  0  0  0  0  0  0  0  0  0
   -2.9128   -9.4282    1.1968 H   0  0  0  0  0  0  0  0  0  0  0  0
   -4.3661   -8.6023    0.5668 H   0  0  0  0  0  0  0  0  0  0  0  0
   -2.8037  -10.2174   -5.2362 H   0  0  0  0  0  0  0  0  0  0  0  0
   -1.3507  -11.0560   -4.6206 H   0  0  0  0  0  0  0  0  0  0  0  0
   -2.9344  -11.8706   -4.5855 H   0  0  0  0  0  0  0  0  0  0  0  0
   -1.1513   -8.7274   -4.5334 H   0  0  0  0  0  0  0  0  0  0  0  0
    0.3643   -7.4493   -5.2922 H   0  0  0  0  0  0  0  0  0  0  0  0
    1.6632   -6.0793   -6.5478 H   0  0  0  0  0  0  0  0  0  0  0  0
    3.3350   -5.1365   -7.4531 H   0  0  0  0  0  0  0  0  0  0  0  0
    5.5075   -5.5640   -8.1815 H   0  0  0  0  0  0  0  0  0  0  0  0
    4.3381   -5.5299   -9.5322 H   0  0  0  0  0  0  0  0  0  0  0  0
    6.0577   -5.1731   -9.8300 H   0  0  0  0  0  0  0  0  0  0  0  0
    3.9206    0.6684   -9.0000 H   0  0  0  0  0  0  0  0  0  0  0  0
    5.0968    0.6285   -7.6547 H   0  0  0  0  0  0  0  0  0  0  0  0
    5.6673    0.6001   -9.3419 H   0  0  0  0  0  0  0  0  0  0  0  0
    2.9932   -0.2009   -7.0365 H   0  0  0  0  0  0  0  0  0  0  0  0
    1.3995    0.4184   -5.6282 H   0  0  0  0  0  0  0  0  0  0  0  0
   -0.7123   -0.9072   -3.8601 H   0  0  0  0  0  0  0  0  0  0  0  0
    1.8783    2.1322   -4.7973 H   0  0  0  0  0  0  0  0  0  0  0  0
    4.5003    4.3832   -5.8252 H   0  0  0  0  0  0  0  0  0  0  0  0
    4.0000    3.0529   -4.7512 H   0  0  0  0  0  0  0  0  0  0  0  0
    3.2291    3.2523   -6.3519 H   0  0  0  0  0  0  0  0  0  0  0  0
   -0.6191    7.5711   -4.0660 H   0  0  0  0  0  0  0  0  0  0  0  0
    0.1677    7.4236   -2.4683 H   0  0  0  0  0  0  0  0  0  0  0  0
    0.9015    8.4381   -3.7354 H   0  0  0  0  0  0  0  0  0  0  0  0
   -1.1881    5.5810   -2.9746 H   0  0  0  0  0  0  0  0  0  0  0  0
   -3.0100    4.7356   -2.0846 H   0  0  0  0  0  0  0  0  0  0  0  0
   -4.2852    2.0152   -1.5119 H   0  0  0  0  0  0  0  0  0  0  0  0
   -4.9197    3.6659   -1.0203 H   0  0  0  0  0  0  0  0  0  0  0  0
  1  2  1  0  0  0  0
  1  3  2  0  0  0  0
  3  4  1  0  0  0  0
  4  5  2  0  0  0  0
  5  6  1  0  0  0  0
  6  7  1  0  0  0  0
  5  8  1  0  0  0  0
  8  9  1  0  0  0  0
  9 10  1  0  0  0  0
  8 11  2  0  0  0  0
 11 12  1  0  0  0  0
 12 13  2  0  0  0  0
 13 14  1  0  0  0  0
 14 15  2  0  0  0  0
 15 16  1  0  0  0  0
 16 17  1  0  0  0  0
 16 18  2  0  0  0  0
 18 19  1  0  0  0  0
 19 20  2  0  0  0  0
 20 21  1  0  0  0  0
 21 22  1  0  0  0  0
 20 23  1  0  0  0  0
 23 24  1  0  0  0  0
 24 25  1  0  0  0  0
 23 26  2  0  0  0  0
 26 27  1  0  0  0  0
 27 28  2  0  0  0  0
 28 29  1  0  0  0  0
 29 30  2  0  0  0  0
 30 31  1  0  0  0  0
 31 32  1  0  0  0  0
 31 33  2  0  0  0  0
 33 34  1  0  0  0  0
 34 35  2  0  0  0  0
 35 36  1  0  0  0  0
 36 37  1  0  0  0  0
 35 38  1  0  0  0  0
 38 39  1  0  0  0  0
 39 40  1  0  0  0  0
 38 41  2  0  0  0  0
 41 42  1  0  0  0  0
 42 43  2  0  0  0  0
 43 44  1  0  0  0  0
 44 45  2  0  0  0  0
 45 46  1  0  0  0  0
 46 47  1  0  0  0  0
 46 48  2  0  0  0  0
 48 49  1  0  0  0  0
 49 50  2  0  0  0  0
 50 51  1  0  0  0  0
 51 52  1  0  0  0  0
 50 53  1  0  0  0  0
 53 54  1  0  0  0  0
 54 55  1  0  0  0  0
 53 56  2  0  0  0  0
 56 57  1  0  0  0  0
 57 58  2  0  0  0  0
 58 59  1  0  0  0  0
 59 60  2  0  0  0  0
 60 61  1  0  0  0  0
 61 62  1  0  0  0  0
 61 63  2  0  0  0  0
 63 64  1  0  0  0  0
 64 65  2  0  0  0  0
 65 66  1  0  0  0  0
 66 67  1  0  0  0  0
 65 68  1  0  0  0  0
 68 69  1  0  0  0  0
 69 70  1  0  0  0  0
 68 71  2  0  0  0  0
 71 72  1  0  0  0  0
 72 73  2  0  0  0  0
 73 74  1  0  0  0  0
 74 75  2  0  0  0  0
 75 76  1  0  0  0  0
 76 77  1  0  0  0  0
 76 78  2  0  0  0  0
 78 79  1  0  0  0  0
 79 80  2  0  0  0  0
 80 81  1  0  0  0  0
 81 82  1  0  0  0  0
 80 83  1  0  0  0  0
 83 84  1  0  0  0  0
 84 85  1  0  0  0  0
 83 86  2  0  0  0  0
 86 87  1  0  0  0  0
 87 88  2  0  0  0  0
 88 89  1  0  0  0  0
 89 90  2  0  0  0  0
 13  2  1  0  0  0  0
 28 17  1  0  0  0  0
 43 32  1  0  0  0  0
 58 47  1  0  0  0  0
 73 62  1  0  0  0  0
 88 77  1  0  0  0  0
 12  3  1  0  0  0  0
 27 18  1  0  0  0  0
 42 33  1  0  0  0  0
 57 48  1  0  0  0  0
 72 63  1  0  0  0  0
 87 78  1  0  0  0  0
  1 91  1  0  0  0  0
  4 92  1  0  0  0  0
  7 93  1  0  0  0  0
  7 94  1  0  0  0  0
  7 95  1  0  0  0  0
 10 96  1  0  0  0  0
 10 97  1  0  0  0  0
 10 98  1  0  0  0  0
 11 99  1  0  0  0  0
 14100  1  0  0  0  0
 15101  1  0  0  0  0
 19102  1  0  0  0  0
 22103  1  0  0  0  0
 22104  1  0  0  0  0
 22105  1  0  0  0  0
 25106  1  0  0  0  0
 25107  1  0  0  0  0
 25108  1  0  0  0  0
 26109  1  0  0  0  0
 29110  1  0  0  0  0
 30111  1  0  0  0  0
 34112  1  0  0  0  0
 37113  1  0  0  0  0
 37114  1  0  0  0  0
 37115  1  0  0  0  0
 40116  1  0  0  0  0
 40117  1  0  0  0  0
 40118  1  0  0  0  0
 41119  1  0  0  0  0
 44120  1  0  0  0  0
 45121  1  0  0  0  0
 49122  1  0  0  0  0
 52123  1  0  0  0  0
 52124  1  0  0  0  0
 52125  1  0  0  0  0
 55126  1  0  0  0  0
 55127  1  0  0  0  0
 55128  1  0  0  0  0
 56129  1  0  0  0  0
 59130  1  0  0  0  0
 60131  1  0  0  0  0
 64132  1  0  0  0  0
 67133  1  0  0  0  0
 67134  1  0  0  0  0
 67135  1  0  0  0  0
 70136  1  0  0  0  0
 70137  1  0  0  0  0
 70138  1  0  0  0  0
 71139  1  0  0  0  0
 74140  1  0  0  0  0
 75141  1  0  0  0  0
 79142  1  0  0  0  0
 82143  1  0  0  0  0
 82144  1  0  0  0  0
 82145  1  0  0  0  0
 85146  1  0  0  0  0
 85147  1  0  0  0  0
 85148  1  0  0  0  0
 86149  1  0  0  0  0
 89150  1  0  0  0  0
 90151  1  0  0  0  0
 90152  1  0  0  0  0
M  END
