108

C          6.61430        3.65230        3.75950
S          4.97800        4.16840        3.67950
C          4.43880        2.58020        3.25050
C          5.50910        1.70520        3.16550
C          6.75900        2.32750        3.46320
O          7.90350        1.61380        3.44110
C          9.09460        2.30490        3.73600
C          5.39420        0.26760        2.78970
F          6.56340       -0.35310        2.63100
F          4.73580        0.07910        1.61880
F          4.71500       -0.46270        3.70200
C          3.04580        2.37810        3.02660
S          2.28560        0.83670        2.82970
C          0.74420        1.56130        2.52970
C          0.80940        2.94270        2.66000
C          2.11880        3.40590        2.93180
O          2.48780        4.69970        3.12640
C          2.49730        5.53390        1.97500
C         -0.38390        3.83290        2.61330
F         -0.85850        4.03700        1.35760
F         -0.16740        5.05350        3.11260
F         -1.42700        3.34490        3.31440
C         -0.32450        0.70210        2.16700
S         -1.84900        1.20340        1.52190
C         -2.41100       -0.43420        1.33200
C         -1.44580       -1.32300        1.81280
C         -0.25740       -0.68380        2.22850
O          0.86510       -1.27780        2.70740
C          1.58980       -2.11540        1.81740
C         -1.65940       -2.78670        1.99510
F         -0.88910       -3.30750        2.95950
F         -1.39150       -3.52110        0.88580
F         -2.91960       -3.09240        2.34960
C         -3.59530       -0.69290        0.60760
S         -3.85930       -2.25720       -0.10490
C         -4.54470        0.22030        0.11490
C         -4.73280        1.56070        0.49760
C         -5.67640        2.33080       -0.13070
O         -5.93180        3.62560        0.15130
C         -5.14160        4.26760        1.12690
C         -6.49250        1.77370       -1.17870
O         -7.38390        2.64320       -1.71200
C         -8.23630        2.18460       -2.73180
C         -6.33560        0.46660       -1.54900
C         -5.37110       -0.33780       -0.90530
C         -5.04080       -1.66050       -1.21070
C         -5.53460       -2.48920       -2.26660
C         -4.79570       -3.38360       -2.96950
C         -3.37520       -3.52060       -2.95860
S         -2.32060       -2.17800       -2.66140
C         -2.62490       -4.67110       -3.22430
C         -3.11990       -5.95700       -3.52940
C         -2.25060       -6.99490       -3.72070
O         -2.59860       -8.26770       -4.02700
C         -3.96460       -8.57730       -4.14800
C         -0.82970       -6.78760       -3.59730
O         -0.08840       -7.90030       -3.81170
C          1.30970       -7.80720       -3.68930
C         -0.33590       -5.55060       -3.28600
C         -1.21870       -4.46820       -3.09600
C         -0.88830       -3.15310       -2.74710
C          0.37220       -2.60110       -2.43080
C          0.53860       -1.36960       -1.88810
C          1.78680       -0.75080       -1.61700
S          3.32500       -1.48870       -1.95900
C          4.17260       -0.08470       -1.48240
C          3.33230        0.90460       -1.05740
C          1.96170        0.52930       -1.11050
O          0.91250        1.27350       -0.65310
C          0.48380        2.33760       -1.49010
C          3.83320        2.25430       -0.68290
F          3.92620        3.06940       -1.76380
F          5.06010        2.23770       -0.14380
F          3.04710        2.90860        0.18200
H          7.37370        4.36220        4.01280
H          9.88830        1.56420        3.66370
H          9.27510        3.10920        3.01630
H          9.07140        2.72170        4.74770
H          3.32700        5.26580        1.31630
H          2.63350        6.54570        2.34860
H          1.56310        5.46960        1.41490
H          2.43380       -2.48050        2.39720
H          1.95310       -1.54010        0.96190
H          0.99610       -2.95760        1.45990
H         -4.14810        1.96480        1.30460
H         -5.27790        3.81640        2.11420
H         -5.48810        5.29910        1.15000
H         -4.08050        4.24260        0.86170
H         -8.87790        1.36910       -2.38210
H         -7.67080        1.85120       -3.60820
H         -8.85450        3.03820       -3.00420
H         -6.93970        0.02510       -2.32390
H         -6.58630       -2.39130       -2.50430
H         -5.31810       -4.05150       -3.64360
H         -4.18490       -6.09870       -3.60530
H         -4.00540       -9.63880       -4.38610
H         -4.50210       -8.39420       -3.21180
H         -4.43610       -8.00650       -4.95500
H          1.68880       -8.80760       -3.89000
H          1.73090       -7.10660       -4.41790
H          1.60450       -7.50250       -2.68010
H          0.72280       -5.38240       -3.18190
H          1.24410       -3.21360       -2.61870
H         -0.32960       -0.76740       -1.65180
H          5.24260       -0.05810       -1.51730
H          0.06910        1.94830       -2.42550
H          1.29640        3.03090       -1.71970
H         -0.29040        2.85700       -0.92970
