227

C          8.86710       13.16820        3.99930
S          9.45090       14.06400        2.67110
C          7.67510       12.54230        3.71770
C          6.91490       11.70610        4.57400
C          5.75240       11.15690        4.12390
O          4.93700       10.33700        4.83260
C          5.26450       10.07550        6.17590
C          5.26930       11.46120        2.79680
O          4.08980       10.86150        2.49040
C          3.52990       11.09430        1.22280
C          5.97360       12.28620        1.96960
C          7.22510       12.80370        2.38320
C          8.12340       13.57850        1.65470
C          8.13170       14.01940        0.29040
C          7.70950       13.36150       -0.81010
C          7.24850       12.00600       -0.89180
C          6.38340       11.49220       -1.81500
C          6.02360       10.13960       -1.57610
C          5.05710        9.36520       -2.23870
C          4.39430        9.84560       -3.45650
C          3.00660        9.82130       -3.58270
C          2.39980       10.25220       -4.74310
C          3.14750       10.72540       -5.81840
S          2.26990       11.28820       -7.24970
C          3.21440       10.55130       -8.63520
C          3.26740        9.03980       -8.53950
C          4.53010       10.77130       -5.66810
F          5.31710       11.25340       -6.65550
C          5.15220       10.33220       -4.51740
C          4.75500        8.13230       -1.67730
C          5.34640        7.65360       -0.48150
C          6.31160        8.43010        0.18220
C          6.80760        8.11080        1.52440
C          5.90560        7.80200        2.54240
C          6.34080        7.63640        3.83960
C          7.68380        7.78760        4.17320
S          8.13990        7.66700        5.88420
C          9.59940        6.56450        5.85030
C          9.26380        5.21180        5.25570
C          8.57280        8.09790        3.15050
C          8.15530        8.24300        1.84350
F          9.88660        8.27280        3.41130
C          6.66520        9.62820       -0.41960
S          7.78700       10.78160        0.24210
C          4.85970        6.37180       -0.12460
C          3.93150        5.87870       -0.99540
S          3.61130        6.98320       -2.31690
C          3.22180        4.64150       -0.91640
C          3.43130        3.60630       -0.05190
C          2.51270        2.53800       -0.21110
C          2.43290        1.34090        0.52230
C          3.33700        1.06000        1.64440
C          4.00650       -0.15860        1.73880
C          4.84650       -0.41930        2.80100
C          5.04600        0.51830        3.80970
S          6.10750        0.08590        5.16260
C          7.20740        1.54600        5.27250
C          7.97770        1.75990        3.98470
C          4.35370        1.72130        3.71660
F          4.47570        2.66140        4.67960
C          3.52120        2.00190        2.65270
C          1.43770        0.44880        0.15320
C          0.50520        0.71180       -0.88130
C          0.58230        1.90740       -1.61290
C         -0.38000        2.21270       -2.67860
C         -1.75350        2.12500       -2.45320
C         -2.64920        2.38740       -3.46610
C         -2.21730        2.75320       -4.74110
S         -3.46050        3.07340       -5.95150
C         -2.67660        2.56320       -7.53430
C         -3.76550        2.19890       -8.52400
C         -0.84560        2.87780       -4.93950
C          0.06300        2.60410       -3.93710
F         -0.34920        3.27390       -6.13340
C          1.59880        2.78380       -1.26670
S          1.88280        4.33730       -2.00220
C         -0.42640       -0.34470       -1.03530
C         -0.24880       -1.36560       -0.15060
S          1.11180       -1.08580        0.92050
C         -1.04580       -2.53870       -0.01690
C         -0.82270       -3.62980        0.76900
C         -1.84930       -4.60430        0.69650
C         -1.90860       -5.84970        1.35030
C         -0.88220       -6.26330        2.31320
C         -0.48040       -5.41350        3.34000
C          0.46890       -5.80290        4.26530
C          1.05260       -7.06320        4.19700
S          2.26710       -7.68930        5.30400
C          2.58350       -6.28170        6.43290
C          3.66080       -6.68620        7.42140
C          0.63510       -7.90800        3.16600
F          1.17840       -9.13950        3.07200
C         -0.30820       -7.53160        2.23860
C         -2.99720       -6.65270        1.05370
C         -4.03610       -6.25740        0.17390
C         -3.98360       -5.01070       -0.47570
C         -5.05130       -4.59250       -1.39050
C         -5.54430       -5.45190       -2.37410
C         -6.57400       -5.06130       -3.19860
C         -7.15010       -3.79180       -3.10450
S         -8.43130       -3.46770       -4.27940
C         -9.26040       -1.90520       -3.81560
C        -10.11020       -2.03770       -2.56780
C         -6.62610       -2.93440       -2.14470
C         -5.60990       -3.32390       -1.29430
F         -7.09170       -1.67200       -1.98880
C         -2.88300       -4.21680       -0.19350
S         -2.55240       -2.65950       -0.90680
C         -5.06390       -7.21950        0.10700
C         -4.84340       -8.33860        0.86670
S         -3.32820       -8.22440        1.74480
C         -5.71440       -9.45410        0.91230
S         -7.02370       -9.46200       -0.22700
C         -5.77250      -10.58200        1.73310
C         -4.88610      -10.93850        2.77020
C         -5.09730      -12.08340        3.48660
O         -4.31400      -12.53130        4.49610
C         -3.17590      -11.77840        4.84060
C         -6.22920      -12.92520        3.19400
O         -6.32350      -14.02330        3.98520
C         -7.39700      -14.90570        3.77700
C         -7.09910      -12.59100        2.19390
C         -6.89080      -11.41890        1.43540
C         -7.68480      -10.93680        0.38660
C         -8.78940      -11.58200       -0.23570
C         -9.59280      -11.08050       -1.20150
C         -9.64060       -9.71420       -1.65070
S         -9.85140       -8.39540       -0.54450
C         -9.59860       -9.24690       -2.95900
C         -9.44370      -10.02130       -4.13270
C         -9.36560       -9.40350       -5.34680
O         -9.22900      -10.02870       -6.54430
C         -9.17220      -11.43210       -6.55820
C         -9.42540       -7.96400       -5.43970
O         -9.32710       -7.48840       -6.70670
C         -9.40100       -6.09780       -6.90400
C         -9.56770       -7.20130       -4.31690
C         -9.65810       -7.82180       -3.04880
C         -9.78820       -7.20690       -1.80670
C         -9.85380       -5.80850       -1.52040
C         -9.91380       -5.27840       -0.29830
H          9.43290       13.13400        4.90870
H          7.28750       11.51670        5.56710
H          4.46640        9.43920        6.55440
H          5.30200       10.99830        6.76370
H          6.22060        9.55000        6.26510
H          3.28460       12.15150        1.07780
H          2.61450       10.50560        1.19280
H          4.19700       10.76640        0.41840
H          5.60050       12.55220        0.99410
H          8.56540       15.00140        0.14120
H          7.70870       13.89550       -1.75210
H          5.94640       12.08710       -2.59750
H          2.39970        9.47070       -2.76240
H          1.32570       10.22850       -4.83890
H          2.65900       10.87160       -9.51660
H          4.20740       10.99440       -8.66190
H          3.81100        8.72580       -7.65000
H          3.77400        8.63490       -9.41330
H          2.26300        8.62430       -8.49330
H          6.22940       10.36540       -4.46090
H          4.85230        7.73010        2.32140
H          5.63690        7.40570        4.62330
H         10.40330        7.05990        5.31040
H          9.87680        6.47610        6.90050
H          8.43950        4.75200        5.79760
H         10.13320        4.55940        5.31740
H          8.97820        5.31230        4.20930
H          8.89090        8.46710        1.08700
H          5.19850        5.83680        0.74350
H          4.23030        3.59690        0.66610
H          3.88690       -0.89640        0.96090
H          5.36960       -1.36050        2.86570
H          7.87650        1.30220        6.09720
H          6.61220        2.41550        5.54290
H          8.67840        2.58300        4.10530
H          8.53370        0.86260        3.72140
H          7.30170        1.99880        3.16510
H          2.99000        2.94120        2.64040
H         -2.11820        1.86040       -1.47250
H         -3.71080        2.31030       -3.29010
H         -2.07020        3.39000       -7.90100
H         -2.04090        1.70630       -7.31680
H         -3.31650        1.89200       -9.46630
H         -4.37140        1.38070       -8.14140
H         -4.41460        3.05180       -8.70840
H          1.11540        2.69280       -4.15730
H         -1.19900       -0.35640       -1.78300
H          0.06560       -3.73860        1.36550
H         -0.93620       -4.43950        3.43450
H          0.74670       -5.11440        5.04630
H          1.65210       -6.04600        6.94820
H          2.90730       -5.43330        5.83000
H          4.57870       -6.94510        6.89900
H          3.34060       -7.54800        8.00240
H          3.86610       -5.86200        8.10120
H         -0.57490       -8.22120        1.45370
H         -5.10320       -6.42770       -2.50470
H         -6.95500       -5.74210       -3.94450
H         -8.50800       -1.12630       -3.72110
H         -9.87990       -1.69340       -4.68830
H        -10.85320       -2.82330       -2.68880
H        -10.62420       -1.09750       -2.37870
H         -9.49490       -2.26990       -1.70250
H         -5.27400       -2.61960       -0.54950
H         -5.96590       -7.08580       -0.46220
H         -4.04790      -10.29640        2.98020
H         -2.47840      -11.69620        4.00110
H         -3.44700      -10.77450        5.18270
H         -2.69980      -12.32210        5.65460
H         -8.36110      -14.41080        3.93500
H         -7.27360      -15.69810        4.51320
H         -7.37240      -15.33870        2.77130
H         -7.95280      -13.20890        1.97100
H         -8.93480      -12.61450        0.05390
H        -10.26890      -11.76180       -1.70530
H         -9.39170      -11.09340       -4.03700
H         -9.07020      -11.71290       -7.60510
H         -8.30960      -11.80580       -5.99630
H        -10.08750      -11.87530       -6.15130
H        -10.35850       -5.69430       -6.55930
H         -9.31170       -5.94890       -7.97860
H         -8.58820       -5.57020       -6.39470
H         -9.60820       -6.12680       -4.37770
H         -9.83900       -5.16480       -2.38880
H         -9.95980       -4.21560       -0.14190
H         -9.92270       -5.89900        0.58230
