
  xtb     03052203073D
 energy: -176.666558560596 gnorm: 0.000251944797 xtb: 6.4.1 (unknown)
107118  0     0  0            999 V2000
   16.0196   -2.6439    3.2476 C   0  0  0  0  0  0  0  0  0  0  0  0
   15.1164   -3.4507    2.6282 C   0  0  0  0  0  0  0  0  0  0  0  0
   15.3944   -4.8137    2.0816 C   0  0  0  0  0  0  0  0  0  0  0  0
   15.3057   -4.8228    0.5556 C   0  0  0  0  0  0  0  0  0  0  0  0
   13.8602   -2.8032    2.5502 C   0  0  0  0  0  0  0  0  0  0  0  0
   13.8338   -1.5336    3.1128 C   0  0  0  0  0  0  0  0  0  0  0  0
   15.3846   -1.1105    3.7524 S   0  0  0  0  0  0  0  0  0  0  0  0
   12.5854   -0.8958    3.0474 C   0  0  0  0  0  0  0  0  0  0  0  0
   11.6474   -1.6792    2.4215 C   0  0  0  0  0  0  0  0  0  0  0  0
   12.3118   -3.2278    1.9179 S   0  0  0  0  0  0  0  0  0  0  0  0
   10.2678   -1.4169    2.1553 C   0  0  0  0  0  0  0  0  0  0  0  0
    9.6162   -0.2068    2.0091 C   0  0  0  0  0  0  0  0  0  0  0  0
   10.3037    1.1239    2.0542 C   0  0  0  0  0  0  0  0  0  0  0  0
    9.6190    2.1951    1.2127 C   0  0  0  0  0  0  0  0  0  0  0  0
    8.2435   -0.4156    1.7692 C   0  0  0  0  0  0  0  0  0  0  0  0
    7.8587   -1.7543    1.7129 C   0  0  0  0  0  0  0  0  0  0  0  0
    9.2012   -2.8029    1.9712 S   0  0  0  0  0  0  0  0  0  0  0  0
    6.4999   -1.9622    1.4671 C   0  0  0  0  0  0  0  0  0  0  0  0
    5.8082   -0.7797    1.3330 C   0  0  0  0  0  0  0  0  0  0  0  0
    6.8683    0.6073    1.5200 S   0  0  0  0  0  0  0  0  0  0  0  0
    4.4147   -0.6611    1.0684 C   0  0  0  0  0  0  0  0  0  0  0  0
    3.6102    0.4516    0.9140 C   0  0  0  0  0  0  0  0  0  0  0  0
    4.0134    1.8859    1.0361 C   0  0  0  0  0  0  0  0  0  0  0  0
    4.0052    2.3364    2.4977 C   0  0  0  0  0  0  0  0  0  0  0  0
    2.2832    0.0705    0.6502 C   0  0  0  0  0  0  0  0  0  0  0  0
    2.0569   -1.3013    0.5896 C   0  0  0  0  0  0  0  0  0  0  0  0
    3.5176   -2.1727    0.8768 S   0  0  0  0  0  0  0  0  0  0  0  0
    0.7359   -1.6536    0.3082 C   0  0  0  0  0  0  0  0  0  0  0  0
   -0.0752   -0.5497    0.1582 C   0  0  0  0  0  0  0  0  0  0  0  0
    0.8205    0.9478    0.3663 S   0  0  0  0  0  0  0  0  0  0  0  0
   -1.4598   -0.5801   -0.1687 C   0  0  0  0  0  0  0  0  0  0  0  0
   -2.4155    0.4173   -0.1761 C   0  0  0  0  0  0  0  0  0  0  0  0
   -2.2259    1.8574    0.1749 C   0  0  0  0  0  0  0  0  0  0  0  0
   -1.8775    2.6816   -1.0656 C   0  0  0  0  0  0  0  0  0  0  0  0
   -3.6583   -0.0872   -0.5969 C   0  0  0  0  0  0  0  0  0  0  0  0
   -3.6763   -1.4448   -0.9032 C   0  0  0  0  0  0  0  0  0  0  0  0
   -2.1168   -2.1448   -0.6659 S   0  0  0  0  0  0  0  0  0  0  0  0
   -4.9193   -1.9297   -1.3179 C   0  0  0  0  0  0  0  0  0  0  0  0
   -5.8740   -0.9365   -1.3434 C   0  0  0  0  0  0  0  0  0  0  0  0
   -5.2228    0.6145   -0.8240 S   0  0  0  0  0  0  0  0  0  0  0  0
   -7.2435   -1.0256   -1.7084 C   0  0  0  0  0  0  0  0  0  0  0  0
   -8.3755    0.1111   -1.0532 S   0  0  0  0  0  0  0  0  0  0  0  0
   -7.8844   -1.9263   -2.5633 C   0  0  0  0  0  0  0  0  0  0  0  0
   -7.3006   -2.9356   -3.3604 C   0  0  0  0  0  0  0  0  0  0  0  0
   -8.0864   -3.7201   -4.1563 C   0  0  0  0  0  0  0  0  0  0  0  0
   -7.6419   -4.7125   -4.9677 O   0  0  0  0  0  0  0  0  0  0  0  0
   -6.2609   -4.9700   -5.0131 C   0  0  0  0  0  0  0  0  0  0  0  0
   -9.5127   -3.5246   -4.1915 C   0  0  0  0  0  0  0  0  0  0  0  0
  -10.1714   -4.3835   -5.0097 O   0  0  0  0  0  0  0  0  0  0  0  0
  -11.5667   -4.2598   -5.1210 C   0  0  0  0  0  0  0  0  0  0  0  0
  -10.0885   -2.5262   -3.4583 C   0  0  0  0  0  0  0  0  0  0  0  0
   -9.2910   -1.7012   -2.6349 C   0  0  0  0  0  0  0  0  0  0  0  0
   -9.7201   -0.6116   -1.8691 C   0  0  0  0  0  0  0  0  0  0  0  0
  -11.0707   -0.2238   -1.6411 C   0  0  0  0  0  0  0  0  0  0  0  0
  -11.5517    0.9293   -1.1287 C   0  0  0  0  0  0  0  0  0  0  0  0
  -10.8615    2.1641   -0.8865 C   0  0  0  0  0  0  0  0  0  0  0  0
  -11.1365    3.0516    0.1307 C   0  0  0  0  0  0  0  0  0  0  0  0
  -12.0757    2.7846    1.2624 C   0  0  0  0  0  0  0  0  0  0  0  0
  -11.4771    1.7775    2.2454 C   0  0  0  0  0  0  0  0  0  0  0  0
  -10.3463    4.2109    0.0177 C   0  0  0  0  0  0  0  0  0  0  0  0
   -9.5039    4.2340   -1.0868 C   0  0  0  0  0  0  0  0  0  0  0  0
   -9.6647    2.7890   -2.0169 S   0  0  0  0  0  0  0  0  0  0  0  0
   -8.7323    5.4079   -1.1887 C   0  0  0  0  0  0  0  0  0  0  0  0
   -8.9974    6.2573   -0.1630 C   0  0  0  0  0  0  0  0  0  0  0  0
  -10.1829    5.6594    0.9492 S   0  0  0  0  0  0  0  0  0  0  0  0
   17.0499   -2.8590    3.4524 H   0  0  0  0  0  0  0  0  0  0  0  0
   16.3881   -5.1341    2.3987 H   0  0  0  0  0  0  0  0  0  0  0  0
   14.6596   -5.5142    2.4870 H   0  0  0  0  0  0  0  0  0  0  0  0
   16.0232   -4.1246    0.1301 H   0  0  0  0  0  0  0  0  0  0  0  0
   14.3081   -4.5347    0.2326 H   0  0  0  0  0  0  0  0  0  0  0  0
   15.5191   -5.8176    0.1726 H   0  0  0  0  0  0  0  0  0  0  0  0
   12.3835    0.0648    3.4799 H   0  0  0  0  0  0  0  0  0  0  0  0
   10.3567    1.4651    3.0934 H   0  0  0  0  0  0  0  0  0  0  0  0
   11.3276    0.9887    1.6973 H   0  0  0  0  0  0  0  0  0  0  0  0
    8.6520    2.4637    1.6299 H   0  0  0  0  0  0  0  0  0  0  0  0
    9.4728    1.8457    0.1934 H   0  0  0  0  0  0  0  0  0  0  0  0
   10.2376    3.0892    1.1853 H   0  0  0  0  0  0  0  0  0  0  0  0
    6.0384   -2.9296    1.3895 H   0  0  0  0  0  0  0  0  0  0  0  0
    5.0056    2.0393    0.6089 H   0  0  0  0  0  0  0  0  0  0  0  0
    3.2993    2.4894    0.4706 H   0  0  0  0  0  0  0  0  0  0  0  0
    4.2856    3.3841    2.5677 H   0  0  0  0  0  0  0  0  0  0  0  0
    3.0122    2.2123    2.9238 H   0  0  0  0  0  0  0  0  0  0  0  0
    4.7091    1.7494    3.0823 H   0  0  0  0  0  0  0  0  0  0  0  0
    0.3790   -2.6632    0.2181 H   0  0  0  0  0  0  0  0  0  0  0  0
   -3.1616    2.2296    0.5996 H   0  0  0  0  0  0  0  0  0  0  0  0
   -1.4397    1.9671    0.9231 H   0  0  0  0  0  0  0  0  0  0  0  0
   -2.6700    2.5983   -1.8059 H   0  0  0  0  0  0  0  0  0  0  0  0
   -0.9486    2.3303   -1.5082 H   0  0  0  0  0  0  0  0  0  0  0  0
   -1.7598    3.7283   -0.7979 H   0  0  0  0  0  0  0  0  0  0  0  0
   -5.1186   -2.9615   -1.5346 H   0  0  0  0  0  0  0  0  0  0  0  0
   -6.2310   -3.0499   -3.3536 H   0  0  0  0  0  0  0  0  0  0  0  0
   -5.8763   -5.2757   -4.0343 H   0  0  0  0  0  0  0  0  0  0  0  0
   -5.6997   -4.0984   -5.3660 H   0  0  0  0  0  0  0  0  0  0  0  0
   -6.1375   -5.7887   -5.7199 H   0  0  0  0  0  0  0  0  0  0  0  0
  -11.8777   -5.0438   -5.8093 H   0  0  0  0  0  0  0  0  0  0  0  0
  -12.0617   -4.4078   -4.1553 H   0  0  0  0  0  0  0  0  0  0  0  0
  -11.8527   -3.2846   -5.5290 H   0  0  0  0  0  0  0  0  0  0  0  0
  -11.1491   -2.3440   -3.5042 H   0  0  0  0  0  0  0  0  0  0  0  0
  -11.7937   -0.9992   -1.8628 H   0  0  0  0  0  0  0  0  0  0  0  0
  -12.6072    0.9589   -0.8825 H   0  0  0  0  0  0  0  0  0  0  0  0
  -13.0202    2.3931    0.8758 H   0  0  0  0  0  0  0  0  0  0  0  0
  -12.2784    3.7251    1.7787 H   0  0  0  0  0  0  0  0  0  0  0  0
  -12.1661    1.5952    3.0665 H   0  0  0  0  0  0  0  0  0  0  0  0
  -10.5437    2.1584    2.6530 H   0  0  0  0  0  0  0  0  0  0  0  0
  -11.2733    0.8350    1.7419 H   0  0  0  0  0  0  0  0  0  0  0  0
   -8.0260    5.6062   -1.9734 H   0  0  0  0  0  0  0  0  0  0  0  0
   -8.5647    7.2203    0.0225 H   0  0  0  0  0  0  0  0  0  0  0  0
  1  2  2  0  0  0  0
  2  3  1  0  0  0  0
  3  4  1  0  0  0  0
  2  5  1  0  0  0  0
  5  6  2  0  0  0  0
  6  7  1  0  0  0  0
  6  8  1  0  0  0  0
  8  9  2  0  0  0  0
  9 10  1  0  0  0  0
  9 11  1  0  0  0  0
 11 12  2  0  0  0  0
 12 13  1  0  0  0  0
 13 14  1  0  0  0  0
 12 15  1  0  0  0  0
 15 16  2  0  0  0  0
 16 17  1  0  0  0  0
 16 18  1  0  0  0  0
 18 19  2  0  0  0  0
 19 20  1  0  0  0  0
 19 21  1  0  0  0  0
 21 22  2  0  0  0  0
 22 23  1  0  0  0  0
 23 24  1  0  0  0  0
 22 25  1  0  0  0  0
 25 26  2  0  0  0  0
 26 27  1  0  0  0  0
 26 28  1  0  0  0  0
 28 29  2  0  0  0  0
 29 30  1  0  0  0  0
 29 31  1  0  0  0  0
 31 32  2  0  0  0  0
 32 33  1  0  0  0  0
 33 34  1  0  0  0  0
 32 35  1  0  0  0  0
 35 36  2  0  0  0  0
 36 37  1  0  0  0  0
 36 38  1  0  0  0  0
 38 39  2  0  0  0  0
 39 40  1  0  0  0  0
 39 41  1  0  0  0  0
 41 42  1  0  0  0  0
 41 43  2  0  0  0  0
 43 44  1  0  0  0  0
 44 45  2  0  0  0  0
 45 46  1  0  0  0  0
 46 47  1  0  0  0  0
 45 48  1  0  0  0  0
 48 49  1  0  0  0  0
 49 50  1  0  0  0  0
 48 51  2  0  0  0  0
 51 52  1  0  0  0  0
 52 53  2  0  0  0  0
 53 54  1  0  0  0  0
 54 55  2  0  0  0  0
 55 56  1  0  0  0  0
 56 57  2  0  0  0  0
 57 58  1  0  0  0  0
 58 59  1  0  0  0  0
 57 60  1  0  0  0  0
 60 61  2  0  0  0  0
 61 62  1  0  0  0  0
 61 63  1  0  0  0  0
 63 64  2  0  0  0  0
 64 65  1  0  0  0  0
  7  1  1  0  0  0  0
 17 11  1  0  0  0  0
 27 21  1  0  0  0  0
 37 31  1  0  0  0  0
 53 42  1  0  0  0  0
 62 56  1  0  0  0  0
 10  5  1  0  0  0  0
 20 15  1  0  0  0  0
 30 25  1  0  0  0  0
 40 35  1  0  0  0  0
 52 43  1  0  0  0  0
 65 60  1  0  0  0  0
  1 66  1  0  0  0  0
  3 67  1  0  0  0  0
  3 68  1  0  0  0  0
  4 69  1  0  0  0  0
  4 70  1  0  0  0  0
  4 71  1  0  0  0  0
  8 72  1  0  0  0  0
 13 73  1  0  0  0  0
 13 74  1  0  0  0  0
 14 75  1  0  0  0  0
 14 76  1  0  0  0  0
 14 77  1  0  0  0  0
 18 78  1  0  0  0  0
 23 79  1  0  0  0  0
 23 80  1  0  0  0  0
 24 81  1  0  0  0  0
 24 82  1  0  0  0  0
 24 83  1  0  0  0  0
 28 84  1  0  0  0  0
 33 85  1  0  0  0  0
 33 86  1  0  0  0  0
 34 87  1  0  0  0  0
 34 88  1  0  0  0  0
 34 89  1  0  0  0  0
 38 90  1  0  0  0  0
 44 91  1  0  0  0  0
 47 92  1  0  0  0  0
 47 93  1  0  0  0  0
 47 94  1  0  0  0  0
 50 95  1  0  0  0  0
 50 96  1  0  0  0  0
 50 97  1  0  0  0  0
 51 98  1  0  0  0  0
 54 99  1  0  0  0  0
 55100  1  0  0  0  0
 58101  1  0  0  0  0
 58102  1  0  0  0  0
 59103  1  0  0  0  0
 59104  1  0  0  0  0
 59105  1  0  0  0  0
 63106  1  0  0  0  0
 64107  1  0  0  0  0
M  END
