112

C          2.29080        0.60400        3.59990
S          1.70170       -0.79350        4.38220
C          1.57150        0.89920        2.46510
C          1.81080        1.95590        1.55230
C          1.05700        2.05400        0.42300
O          1.18910        3.01270       -0.53180
C          2.20530        3.97170       -0.37340
C          0.03520        1.07380        0.14230
O         -0.57310        1.24710       -1.06270
C         -1.47290        0.26340       -1.50260
C         -0.24290        0.07710        1.03380
C          0.50120       -0.02700        2.23180
C          0.41670       -1.00400        3.22550
C         -0.49720       -2.05890        3.47480
C         -1.79480       -2.16110        3.09190
C         -2.61160       -3.25430        3.47750
S         -1.89980       -4.64360        4.23200
C         -3.99610       -3.42350        3.37430
C         -4.93310       -2.52910        2.81330
C         -6.26230       -2.84550        2.80520
O         -7.25430       -2.06980        2.29430
C         -6.90550       -0.83510        1.72260
C         -6.72030       -4.09050        3.36830
O         -8.06500       -4.27060        3.29650
C         -8.60620       -5.44630        3.84270
C         -5.82990       -4.97200        3.90980
C         -4.45030       -4.65990        3.93040
C         -3.41800       -5.45870        4.41200
C         -3.47860       -6.76040        5.03080
C         -2.53660       -7.70240        4.87700
C         -1.47620       -7.49730        3.88330
C         -0.15140       -7.15290        4.23160
N          0.41610       -7.22130        5.43450
S          1.88910       -6.58160        5.34500
N          1.87970       -6.17740        3.78830
C          0.71470       -6.53480        3.25640
C          0.28610       -6.32670        1.91820
C         -0.94570       -6.87010        1.58920
C         -1.80410       -7.41430        2.54510
C          1.00780       -5.43800        1.04560
C          0.80680       -5.34230       -0.28420
C          1.26000       -4.28170       -1.13700
C          1.83570       -3.07280       -0.65940
N          2.24390       -2.80420        0.58040
S          2.82250       -1.30810        0.63210
N          2.56980       -0.90820       -0.90190
C          2.02690       -1.94700       -1.53930
C          1.69990       -2.02860       -2.91940
C          1.26770       -3.27070       -3.36520
C          1.03230       -4.33960       -2.50720
C          1.75650       -0.91010       -3.82030
C          1.68880        0.37590       -3.42730
C          1.65970        1.51880       -4.29570
C          2.03000        1.49690       -5.66720
N          2.40940        0.44980       -6.39820
S          2.74250        0.94420       -7.89350
N          2.43140        2.50880       -7.69680
C          2.04220        2.71520       -6.43890
C          1.68610        3.96010       -5.86280
C          1.24600        3.91690       -4.55150
C          1.24790        2.74670       -3.79550
C          1.74080        5.16720       -6.66260
C          1.99820        6.41130       -6.23140
C          2.42800        6.80850       -4.90260
C          1.98190        8.03790       -4.35820
N          1.16860        8.92240       -4.93590
S          0.93350       10.14700       -3.92250
N          1.83650        9.62180       -2.70080
C          2.37660        8.44980       -3.03730
C          3.24110        7.65060       -2.24760
C          3.70350        6.49180       -2.84390
C          3.31400        6.08740       -4.12400
C          3.58110        8.09260       -0.90830
C          4.23430        7.38580        0.00920
H          3.13050        1.13220        4.00420
H          2.60470        2.65000        1.77250
H          2.14050        4.62400       -1.24340
H          3.19300        3.50020       -0.34540
H          2.05910        4.56590        0.53420
H         -0.99900       -0.72340       -1.54680
H         -1.76970        0.56420       -2.50610
H         -2.35960        0.21190       -0.86160
H         -0.98970       -0.66970        0.82210
H         -0.11530       -2.83330        4.13050
H         -2.26510       -1.37280        2.52280
H         -4.57790       -1.60010        2.39900
H         -6.23950       -0.96420        0.86240
H         -7.84130       -0.38950        1.38950
H         -6.42850       -0.17300        2.45310
H         -8.22550       -6.33890        3.33470
H         -8.39750       -5.52410        4.91500
H         -9.68160       -5.37520        3.68880
H         -6.15010       -5.91130        4.32930
H         -4.32840       -6.94180        5.67710
H         -2.55300       -8.61720        5.44980
H         -1.31590       -6.76600        0.58090
H         -2.80210       -7.69810        2.24250
H          1.69640       -4.76220        1.53120
H          0.20220       -6.08750       -0.78750
H          1.05030       -3.39040       -4.41690
H          0.62870       -5.25300       -2.92120
H          1.77520       -1.14400       -4.87600
H          1.60500        0.60140       -2.37400
H          0.89110        4.82790       -4.09340
H          0.90760        2.78770       -2.77220
H          1.54630        5.01290       -7.71620
H          1.88000        7.23560       -6.92290
H          4.40060        5.86670       -2.30720
H          3.72290        5.17020       -4.52070
H          3.23130        9.08920       -0.67450
H          4.44120        7.79330        0.98320
H          4.58420        6.38300       -0.16890
