
  xtb     03052202013D
 energy: -202.068425215399 gnorm: 0.000286997384 xtb: 6.4.1 (unknown)
117128  0     0  0            999 V2000
    5.9007    4.2425    5.2464 C   0  0  0  0  0  0  0  0  0  0  0  0
    5.2508    3.1582    4.1045 S   0  0  0  0  0  0  0  0  0  0  0  0
    3.6366    3.4308    4.6457 C   0  0  0  0  0  0  0  0  0  0  0  0
    3.6238    4.3097    5.7282 C   0  0  0  0  0  0  0  0  0  0  0  0
    4.9343    4.8084    6.0489 C   0  0  0  0  0  0  0  0  0  0  0  0
    5.0715    5.7325    7.1281 C   0  0  0  0  0  0  0  0  0  0  0  0
    6.3267    6.4391    7.4814 C   0  0  0  0  0  0  0  0  0  0  0  0
    6.5703    6.7514    8.6262 O   0  0  0  0  0  0  0  0  0  0  0  0
    7.2432    6.8308    6.3463 C   0  0  0  0  0  0  0  0  0  0  0  0
    3.9599    6.0294    7.8796 C   0  0  0  0  0  0  0  0  0  0  0  0
    2.6929    5.4924    7.5913 C   0  0  0  0  0  0  0  0  0  0  0  0
    2.5147    4.6597    6.5245 C   0  0  0  0  0  0  0  0  0  0  0  0
    2.5319    2.7702    4.0321 C   0  0  0  0  0  0  0  0  0  0  0  0
    2.6610    1.0814    3.6665 S   0  0  0  0  0  0  0  0  0  0  0  0
    1.0069    0.9733    3.1601 C   0  0  0  0  0  0  0  0  0  0  0  0
    0.3879    2.2273    3.2359 C   0  0  0  0  0  0  0  0  0  0  0  0
    1.2683    3.2603    3.6986 C   0  0  0  0  0  0  0  0  0  0  0  0
    0.8018    4.6087    3.7196 C   0  0  0  0  0  0  0  0  0  0  0  0
    1.7329    5.7573    3.8588 C   0  0  0  0  0  0  0  0  0  0  0  0
    2.8427    5.7395    3.3757 O   0  0  0  0  0  0  0  0  0  0  0  0
    1.1946    6.9800    4.5645 C   0  0  0  0  0  0  0  0  0  0  0  0
   -0.5229    4.8458    3.4359 C   0  0  0  0  0  0  0  0  0  0  0  0
   -1.4066    3.8089    3.0919 C   0  0  0  0  0  0  0  0  0  0  0  0
   -0.9619    2.5242    2.9652 C   0  0  0  0  0  0  0  0  0  0  0  0
    0.4789   -0.2460    2.6597 C   0  0  0  0  0  0  0  0  0  0  0  0
   -0.6015   -0.2252    1.2949 S   0  0  0  0  0  0  0  0  0  0  0  0
   -0.5778   -1.9497    1.1343 C   0  0  0  0  0  0  0  0  0  0  0  0
    0.2733   -2.5238    2.0853 C   0  0  0  0  0  0  0  0  0  0  0  0
    0.8225   -1.5622    2.9933 C   0  0  0  0  0  0  0  0  0  0  0  0
    1.6154   -2.0289    4.0780 C   0  0  0  0  0  0  0  0  0  0  0  0
    1.9726   -1.2326    5.2836 C   0  0  0  0  0  0  0  0  0  0  0  0
    3.0755   -1.2651    5.7755 O   0  0  0  0  0  0  0  0  0  0  0  0
    0.8144   -0.5326    5.9600 C   0  0  0  0  0  0  0  0  0  0  0  0
    1.9943   -3.3504    4.0924 C   0  0  0  0  0  0  0  0  0  0  0  0
    1.5672   -4.2589    3.1099 C   0  0  0  0  0  0  0  0  0  0  0  0
    0.6896   -3.8699    2.1410 C   0  0  0  0  0  0  0  0  0  0  0  0
   -1.3279   -2.5926    0.1155 C   0  0  0  0  0  0  0  0  0  0  0  0
   -1.3946   -1.9057   -1.4809 S   0  0  0  0  0  0  0  0  0  0  0  0
   -2.2766   -3.2554   -2.1232 C   0  0  0  0  0  0  0  0  0  0  0  0
   -2.4892   -4.2214   -1.1288 C   0  0  0  0  0  0  0  0  0  0  0  0
   -2.0214   -3.8052    0.1597 C   0  0  0  0  0  0  0  0  0  0  0  0
   -2.3106   -4.6179    1.2911 C   0  0  0  0  0  0  0  0  0  0  0  0
   -2.1941   -4.1624    2.7024 C   0  0  0  0  0  0  0  0  0  0  0  0
   -1.7248   -4.8604    3.5701 O   0  0  0  0  0  0  0  0  0  0  0  0
   -2.8558   -2.8390    3.0178 C   0  0  0  0  0  0  0  0  0  0  0  0
   -2.8264   -5.8745    1.0814 C   0  0  0  0  0  0  0  0  0  0  0  0
   -3.1227   -6.3449   -0.2096 C   0  0  0  0  0  0  0  0  0  0  0  0
   -2.9903   -5.5286   -1.2971 C   0  0  0  0  0  0  0  0  0  0  0  0
   -2.6457   -3.2589   -3.4886 C   0  0  0  0  0  0  0  0  0  0  0  0
   -1.6096   -2.4723   -4.6440 S   0  0  0  0  0  0  0  0  0  0  0  0
   -3.7834   -3.7713   -4.1215 C   0  0  0  0  0  0  0  0  0  0  0  0
   -4.9249   -4.3400   -3.5157 C   0  0  0  0  0  0  0  0  0  0  0  0
   -5.9647   -4.7742   -4.2894 C   0  0  0  0  0  0  0  0  0  0  0  0
   -7.1064   -5.3370   -3.8242 O   0  0  0  0  0  0  0  0  0  0  0  0
   -7.2508   -5.5045   -2.4359 C   0  0  0  0  0  0  0  0  0  0  0  0
   -5.9097   -4.6447   -5.7230 C   0  0  0  0  0  0  0  0  0  0  0  0
   -6.9940   -5.1391   -6.3672 O   0  0  0  0  0  0  0  0  0  0  0  0
   -7.0408   -5.0424   -7.7693 C   0  0  0  0  0  0  0  0  0  0  0  0
   -4.8389   -4.0375   -6.3180 C   0  0  0  0  0  0  0  0  0  0  0  0
   -3.7607   -3.5757   -5.5331 C   0  0  0  0  0  0  0  0  0  0  0  0
   -2.6384   -2.8665   -5.9819 C   0  0  0  0  0  0  0  0  0  0  0  0
   -2.2803   -2.6270   -7.3347 C   0  0  0  0  0  0  0  0  0  0  0  0
   -1.3910   -1.7399   -7.8451 C   0  0  0  0  0  0  0  0  0  0  0  0
   -0.7668   -0.6187   -7.2223 C   0  0  0  0  0  0  0  0  0  0  0  0
   -1.5427    0.3365   -5.9988 S   0  0  0  0  0  0  0  0  0  0  0  0
   -0.3369    1.5391   -6.0494 C   0  0  0  0  0  0  0  0  0  0  0  0
    0.6499    1.2519   -6.9676 C   0  0  0  0  0  0  0  0  0  0  0  0
    0.4146    0.0038   -7.6371 C   0  0  0  0  0  0  0  0  0  0  0  0
    1.3543   -0.4468   -8.5990 C   0  0  0  0  0  0  0  0  0  0  0  0
    1.2890   -1.8003   -9.2221 C   0  0  0  0  0  0  0  0  0  0  0  0
    1.1969   -1.9716  -10.4133 O   0  0  0  0  0  0  0  0  0  0  0  0
    1.4852   -2.9354   -8.2436 C   0  0  0  0  0  0  0  0  0  0  0  0
    2.4079    0.3685   -8.9272 C   0  0  0  0  0  0  0  0  0  0  0  0
    2.6215    1.6033   -8.2802 C   0  0  0  0  0  0  0  0  0  0  0  0
    1.7790    2.0360   -7.3017 C   0  0  0  0  0  0  0  0  0  0  0  0
    6.9610    4.3839    5.2716 H   0  0  0  0  0  0  0  0  0  0  0  0
    7.6752    7.8044    6.5694 H   0  0  0  0  0  0  0  0  0  0  0  0
    8.0647    6.1184    6.2884 H   0  0  0  0  0  0  0  0  0  0  0  0
    6.7203    6.8599    5.3956 H   0  0  0  0  0  0  0  0  0  0  0  0
    4.0726    6.7116    8.7093 H   0  0  0  0  0  0  0  0  0  0  0  0
    1.8576    5.7551    8.2230 H   0  0  0  0  0  0  0  0  0  0  0  0
    1.5447    4.2441    6.2954 H   0  0  0  0  0  0  0  0  0  0  0  0
    2.0253    7.5335    4.9952 H   0  0  0  0  0  0  0  0  0  0  0  0
    0.7088    7.6250    3.8332 H   0  0  0  0  0  0  0  0  0  0  0  0
    0.4795    6.7173    5.3379 H   0  0  0  0  0  0  0  0  0  0  0  0
   -0.8971    5.8578    3.4328 H   0  0  0  0  0  0  0  0  0  0  0  0
   -2.4405    4.0470    2.8937 H   0  0  0  0  0  0  0  0  0  0  0  0
   -1.6332    1.7367    2.6603 H   0  0  0  0  0  0  0  0  0  0  0  0
    0.3806   -1.2451    6.6623 H   0  0  0  0  0  0  0  0  0  0  0  0
    0.0433   -0.2270    5.2608 H   0  0  0  0  0  0  0  0  0  0  0  0
    1.1756    0.3215    6.5278 H   0  0  0  0  0  0  0  0  0  0  0  0
    2.6174   -3.6967    4.9032 H   0  0  0  0  0  0  0  0  0  0  0  0
    1.9118   -5.2798    3.1525 H   0  0  0  0  0  0  0  0  0  0  0  0
    0.3241   -4.5704    1.4068 H   0  0  0  0  0  0  0  0  0  0  0  0
   -3.7955   -3.0632    3.5232 H   0  0  0  0  0  0  0  0  0  0  0  0
   -2.2393   -2.2735    3.7127 H   0  0  0  0  0  0  0  0  0  0  0  0
   -3.0660   -2.2528    2.1300 H   0  0  0  0  0  0  0  0  0  0  0  0
   -3.0224   -6.5024    1.9376 H   0  0  0  0  0  0  0  0  0  0  0  0
   -3.4826   -7.3554   -0.3291 H   0  0  0  0  0  0  0  0  0  0  0  0
   -3.2338   -5.8781   -2.2880 H   0  0  0  0  0  0  0  0  0  0  0  0
   -4.9678   -4.3958   -2.4414 H   0  0  0  0  0  0  0  0  0  0  0  0
   -6.4656   -6.1470   -2.0236 H   0  0  0  0  0  0  0  0  0  0  0  0
   -7.2416   -4.5433   -1.9115 H   0  0  0  0  0  0  0  0  0  0  0  0
   -8.2193   -5.9817   -2.2971 H   0  0  0  0  0  0  0  0  0  0  0  0
   -7.9790   -5.5086   -8.0649 H   0  0  0  0  0  0  0  0  0  0  0  0
   -6.2071   -5.5766   -8.2368 H   0  0  0  0  0  0  0  0  0  0  0  0
   -7.0343   -3.9988   -8.1004 H   0  0  0  0  0  0  0  0  0  0  0  0
   -4.8056   -3.8897   -7.3843 H   0  0  0  0  0  0  0  0  0  0  0  0
   -2.7547   -3.2962   -8.0416 H   0  0  0  0  0  0  0  0  0  0  0  0
   -1.1402   -1.8489   -8.8938 H   0  0  0  0  0  0  0  0  0  0  0  0
   -0.4190    2.4018   -5.4191 H   0  0  0  0  0  0  0  0  0  0  0  0
    1.1337   -3.8699   -8.6731 H   0  0  0  0  0  0  0  0  0  0  0  0
    0.9926   -2.7415   -7.2960 H   0  0  0  0  0  0  0  0  0  0  0  0
    2.5564   -3.0212   -8.0595 H   0  0  0  0  0  0  0  0  0  0  0  0
    3.1108    0.0391   -9.6780 H   0  0  0  0  0  0  0  0  0  0  0  0
    3.4786    2.1952   -8.5638 H   0  0  0  0  0  0  0  0  0  0  0  0
    1.9461    2.9664   -6.7807 H   0  0  0  0  0  0  0  0  0  0  0  0
  1  2  1  0  0  0  0
  2  3  1  0  0  0  0
  3  4  2  0  0  0  0
  4  5  1  0  0  0  0
  5  6  1  0  0  0  0
  6  7  1  0  0  0  0
  7  8  2  0  0  0  0
  7  9  1  0  0  0  0
  6 10  2  0  0  0  0
 10 11  1  0  0  0  0
 11 12  2  0  0  0  0
  3 13  1  0  0  0  0
 13 14  1  0  0  0  0
 14 15  1  0  0  0  0
 15 16  2  0  0  0  0
 16 17  1  0  0  0  0
 17 18  1  0  0  0  0
 18 19  1  0  0  0  0
 19 20  2  0  0  0  0
 19 21  1  0  0  0  0
 18 22  2  0  0  0  0
 22 23  1  0  0  0  0
 23 24  2  0  0  0  0
 15 25  1  0  0  0  0
 25 26  1  0  0  0  0
 26 27  1  0  0  0  0
 27 28  2  0  0  0  0
 28 29  1  0  0  0  0
 29 30  1  0  0  0  0
 30 31  1  0  0  0  0
 31 32  2  0  0  0  0
 31 33  1  0  0  0  0
 30 34  2  0  0  0  0
 34 35  1  0  0  0  0
 35 36  2  0  0  0  0
 27 37  1  0  0  0  0
 37 38  1  0  0  0  0
 38 39  1  0  0  0  0
 39 40  2  0  0  0  0
 40 41  1  0  0  0  0
 41 42  1  0  0  0  0
 42 43  1  0  0  0  0
 43 44  2  0  0  0  0
 43 45  1  0  0  0  0
 42 46  2  0  0  0  0
 46 47  1  0  0  0  0
 47 48  2  0  0  0  0
 39 49  1  0  0  0  0
 49 50  1  0  0  0  0
 49 51  2  0  0  0  0
 51 52  1  0  0  0  0
 52 53  2  0  0  0  0
 53 54  1  0  0  0  0
 54 55  1  0  0  0  0
 53 56  1  0  0  0  0
 56 57  1  0  0  0  0
 57 58  1  0  0  0  0
 56 59  2  0  0  0  0
 59 60  1  0  0  0  0
 60 61  2  0  0  0  0
 61 62  1  0  0  0  0
 62 63  2  0  0  0  0
 63 64  1  0  0  0  0
 64 65  1  0  0  0  0
 65 66  1  0  0  0  0
 66 67  2  0  0  0  0
 67 68  1  0  0  0  0
 68 69  1  0  0  0  0
 69 70  1  0  0  0  0
 70 71  2  0  0  0  0
 70 72  1  0  0  0  0
 69 73  2  0  0  0  0
 73 74  1  0  0  0  0
 74 75  2  0  0  0  0
  5  1  2  0  0  0  0
 17 13  2  0  0  0  0
 29 25  2  0  0  0  0
 41 37  2  0  0  0  0
 61 50  1  0  0  0  0
 68 64  2  0  0  0  0
 12  4  1  0  0  0  0
 24 16  1  0  0  0  0
 36 28  1  0  0  0  0
 48 40  1  0  0  0  0
 60 51  1  0  0  0  0
 75 67  1  0  0  0  0
  1 76  1  0  0  0  0
  9 77  1  0  0  0  0
  9 78  1  0  0  0  0
  9 79  1  0  0  0  0
 10 80  1  0  0  0  0
 11 81  1  0  0  0  0
 12 82  1  0  0  0  0
 21 83  1  0  0  0  0
 21 84  1  0  0  0  0
 21 85  1  0  0  0  0
 22 86  1  0  0  0  0
 23 87  1  0  0  0  0
 24 88  1  0  0  0  0
 33 89  1  0  0  0  0
 33 90  1  0  0  0  0
 33 91  1  0  0  0  0
 34 92  1  0  0  0  0
 35 93  1  0  0  0  0
 36 94  1  0  0  0  0
 45 95  1  0  0  0  0
 45 96  1  0  0  0  0
 45 97  1  0  0  0  0
 46 98  1  0  0  0  0
 47 99  1  0  0  0  0
 48100  1  0  0  0  0
 52101  1  0  0  0  0
 55102  1  0  0  0  0
 55103  1  0  0  0  0
 55104  1  0  0  0  0
 58105  1  0  0  0  0
 58106  1  0  0  0  0
 58107  1  0  0  0  0
 59108  1  0  0  0  0
 62109  1  0  0  0  0
 63110  1  0  0  0  0
 66111  1  0  0  0  0
 72112  1  0  0  0  0
 72113  1  0  0  0  0
 72114  1  0  0  0  0
 73115  1  0  0  0  0
 74116  1  0  0  0  0
 75117  1  0  0  0  0
M  END
