
  xtb     03052200133D
 energy: -233.903695595157 gnorm: 0.000242427049 xtb: 6.4.1 (unknown)
127138  0     0  0            999 V2000
    7.3842   -4.2792    9.3909 C   0  0  0  0  0  0  0  0  0  0  0  0
    6.3464   -3.4632    9.1087 C   0  0  0  0  0  0  0  0  0  0  0  0
    6.4957   -2.9837    7.7503 C   0  0  0  0  0  0  0  0  0  0  0  0
    7.7329   -3.5972    7.2714 C   0  0  0  0  0  0  0  0  0  0  0  0
    8.2651   -4.3696    8.2350 C   0  0  0  0  0  0  0  0  0  0  0  0
    8.2350   -3.3908    6.0461 F   0  0  0  0  0  0  0  0  0  0  0  0
    5.6634   -2.1572    7.0458 C   0  0  0  0  0  0  0  0  0  0  0  0
    5.7866   -1.7255    5.6924 C   0  0  0  0  0  0  0  0  0  0  0  0
    4.6798   -0.9739    5.3503 C   0  0  0  0  0  0  0  0  0  0  0  0
    3.8123   -0.8788    6.5303 C   0  0  0  0  0  0  0  0  0  0  0  0
    4.3995   -1.5737    7.5138 C   0  0  0  0  0  0  0  0  0  0  0  0
    3.9315   -1.7309    8.7563 F   0  0  0  0  0  0  0  0  0  0  0  0
    4.4024   -0.4555    4.0701 C   0  0  0  0  0  0  0  0  0  0  0  0
    3.2027    0.0934    3.7112 C   0  0  0  0  0  0  0  0  0  0  0  0
    2.8466    0.5051    2.4148 C   0  0  0  0  0  0  0  0  0  0  0  0
    1.5625    0.8614    2.0231 C   0  0  0  0  0  0  0  0  0  0  0  0
    1.5672    1.1982    0.6523 C   0  0  0  0  0  0  0  0  0  0  0  0
    2.9584    1.0332    0.2234 C   0  0  0  0  0  0  0  0  0  0  0  0
    3.7173    0.6022    1.2437 C   0  0  0  0  0  0  0  0  0  0  0  0
    3.3724    1.2527   -1.0321 F   0  0  0  0  0  0  0  0  0  0  0  0
    0.5021    1.6145   -0.1296 C   0  0  0  0  0  0  0  0  0  0  0  0
    0.5236    2.1619   -1.4321 C   0  0  0  0  0  0  0  0  0  0  0  0
   -0.7630    2.5426   -1.7904 C   0  0  0  0  0  0  0  0  0  0  0  0
   -1.6624    2.1721   -0.6981 C   0  0  0  0  0  0  0  0  0  0  0  0
   -0.9057    1.6327    0.2704 C   0  0  0  0  0  0  0  0  0  0  0  0
   -1.3501    1.1301    1.4316 F   0  0  0  0  0  0  0  0  0  0  0  0
   -1.1154    3.2022   -2.9808 C   0  0  0  0  0  0  0  0  0  0  0  0
   -2.3628    3.6732   -3.2845 C   0  0  0  0  0  0  0  0  0  0  0  0
   -2.7013    4.2917   -4.5026 C   0  0  0  0  0  0  0  0  0  0  0  0
   -3.9705    4.6825   -4.8926 C   0  0  0  0  0  0  0  0  0  0  0  0
   -3.9301    5.0968   -6.2523 C   0  0  0  0  0  0  0  0  0  0  0  0
   -2.5157    5.0207   -6.6328 C   0  0  0  0  0  0  0  0  0  0  0  0
   -1.7844    4.5415   -5.6178 C   0  0  0  0  0  0  0  0  0  0  0  0
   -2.0486    5.3841   -7.8329 F   0  0  0  0  0  0  0  0  0  0  0  0
   -4.9793    5.2584   -7.1255 C   0  0  0  0  0  0  0  0  0  0  0  0
   -4.8765    5.1283   -8.5411 C   0  0  0  0  0  0  0  0  0  0  0  0
   -6.0961    4.7472   -9.0319 C   0  0  0  0  0  0  0  0  0  0  0  0
   -7.0885    4.8526   -7.9604 C   0  0  0  0  0  0  0  0  0  0  0  0
   -6.4119    5.1338   -6.8332 C   0  0  0  0  0  0  0  0  0  0  0  0
   -6.9217    5.2824   -5.6060 F   0  0  0  0  0  0  0  0  0  0  0  0
   -6.2766    4.1226  -10.3205 C   0  0  0  0  0  0  0  0  0  0  0  0
   -5.4018    3.1876  -10.7419 C   0  0  0  0  0  0  0  0  0  0  0  0
   -4.4098    2.6029   -9.8706 C   0  0  0  0  0  0  0  0  0  0  0  0
   -4.5997    2.2349   -8.5610 C   0  0  0  0  0  0  0  0  0  0  0  0
   -3.3614    1.8126   -8.0036 C   0  0  0  0  0  0  0  0  0  0  0  0
   -2.4045    1.8936   -9.1111 C   0  0  0  0  0  0  0  0  0  0  0  0
   -3.0175    2.3316  -10.2251 C   0  0  0  0  0  0  0  0  0  0  0  0
   -1.1130    1.5606   -8.9905 F   0  0  0  0  0  0  0  0  0  0  0  0
   -3.1037    1.4610   -6.6938 C   0  0  0  0  0  0  0  0  0  0  0  0
   -1.8838    1.0573   -6.0941 C   0  0  0  0  0  0  0  0  0  0  0  0
   -2.1165    0.6962   -4.7747 C   0  0  0  0  0  0  0  0  0  0  0  0
   -3.5352    0.9185   -4.4933 C   0  0  0  0  0  0  0  0  0  0  0  0
   -4.0969    1.3826   -5.6192 C   0  0  0  0  0  0  0  0  0  0  0  0
   -5.3827    1.7292   -5.7655 F   0  0  0  0  0  0  0  0  0  0  0  0
   -1.1777    0.1433   -3.8866 C   0  0  0  0  0  0  0  0  0  0  0  0
   -1.4939   -0.4590   -2.6974 C   0  0  0  0  0  0  0  0  0  0  0  0
   -0.5766   -1.1108   -1.8662 C   0  0  0  0  0  0  0  0  0  0  0  0
    1.1373   -1.0087   -2.1233 S   0  0  0  0  0  0  0  0  0  0  0  0
   -0.8581   -1.9942   -0.7997 C   0  0  0  0  0  0  0  0  0  0  0  0
   -2.1262   -2.3660   -0.3209 C   0  0  0  0  0  0  0  0  0  0  0  0
   -2.2396   -3.3472    0.6326 C   0  0  0  0  0  0  0  0  0  0  0  0
   -3.3953   -3.7817    1.1772 O   0  0  0  0  0  0  0  0  0  0  0  0
   -4.5977   -3.1552    0.7997 C   0  0  0  0  0  0  0  0  0  0  0  0
   -1.0671   -4.0337    1.1012 C   0  0  0  0  0  0  0  0  0  0  0  0
   -1.3140   -5.0421    1.9642 O   0  0  0  0  0  0  0  0  0  0  0  0
   -0.2232   -5.7560    2.4959 C   0  0  0  0  0  0  0  0  0  0  0  0
    0.1754   -3.6501    0.6656 C   0  0  0  0  0  0  0  0  0  0  0  0
    0.3060   -2.5835   -0.2410 C   0  0  0  0  0  0  0  0  0  0  0  0
    1.5016   -2.0677   -0.7881 C   0  0  0  0  0  0  0  0  0  0  0  0
    2.8589   -2.3047   -0.5137 C   0  0  0  0  0  0  0  0  0  0  0  0
    3.4964   -2.7871    0.6012 C   0  0  0  0  0  0  0  0  0  0  0  0
    3.0657   -2.9515    1.9335 C   0  0  0  0  0  0  0  0  0  0  0  0
    3.7984   -3.6277    2.8972 C   0  0  0  0  0  0  0  0  0  0  0  0
    3.1184   -3.5728    4.1401 C   0  0  0  0  0  0  0  0  0  0  0  0
    1.9267   -2.7637    3.8759 C   0  0  0  0  0  0  0  0  0  0  0  0
    1.8779   -2.3968    2.5856 C   0  0  0  0  0  0  0  0  0  0  0  0
    1.0321   -2.4331    4.8177 F   0  0  0  0  0  0  0  0  0  0  0  0
    3.4690   -4.1586    5.3364 C   0  0  0  0  0  0  0  0  0  0  0  0
    2.7818   -4.1096    6.5865 C   0  0  0  0  0  0  0  0  0  0  0  0
    3.4787   -4.8380    7.5164 C   0  0  0  0  0  0  0  0  0  0  0  0
    4.6672   -5.3973    6.8666 C   0  0  0  0  0  0  0  0  0  0  0  0
    4.6471   -4.9892    5.5881 C   0  0  0  0  0  0  0  0  0  0  0  0
    5.5560   -5.2833    4.6472 F   0  0  0  0  0  0  0  0  0  0  0  0
    3.1054   -5.0107    8.8879 C   0  0  0  0  0  0  0  0  0  0  0  0
    3.7913   -5.7157    9.7906 C   0  0  0  0  0  0  0  0  0  0  0  0
    7.5643   -4.7953   10.3159 H   0  0  0  0  0  0  0  0  0  0  0  0
    5.5330   -3.2027    9.7557 H   0  0  0  0  0  0  0  0  0  0  0  0
    9.1669   -4.9483    8.1835 H   0  0  0  0  0  0  0  0  0  0  0  0
    6.5962   -1.9832    5.0382 H   0  0  0  0  0  0  0  0  0  0  0  0
    2.8827   -0.3485    6.5860 H   0  0  0  0  0  0  0  0  0  0  0  0
    5.1770   -0.5758    3.3257 H   0  0  0  0  0  0  0  0  0  0  0  0
    2.4213    0.1725    4.4546 H   0  0  0  0  0  0  0  0  0  0  0  0
    0.7031    0.8872    2.6646 H   0  0  0  0  0  0  0  0  0  0  0  0
    4.7670    0.3883    1.2227 H   0  0  0  0  0  0  0  0  0  0  0  0
    1.4057    2.3101   -2.0237 H   0  0  0  0  0  0  0  0  0  0  0  0
   -2.7253    2.3080   -0.6852 H   0  0  0  0  0  0  0  0  0  0  0  0
   -0.3138    3.3439   -3.6918 H   0  0  0  0  0  0  0  0  0  0  0  0
   -3.1650    3.5553   -2.5696 H   0  0  0  0  0  0  0  0  0  0  0  0
   -4.8640    4.6076   -4.3036 H   0  0  0  0  0  0  0  0  0  0  0  0
   -0.7265    4.3720   -5.6149 H   0  0  0  0  0  0  0  0  0  0  0  0
   -3.9655    5.1705   -9.1028 H   0  0  0  0  0  0  0  0  0  0  0  0
   -8.1405    4.6753   -8.0696 H   0  0  0  0  0  0  0  0  0  0  0  0
   -7.1144    4.4226  -10.9353 H   0  0  0  0  0  0  0  0  0  0  0  0
   -5.4417    2.8191  -11.7591 H   0  0  0  0  0  0  0  0  0  0  0  0
   -5.5293    2.2801   -8.0302 H   0  0  0  0  0  0  0  0  0  0  0  0
   -2.5794    2.5045  -11.1887 H   0  0  0  0  0  0  0  0  0  0  0  0
   -0.9415    0.9944   -6.6024 H   0  0  0  0  0  0  0  0  0  0  0  0
   -4.0220    0.7616   -3.5515 H   0  0  0  0  0  0  0  0  0  0  0  0
   -0.1442    0.1327   -4.2098 H   0  0  0  0  0  0  0  0  0  0  0  0
   -2.5299   -0.5056   -2.3956 H   0  0  0  0  0  0  0  0  0  0  0  0
   -3.0009   -1.8809   -0.7194 H   0  0  0  0  0  0  0  0  0  0  0  0
   -4.5807   -2.0859    1.0321 H   0  0  0  0  0  0  0  0  0  0  0  0
   -4.8061   -3.2952   -0.2659 H   0  0  0  0  0  0  0  0  0  0  0  0
   -5.3768   -3.6400    1.3852 H   0  0  0  0  0  0  0  0  0  0  0  0
   -0.6563   -6.4920    3.1706 H   0  0  0  0  0  0  0  0  0  0  0  0
    0.3409   -6.2703    1.7113 H   0  0  0  0  0  0  0  0  0  0  0  0
    0.4512   -5.1014    3.0564 H   0  0  0  0  0  0  0  0  0  0  0  0
    1.0619   -4.1648    0.9919 H   0  0  0  0  0  0  0  0  0  0  0  0
    3.5110   -2.0493   -1.3423 H   0  0  0  0  0  0  0  0  0  0  0  0
    4.5405   -3.0417    0.4562 H   0  0  0  0  0  0  0  0  0  0  0  0
    4.7233   -4.1428    2.7271 H   0  0  0  0  0  0  0  0  0  0  0  0
    1.1399   -1.7772    2.1200 H   0  0  0  0  0  0  0  0  0  0  0  0
    1.8664   -3.5791    6.7617 H   0  0  0  0  0  0  0  0  0  0  0  0
    5.4068   -6.0148    7.3354 H   0  0  0  0  0  0  0  0  0  0  0  0
    2.1914   -4.5091    9.1797 H   0  0  0  0  0  0  0  0  0  0  0  0
    4.7083   -6.2221    9.5443 H   0  0  0  0  0  0  0  0  0  0  0  0
    3.4546   -5.8019   10.8091 H   0  0  0  0  0  0  0  0  0  0  0  0
  1  2  2  0  0  0  0
  2  3  1  0  0  0  0
  3  4  1  0  0  0  0
  4  5  2  0  0  0  0
  4  6  1  0  0  0  0
  3  7  2  0  0  0  0
  7  8  1  0  0  0  0
  8  9  2  0  0  0  0
  9 10  1  0  0  0  0
 10 11  2  0  0  0  0
 11 12  1  0  0  0  0
  9 13  1  0  0  0  0
 13 14  2  0  0  0  0
 14 15  1  0  0  0  0
 15 16  2  0  0  0  0
 16 17  1  0  0  0  0
 17 18  1  0  0  0  0
 18 19  2  0  0  0  0
 18 20  1  0  0  0  0
 17 21  2  0  0  0  0
 21 22  1  0  0  0  0
 22 23  2  0  0  0  0
 23 24  1  0  0  0  0
 24 25  2  0  0  0  0
 25 26  1  0  0  0  0
 23 27  1  0  0  0  0
 27 28  2  0  0  0  0
 28 29  1  0  0  0  0
 29 30  2  0  0  0  0
 30 31  1  0  0  0  0
 31 32  1  0  0  0  0
 32 33  2  0  0  0  0
 32 34  1  0  0  0  0
 31 35  2  0  0  0  0
 35 36  1  0  0  0  0
 36 37  2  0  0  0  0
 37 38  1  0  0  0  0
 38 39  2  0  0  0  0
 39 40  1  0  0  0  0
 37 41  1  0  0  0  0
 41 42  2  0  0  0  0
 42 43  1  0  0  0  0
 43 44  2  0  0  0  0
 44 45  1  0  0  0  0
 45 46  1  0  0  0  0
 46 47  2  0  0  0  0
 46 48  1  0  0  0  0
 45 49  2  0  0  0  0
 49 50  1  0  0  0  0
 50 51  2  0  0  0  0
 51 52  1  0  0  0  0
 52 53  2  0  0  0  0
 53 54  1  0  0  0  0
 51 55  1  0  0  0  0
 55 56  2  0  0  0  0
 56 57  1  0  0  0  0
 57 58  1  0  0  0  0
 57 59  2  0  0  0  0
 59 60  1  0  0  0  0
 60 61  2  0  0  0  0
 61 62  1  0  0  0  0
 62 63  1  0  0  0  0
 61 64  1  0  0  0  0
 64 65  1  0  0  0  0
 65 66  1  0  0  0  0
 64 67  2  0  0  0  0
 67 68  1  0  0  0  0
 68 69  2  0  0  0  0
 69 70  1  0  0  0  0
 70 71  2  0  0  0  0
 71 72  1  0  0  0  0
 72 73  2  0  0  0  0
 73 74  1  0  0  0  0
 74 75  1  0  0  0  0
 75 76  2  0  0  0  0
 75 77  1  0  0  0  0
 74 78  2  0  0  0  0
 78 79  1  0  0  0  0
 79 80  2  0  0  0  0
 80 81  1  0  0  0  0
 81 82  2  0  0  0  0
 82 83  1  0  0  0  0
 80 84  1  0  0  0  0
 84 85  2  0  0  0  0
  5  1  1  0  0  0  0
 11  7  1  0  0  0  0
 19 15  1  0  0  0  0
 25 21  1  0  0  0  0
 33 29  1  0  0  0  0
 39 35  1  0  0  0  0
 47 43  1  0  0  0  0
 53 49  1  0  0  0  0
 69 58  1  0  0  0  0
 76 72  1  0  0  0  0
 82 78  1  0  0  0  0
 68 59  1  0  0  0  0
  1 86  1  0  0  0  0
  2 87  1  0  0  0  0
  5 88  1  0  0  0  0
  8 89  1  0  0  0  0
 10 90  1  0  0  0  0
 13 91  1  0  0  0  0
 14 92  1  0  0  0  0
 16 93  1  0  0  0  0
 19 94  1  0  0  0  0
 22 95  1  0  0  0  0
 24 96  1  0  0  0  0
 27 97  1  0  0  0  0
 28 98  1  0  0  0  0
 30 99  1  0  0  0  0
 33100  1  0  0  0  0
 36101  1  0  0  0  0
 38102  1  0  0  0  0
 41103  1  0  0  0  0
 42104  1  0  0  0  0
 44105  1  0  0  0  0
 47106  1  0  0  0  0
 50107  1  0  0  0  0
 52108  1  0  0  0  0
 55109  1  0  0  0  0
 56110  1  0  0  0  0
 60111  1  0  0  0  0
 63112  1  0  0  0  0
 63113  1  0  0  0  0
 63114  1  0  0  0  0
 66115  1  0  0  0  0
 66116  1  0  0  0  0
 66117  1  0  0  0  0
 67118  1  0  0  0  0
 70119  1  0  0  0  0
 71120  1  0  0  0  0
 73121  1  0  0  0  0
 76122  1  0  0  0  0
 79123  1  0  0  0  0
 81124  1  0  0  0  0
 84125  1  0  0  0  0
 85126  1  0  0  0  0
 85127  1  0  0  0  0
M  END
