
  xtb     03082205453D
 energy: -207.434218282423 gnorm: 0.000560345887 xtb: 6.4.1 (unknown)
116127  0     0  0            999 V2000
    4.3013    3.0516    1.3265 C   0  0  0  0  0  0  0  0  0  0  0  0
    2.6683    3.3673    1.7071 S   0  0  0  0  0  0  0  0  0  0  0  0
    2.0938    2.6514    0.2313 C   0  0  0  0  0  0  0  0  0  0  0  0
    3.1665    2.1463   -0.5030 C   0  0  0  0  0  0  0  0  0  0  0  0
    4.4381    2.3980    0.1229 C   0  0  0  0  0  0  0  0  0  0  0  0
    5.6363    1.9588   -0.4926 C   0  0  0  0  0  0  0  0  0  0  0  0
    5.5748    1.2555   -1.6552 C   0  0  0  0  0  0  0  0  0  0  0  0
    4.3335    0.9316   -2.2453 C   0  0  0  0  0  0  0  0  0  0  0  0
    3.1725    1.3584   -1.6754 C   0  0  0  0  0  0  0  0  0  0  0  0
    1.9967    0.9874   -2.2273 F   0  0  0  0  0  0  0  0  0  0  0  0
    0.6983    2.6740   -0.0529 C   0  0  0  0  0  0  0  0  0  0  0  0
   -0.4249    2.3688    1.2372 S   0  0  0  0  0  0  0  0  0  0  0  0
    0.0213    3.0027   -1.2278 C   0  0  0  0  0  0  0  0  0  0  0  0
    0.5772    3.3829   -2.4686 C   0  0  0  0  0  0  0  0  0  0  0  0
   -0.2426    3.7150   -3.5088 C   0  0  0  0  0  0  0  0  0  0  0  0
    0.1758    4.0541   -4.7574 O   0  0  0  0  0  0  0  0  0  0  0  0
    1.5528    3.9718   -5.0317 C   0  0  0  0  0  0  0  0  0  0  0  0
   -1.6708    3.7363   -3.3351 C   0  0  0  0  0  0  0  0  0  0  0  0
   -2.3621    4.1788   -4.4119 O   0  0  0  0  0  0  0  0  0  0  0  0
   -3.7676    4.1679   -4.3420 C   0  0  0  0  0  0  0  0  0  0  0  0
   -2.2237    3.3590   -2.1428 C   0  0  0  0  0  0  0  0  0  0  0  0
   -1.3952    2.9922   -1.0642 C   0  0  0  0  0  0  0  0  0  0  0  0
   -1.8087    2.6043    0.2198 C   0  0  0  0  0  0  0  0  0  0  0  0
   -3.1511    2.5584    0.6795 C   0  0  0  0  0  0  0  0  0  0  0  0
   -3.7294    1.8227    1.6705 C   0  0  0  0  0  0  0  0  0  0  0  0
   -3.2405    0.7076    2.3866 C   0  0  0  0  0  0  0  0  0  0  0  0
   -1.8126   -0.1721    1.9486 S   0  0  0  0  0  0  0  0  0  0  0  0
   -2.0309   -1.3737    3.1873 C   0  0  0  0  0  0  0  0  0  0  0  0
   -3.2456   -1.1566    3.8558 C   0  0  0  0  0  0  0  0  0  0  0  0
   -3.9080    0.0418    3.4333 C   0  0  0  0  0  0  0  0  0  0  0  0
   -5.1102    0.4304    4.0557 C   0  0  0  0  0  0  0  0  0  0  0  0
   -5.6808   -0.3703    5.0045 C   0  0  0  0  0  0  0  0  0  0  0  0
   -5.1076   -1.6083    5.3408 C   0  0  0  0  0  0  0  0  0  0  0  0
   -3.9288   -1.9887    4.7651 C   0  0  0  0  0  0  0  0  0  0  0  0
   -3.4480   -3.2230    5.0397 F   0  0  0  0  0  0  0  0  0  0  0  0
   -0.9892   -2.3057    3.3699 C   0  0  0  0  0  0  0  0  0  0  0  0
   -0.0194   -2.7092    1.9820 S   0  0  0  0  0  0  0  0  0  0  0  0
   -0.4757   -2.9185    4.5215 C   0  0  0  0  0  0  0  0  0  0  0  0
   -0.8756   -2.7082    5.8559 C   0  0  0  0  0  0  0  0  0  0  0  0
   -0.2595   -3.3864    6.8712 C   0  0  0  0  0  0  0  0  0  0  0  0
   -0.5687   -3.2769    8.1880 O   0  0  0  0  0  0  0  0  0  0  0  0
   -1.6649   -2.4723    8.5448 C   0  0  0  0  0  0  0  0  0  0  0  0
    0.8147   -4.2968    6.5856 C   0  0  0  0  0  0  0  0  0  0  0  0
    1.3187   -4.9275    7.6769 O   0  0  0  0  0  0  0  0  0  0  0  0
    2.3797   -5.8306    7.4957 C   0  0  0  0  0  0  0  0  0  0  0  0
    1.2648   -4.4497    5.3023 C   0  0  0  0  0  0  0  0  0  0  0  0
    0.6494   -3.7471    4.2463 C   0  0  0  0  0  0  0  0  0  0  0  0
    1.0454   -3.7298    2.8962 C   0  0  0  0  0  0  0  0  0  0  0  0
    2.2370   -4.2747    2.3675 C   0  0  0  0  0  0  0  0  0  0  0  0
    2.7217   -4.1866    1.0985 C   0  0  0  0  0  0  0  0  0  0  0  0
    2.0228   -3.7531   -0.0638 C   0  0  0  0  0  0  0  0  0  0  0  0
    2.8130   -2.7182   -1.2137 S   0  0  0  0  0  0  0  0  0  0  0  0
    1.4141   -2.6188   -2.2339 C   0  0  0  0  0  0  0  0  0  0  0  0
    0.3989   -3.4491   -1.7464 C   0  0  0  0  0  0  0  0  0  0  0  0
    0.7421   -4.0890   -0.5121 C   0  0  0  0  0  0  0  0  0  0  0  0
   -0.1415   -5.0209    0.0742 C   0  0  0  0  0  0  0  0  0  0  0  0
   -1.3283   -5.3054   -0.5351 C   0  0  0  0  0  0  0  0  0  0  0  0
   -1.6708   -4.7097   -1.7632 C   0  0  0  0  0  0  0  0  0  0  0  0
   -0.8191   -3.8231   -2.3549 C   0  0  0  0  0  0  0  0  0  0  0  0
   -1.1365   -3.3438   -3.5779 F   0  0  0  0  0  0  0  0  0  0  0  0
    1.3940   -1.7507   -3.3568 C   0  0  0  0  0  0  0  0  0  0  0  0
    2.7618   -1.6107   -4.4056 S   0  0  0  0  0  0  0  0  0  0  0  0
    0.3762   -0.8902   -3.7691 C   0  0  0  0  0  0  0  0  0  0  0  0
   -0.8304   -0.6306   -3.0862 C   0  0  0  0  0  0  0  0  0  0  0  0
   -1.7598    0.1979   -3.6428 C   0  0  0  0  0  0  0  0  0  0  0  0
   -2.9573    0.5214   -3.0874 O   0  0  0  0  0  0  0  0  0  0  0  0
   -3.2845   -0.0638   -1.8513 C   0  0  0  0  0  0  0  0  0  0  0  0
   -1.5151    0.7903   -4.9324 C   0  0  0  0  0  0  0  0  0  0  0  0
   -2.5681    1.4734   -5.4456 O   0  0  0  0  0  0  0  0  0  0  0  0
   -2.4046    2.0965   -6.6971 C   0  0  0  0  0  0  0  0  0  0  0  0
   -0.3041    0.6392   -5.5458 C   0  0  0  0  0  0  0  0  0  0  0  0
    0.6937   -0.1757   -4.9646 C   0  0  0  0  0  0  0  0  0  0  0  0
    1.9823   -0.4428   -5.4296 C   0  0  0  0  0  0  0  0  0  0  0  0
    2.7525    0.0413   -6.5369 C   0  0  0  0  0  0  0  0  0  0  0  0
    2.5100    1.0907   -7.3247 C   0  0  0  0  0  0  0  0  0  0  0  0
    5.0762    3.3525    2.0022 H   0  0  0  0  0  0  0  0  0  0  0  0
    6.5786    2.1810   -0.0164 H   0  0  0  0  0  0  0  0  0  0  0  0
    6.4772    0.9098   -2.1351 H   0  0  0  0  0  0  0  0  0  0  0  0
    4.2983    0.3263   -3.1366 H   0  0  0  0  0  0  0  0  0  0  0  0
    1.6483    3.4108   -2.5707 H   0  0  0  0  0  0  0  0  0  0  0  0
    2.1254    4.6922   -4.4381 H   0  0  0  0  0  0  0  0  0  0  0  0
    1.6607    4.2165   -6.0874 H   0  0  0  0  0  0  0  0  0  0  0  0
    1.9357    2.9628   -4.8473 H   0  0  0  0  0  0  0  0  0  0  0  0
   -4.1422    3.1509   -4.1944 H   0  0  0  0  0  0  0  0  0  0  0  0
   -4.1332    4.8199   -3.5413 H   0  0  0  0  0  0  0  0  0  0  0  0
   -4.1133    4.5520   -5.3003 H   0  0  0  0  0  0  0  0  0  0  0  0
   -3.2913    3.3450   -2.0076 H   0  0  0  0  0  0  0  0  0  0  0  0
   -3.8147    3.2268    0.1431 H   0  0  0  0  0  0  0  0  0  0  0  0
   -4.7554    2.0757    1.9065 H   0  0  0  0  0  0  0  0  0  0  0  0
   -5.5827    1.3574    3.7722 H   0  0  0  0  0  0  0  0  0  0  0  0
   -6.6024   -0.0767    5.4827 H   0  0  0  0  0  0  0  0  0  0  0  0
   -5.6019   -2.2744    6.0298 H   0  0  0  0  0  0  0  0  0  0  0  0
   -1.6521   -1.9916    6.0594 H   0  0  0  0  0  0  0  0  0  0  0  0
   -2.5802   -2.7997    8.0415 H   0  0  0  0  0  0  0  0  0  0  0  0
   -1.4829   -1.4170    8.3143 H   0  0  0  0  0  0  0  0  0  0  0  0
   -1.7795   -2.5908    9.6210 H   0  0  0  0  0  0  0  0  0  0  0  0
    2.6068   -6.2204    8.4865 H   0  0  0  0  0  0  0  0  0  0  0  0
    3.2674   -5.3329    7.0907 H   0  0  0  0  0  0  0  0  0  0  0  0
    2.0959   -6.6581    6.8368 H   0  0  0  0  0  0  0  0  0  0  0  0
    2.0908   -5.1052    5.0820 H   0  0  0  0  0  0  0  0  0  0  0  0
    2.8915   -4.7196    3.1056 H   0  0  0  0  0  0  0  0  0  0  0  0
    3.7695   -4.4181    0.9510 H   0  0  0  0  0  0  0  0  0  0  0  0
    0.1482   -5.5175    0.9864 H   0  0  0  0  0  0  0  0  0  0  0  0
   -2.0099   -6.0167   -0.0951 H   0  0  0  0  0  0  0  0  0  0  0  0
   -2.5886   -4.9746   -2.2638 H   0  0  0  0  0  0  0  0  0  0  0  0
   -0.9900   -1.0953   -2.1275 H   0  0  0  0  0  0  0  0  0  0  0  0
   -3.3243   -1.1555   -1.9246 H   0  0  0  0  0  0  0  0  0  0  0  0
   -2.5733    0.2198   -1.0689 H   0  0  0  0  0  0  0  0  0  0  0  0
   -4.2713    0.3171   -1.5926 H   0  0  0  0  0  0  0  0  0  0  0  0
   -2.1222    1.3740   -7.4701 H   0  0  0  0  0  0  0  0  0  0  0  0
   -1.6604    2.8967   -6.6421 H   0  0  0  0  0  0  0  0  0  0  0  0
   -3.3753    2.5229   -6.9436 H   0  0  0  0  0  0  0  0  0  0  0  0
   -0.1105    1.1041   -6.4949 H   0  0  0  0  0  0  0  0  0  0  0  0
    3.6596   -0.5272   -6.7101 H   0  0  0  0  0  0  0  0  0  0  0  0
    3.1867    1.3406   -8.1233 H   0  0  0  0  0  0  0  0  0  0  0  0
    1.6616    1.7369   -7.2033 H   0  0  0  0  0  0  0  0  0  0  0  0
  1  2  1  0  0  0  0
  2  3  1  0  0  0  0
  3  4  2  0  0  0  0
  4  5  1  0  0  0  0
  5  6  1  0  0  0  0
  6  7  2  0  0  0  0
  7  8  1  0  0  0  0
  8  9  2  0  0  0  0
  9 10  1  0  0  0  0
  3 11  1  0  0  0  0
 11 12  1  0  0  0  0
 11 13  2  0  0  0  0
 13 14  1  0  0  0  0
 14 15  2  0  0  0  0
 15 16  1  0  0  0  0
 16 17  1  0  0  0  0
 15 18  1  0  0  0  0
 18 19  1  0  0  0  0
 19 20  1  0  0  0  0
 18 21  2  0  0  0  0
 21 22  1  0  0  0  0
 22 23  2  0  0  0  0
 23 24  1  0  0  0  0
 24 25  2  0  0  0  0
 25 26  1  0  0  0  0
 26 27  1  0  0  0  0
 27 28  1  0  0  0  0
 28 29  2  0  0  0  0
 29 30  1  0  0  0  0
 30 31  1  0  0  0  0
 31 32  2  0  0  0  0
 32 33  1  0  0  0  0
 33 34  2  0  0  0  0
 34 35  1  0  0  0  0
 28 36  1  0  0  0  0
 36 37  1  0  0  0  0
 36 38  2  0  0  0  0
 38 39  1  0  0  0  0
 39 40  2  0  0  0  0
 40 41  1  0  0  0  0
 41 42  1  0  0  0  0
 40 43  1  0  0  0  0
 43 44  1  0  0  0  0
 44 45  1  0  0  0  0
 43 46  2  0  0  0  0
 46 47  1  0  0  0  0
 47 48  2  0  0  0  0
 48 49  1  0  0  0  0
 49 50  2  0  0  0  0
 50 51  1  0  0  0  0
 51 52  1  0  0  0  0
 52 53  1  0  0  0  0
 53 54  2  0  0  0  0
 54 55  1  0  0  0  0
 55 56  1  0  0  0  0
 56 57  2  0  0  0  0
 57 58  1  0  0  0  0
 58 59  2  0  0  0  0
 59 60  1  0  0  0  0
 53 61  1  0  0  0  0
 61 62  1  0  0  0  0
 61 63  2  0  0  0  0
 63 64  1  0  0  0  0
 64 65  2  0  0  0  0
 65 66  1  0  0  0  0
 66 67  1  0  0  0  0
 65 68  1  0  0  0  0
 68 69  1  0  0  0  0
 69 70  1  0  0  0  0
 68 71  2  0  0  0  0
 71 72  1  0  0  0  0
 72 73  2  0  0  0  0
 73 74  1  0  0  0  0
 74 75  2  0  0  0  0
  5  1  2  0  0  0  0
 23 12  1  0  0  0  0
 30 26  2  0  0  0  0
 48 37  1  0  0  0  0
 55 51  2  0  0  0  0
 73 62  1  0  0  0  0
  9  4  1  0  0  0  0
 22 13  1  0  0  0  0
 34 29  1  0  0  0  0
 47 38  1  0  0  0  0
 59 54  1  0  0  0  0
 72 63  1  0  0  0  0
  1 76  1  0  0  0  0
  6 77  1  0  0  0  0
  7 78  1  0  0  0  0
  8 79  1  0  0  0  0
 14 80  1  0  0  0  0
 17 81  1  0  0  0  0
 17 82  1  0  0  0  0
 17 83  1  0  0  0  0
 20 84  1  0  0  0  0
 20 85  1  0  0  0  0
 20 86  1  0  0  0  0
 21 87  1  0  0  0  0
 24 88  1  0  0  0  0
 25 89  1  0  0  0  0
 31 90  1  0  0  0  0
 32 91  1  0  0  0  0
 33 92  1  0  0  0  0
 39 93  1  0  0  0  0
 42 94  1  0  0  0  0
 42 95  1  0  0  0  0
 42 96  1  0  0  0  0
 45 97  1  0  0  0  0
 45 98  1  0  0  0  0
 45 99  1  0  0  0  0
 46100  1  0  0  0  0
 49101  1  0  0  0  0
 50102  1  0  0  0  0
 56103  1  0  0  0  0
 57104  1  0  0  0  0
 58105  1  0  0  0  0
 64106  1  0  0  0  0
 67107  1  0  0  0  0
 67108  1  0  0  0  0
 67109  1  0  0  0  0
 70110  1  0  0  0  0
 70111  1  0  0  0  0
 70112  1  0  0  0  0
 71113  1  0  0  0  0
 74114  1  0  0  0  0
 75115  1  0  0  0  0
 75116  1  0  0  0  0
M  END
