247

C        -13.38310       13.52290        8.69520
C        -13.75860       12.27810        8.33920
C        -12.66340       11.36970        8.24330
C        -12.69160        9.99510        7.93930
C        -13.90340        9.29270        7.57560
C        -14.26470        8.01200        7.89040
C        -15.48920        7.63500        7.31450
F        -16.03460        6.42690        7.52130
C        -16.08370        8.59790        6.54170
S        -17.55980        8.41210        5.62880
C        -18.00470       10.15440        5.30000
C        -18.51960       10.85920        6.53920
S        -15.08970       10.02060        6.52080
C        -11.46860        9.32810        7.97100
C        -10.24030        9.96510        8.26790
C        -10.21640       11.33510        8.59480
C         -8.98340       11.99270        8.96300
S         -8.63000       13.61020        8.41460
C         -7.12670       13.64500        9.28210
S         -6.00960       14.98290        9.24660
C         -7.11660       16.35650        8.76640
C         -8.07850       16.73520        9.87460
C         -6.93600       12.44880        9.92440
C         -7.96950       11.51480        9.74760
F         -5.86140       12.18910       10.68420
C        -11.43860       12.00270        8.55760
S        -11.68150       13.68560        8.94160
C         -9.13840        9.08590        8.11620
C         -9.49210        7.82340        7.74620
S        -11.22670        7.64880        7.57230
C         -8.63710        6.71300        7.48670
C         -9.00210        5.44340        7.15260
C         -7.90700        4.57780        6.91240
C         -7.95170        3.21490        6.55040
C         -9.20290        2.49240        6.53620
C        -10.23180        2.59090        7.43310
C        -11.29350        1.72030        7.14000
F        -12.37970        1.65060        7.93230
C        -11.11530        0.96090        6.01300
S        -12.12630       -0.24200        5.25500
C        -13.80210        0.26940        5.81240
C        -14.83780       -0.43790        4.96200
S         -9.57400        1.31690        5.30030
C         -6.73550        2.62300        6.22540
C         -5.49770        3.30250        6.33270
C         -5.44100        4.63850        6.78600
C         -4.18510        5.33290        6.96290
S         -2.77270        4.49930        7.57010
C         -1.80500        5.93930        7.51020
S         -0.09390        5.97500        7.85270
C          0.07490        4.54620        8.98080
C         -0.54020        4.81550       10.33860
C         -2.56340        6.97890        7.03860
C         -3.89670        6.65180        6.74030
F         -2.07790        8.21700        6.86900
C         -6.66670        5.25080        7.03490
S         -6.89680        6.90610        7.53070
C         -4.42470        2.49510        5.89650
C         -4.79630        1.24170        5.50160
S         -6.51750        0.99020        5.65440
C         -3.90680        0.26140        4.96740
C         -2.54590        0.36460        4.95030
C         -1.90140       -0.67990        4.25130
C         -0.52430       -0.78890        3.96970
C          0.40480        0.13320        4.58560
C          0.38690        0.56370        5.88430
C          1.38650        1.51130        6.15360
F          1.54080        2.03730        7.38570
C          2.16410        1.84440        5.07580
S          3.46730        2.99690        4.93120
C          2.95000        4.26670        6.15960
C          3.64120        5.57780        5.84810
S          1.67370        0.92390        3.68780
C         -0.15760       -1.77600        3.06570
C         -1.08260       -2.69690        2.50860
C         -2.44760       -2.64190        2.86410
C         -3.42860       -3.58330        2.36370
S         -3.40540       -4.17100        0.72810
C         -4.79320       -5.18040        1.00130
S         -5.43690       -6.23270       -0.24370
C         -4.35840       -7.69870        0.01550
C         -2.92670       -7.45230       -0.41390
C         -5.24080       -5.01130        2.28150
C         -4.48560       -4.11280        3.05540
F         -6.28990       -5.67240        2.78270
C         -2.82540       -1.60860        3.71760
S         -4.46070       -1.18910        4.16160
C         -0.44630       -3.58660        1.61270
C          0.88980       -3.35210        1.45450
S          1.45420       -2.04420        2.46770
C          1.75640       -3.98660        0.51560
C          1.38880       -4.84920       -0.47810
C          2.44730       -5.20820       -1.34330
C          2.38120       -5.99690       -2.51360
C          1.14850       -6.56080       -3.01920
C          0.98930       -7.72730       -3.71520
C         -0.32310       -7.92020       -4.17960
F         -0.64770       -9.01980       -4.89020
C         -1.19980       -6.92080       -3.85390
S         -2.88660       -6.62240       -4.21280
C         -3.50450       -8.23330       -4.81950
C         -3.64160       -9.25530       -3.70970
S         -0.37460       -5.70510       -2.92890
C          3.57210       -6.15050       -3.21570
C          4.79860       -5.56190       -2.81900
C          4.86460       -4.77380       -1.64970
C          6.07880       -4.11540       -1.22400
S          7.18810       -3.41370       -2.37740
C          8.23500       -2.82700       -1.12540
S          9.76010       -2.03230       -1.42310
C          9.55520       -1.49260       -3.15830
C          8.58810       -0.33350       -3.29010
C          7.72740       -3.17940        0.09830
C          6.51710       -3.89040        0.05300
F          8.33540       -2.87600        1.25470
C          3.67420       -4.62370       -0.94230
S          3.46410       -3.62180        0.46700
C          5.83220       -5.83750       -3.73720
C          5.44280       -6.55590       -4.83710
S          3.74790       -6.99110       -4.73450
C          6.27150       -6.85380       -5.94570
S          7.84240       -6.11310       -5.99290
C          6.05100       -7.61500       -7.09770
C          4.90840       -8.37420       -7.42380
C          4.85550       -9.06100       -8.60530
O          3.81460       -9.81630       -9.02300
C          2.67900       -9.90470       -8.19580
C          5.96660       -9.01880       -9.52230
O          5.78340       -9.74020      -10.65290
C          6.81320       -9.75670      -11.61080
C          7.08450       -8.29240       -9.21660
C          7.15300       -7.57740       -8.00310
C          8.21510       -6.78550       -7.54870
C          9.43730       -6.49130       -8.19110
C         10.39020       -5.69070       -7.65160
C         11.62550       -5.34960       -8.26020
C         12.11940       -5.67050       -9.49510
C         13.41350       -5.16040       -9.75030
C         14.18640       -5.28250      -10.92470
C         13.73750       -6.02290      -12.08320
C         13.98620       -5.74320      -13.39980
C         13.46150       -6.70830      -14.27530
F         13.60580       -6.59710      -15.60850
C         12.79600       -7.73670      -13.66470
S         12.00230       -9.15750      -14.30810
C         11.28110       -8.52810      -15.87010
C         10.23820       -7.45660      -15.62570
S         12.82460       -7.50640      -11.94580
C         15.43310       -4.65470      -10.91380
C         15.92530       -3.91640       -9.81350
C         15.13370       -3.75320       -8.66020
C         15.57260       -2.92880       -7.55530
S         15.27100       -3.39950       -5.90320
C         15.98000       -1.93820       -5.28900
S         16.15220       -1.57440       -3.59190
C         14.84040       -2.61900       -2.86210
C         13.44930       -2.10980       -3.18220
C         16.43480       -1.17290       -6.33110
C         16.21310       -1.72120       -7.60520
F         17.02600        0.02040       -6.16140
C         13.90580       -4.40550       -8.65490
S         12.75490       -4.36500       -7.35130
C         17.26120       -3.46840      -10.03230
C         17.74840       -3.83210      -11.23530
S         16.62200       -4.73260      -12.18780
H        -14.00680       14.38360        8.83680
H        -14.78120       12.00280        8.16190
H        -13.71060        7.36500        8.54430
H        -18.77620       10.09200        4.53330
H        -17.12470       10.64650        4.88580
H        -19.39370       10.34560        6.93250
H        -17.75620       10.88720        7.31360
H        -18.79650       11.88170        6.29120
H         -6.43630       17.17590        8.53700
H         -7.63900       16.05690        7.85800
H         -8.68040       17.58550        9.56150
H         -7.53250       17.00560       10.77540
H         -8.74790       15.90980       10.10640
H         -7.97660       10.55760       10.23520
H         -8.11270        9.38140        8.24060
H        -10.03060        5.15140        7.04410
H        -10.22160        3.21240        8.30930
H        -13.86410        1.35050        5.69640
H        -13.90500        0.00440        6.86340
H        -14.70820       -0.18560        3.91200
H        -15.83440       -0.13470        5.27460
H        -14.75020       -1.51640        5.07140
H         -0.37690        3.68370        8.49180
H          1.14970        4.38820        9.05590
H         -1.61190        4.98260       10.25270
H         -0.08710        5.69280       10.79460
H         -0.37660        3.95900       10.98880
H         -4.58950        7.37000        6.34410
H         -3.41240        2.84150        5.82530
H         -2.01660        1.19040        5.38460
H         -0.27790        0.18820        6.64040
H          3.21840        3.90280        7.15030
H          1.86860        4.36780        6.08150
H          4.72070        5.47200        5.92650
H          3.39720        5.90730        4.84100
H          3.30890        6.33700        6.55240
H         -4.43020       -7.97610        1.06680
H         -4.82730       -8.47410       -0.58900
H         -2.43980       -6.74080        0.24930
H         -2.36590       -8.38480       -0.38680
H         -2.90120       -7.05130       -1.42400
H         -4.70280       -3.91200        4.08780
H         -0.95500       -4.36920        1.08520
H          0.38090       -5.19710       -0.59690
H          1.76190       -8.45490       -3.87890
H         -4.47710       -7.98310       -5.24330
H         -2.84650       -8.57450       -5.61510
H         -4.04260      -10.18110       -4.11610
H         -4.31710       -8.88890       -2.94070
H         -2.67670       -9.46980       -3.25690
H         10.55930       -1.20500       -3.46740
H          9.23520       -2.35970       -3.73660
H          8.52800       -0.02550       -4.33170
H          7.59220       -0.61860       -2.95880
H          8.92430        0.51160       -2.69410
H          6.02290       -4.24340        0.93860
H          6.85110       -5.52290       -3.61190
H          4.08740       -8.40390       -6.72890
H          2.22540       -8.92250       -8.03050
H          1.97680      -10.54350       -8.72810
H          2.92080      -10.35760       -7.22920
H          6.45170      -10.38890      -12.41980
H          7.01620       -8.75250      -11.99750
H          7.73600      -10.18200      -11.20320
H          7.92490       -8.25640       -9.88900
H          9.59380       -6.93380       -9.16390
H         10.21630       -5.26970       -6.66950
H         11.55860       -6.24690      -10.20510
H         14.50360       -4.87200      -13.75510
H         10.83870       -9.41650      -16.31990
H         12.09060       -8.17280      -16.50370
H         10.68710       -6.57710      -15.16820
H          9.79190       -7.15950      -16.57230
H          9.45370       -7.82830      -14.96960
H         14.99340       -3.63770       -3.21780
H         15.03680       -2.57690       -1.79140
H         12.71180       -2.71680       -2.66110
H         13.25290       -2.16700       -4.25110
H         13.34260       -1.07700       -2.85770
H         16.46780       -1.20520       -8.51230
H         17.83250       -2.92790       -9.30090
H         18.71840       -3.62850      -11.64460
