252

C          1.14170       -3.85510        9.59050
C          1.29110       -2.79360        8.77110
C          0.20200       -2.63270        7.86150
C          0.00880       -1.63310        6.89110
C          1.08220       -0.71550        6.49990
C          2.39370       -1.18020        6.38160
C          3.39580       -0.36740        5.90160
C          3.13480        0.93670        5.49220
S          4.46460        1.87040        4.79950
C          3.63220        2.78510        3.44250
C          4.61230        3.00810        2.30880
C          1.83950        1.41240        5.66970
F          1.53110        2.69280        5.36700
C          0.82900        0.61150        6.16130
C         -1.22740       -1.63020        6.25200
C         -2.21710       -2.61980        6.47060
C         -1.98850       -3.65850        7.38000
C         -2.96890       -4.72720        7.60250
C         -4.28090       -4.43840        7.97240
C         -5.18340       -5.45580        8.19270
C         -4.81710       -6.79510        8.05550
S         -6.06270       -7.99270        8.41650
C         -5.62430       -9.44600        7.38090
C         -6.86140      -10.30430        7.20320
C         -3.49870       -7.06440        7.69890
C         -2.58550       -6.05610        7.46680
F         -3.05930       -8.33830        7.57500
C         -0.78480       -3.62470        8.06730
S         -0.31950       -4.74110        9.32240
C         -3.34140       -2.45760        5.61320
C         -3.24620       -1.38080        4.79510
S         -1.74730       -0.49600        5.03440
C         -4.07660       -0.98990        3.68680
C         -4.41180        0.26020        3.27670
C         -4.96880        0.30310        1.96840
C         -5.33450        1.43100        1.21660
C         -5.25810        2.79660        1.75130
C         -4.08920        3.29040        2.32750
C         -4.02520        4.59470        2.76900
C         -5.12090        5.45010        2.67010
S         -4.93160        7.09070        3.30280
C         -5.81100        8.13850        2.08470
C         -5.26470        7.96210        0.68250
C         -6.29000        4.93300        2.12000
F         -7.40780        5.68560        2.03430
C         -6.35930        3.63890        1.64590
C         -5.68310        1.21280       -0.10800
C         -5.66790       -0.06950       -0.70920
C         -5.33620       -1.20600        0.04810
C         -5.12830       -2.50340       -0.60810
C         -6.07400       -3.07410       -1.45940
C         -5.78900       -4.23420       -2.14560
C         -4.56000       -4.88740       -2.01180
S         -4.34470       -6.35600       -2.95940
C         -2.52790       -6.57550       -3.12430
C         -2.26980       -7.60670       -4.20420
C         -3.64600       -4.32970       -1.12160
C         -3.90980       -3.15570       -0.44700
F         -2.45200       -4.91570       -0.87470
C         -5.01940       -0.98430        1.37880
S         -4.51040       -2.21680        2.50260
C         -5.76060        0.00870       -2.11860
C         -5.80360        1.28730       -2.60110
S         -5.89450        2.46840       -1.30800
C         -5.40360        1.64270       -3.92850
C         -5.11660        0.74110       -4.91590
C         -4.12200        1.19270       -5.81570
C         -3.31670        0.38810       -6.63720
C         -3.49720       -1.06540       -6.77790
C         -3.57800       -1.88810       -5.65490
C         -3.60470       -3.26080       -5.78980
C         -3.54410       -3.85640       -7.04390
S         -3.53300       -5.62580       -7.15860
C         -1.97230       -5.89520       -8.08040
C         -0.77190       -5.35970       -7.32530
C         -3.49500       -3.02610       -8.15830
F         -3.46750       -3.55310       -9.39950
C         -3.45760       -1.65150       -8.03840
C         -2.14380        0.96110       -7.09780
C         -1.75820        2.29820       -6.82650
C         -2.62230        3.13480       -6.09820
C         -2.25340        4.51300       -5.73870
C         -1.08870        4.79000       -5.02950
C         -0.73120        6.08740       -4.71970
C         -1.52770        7.15680       -5.11340
S         -1.16840        8.85180       -4.79370
C          0.63070        8.86320       -4.47270
C          1.43840        8.53110       -5.71220
C         -2.71700        6.86120       -5.78170
C         -3.08650        5.57070       -6.09170
F         -3.53090        7.86990       -6.14990
C         -3.76080        2.54280       -5.57450
S         -4.68510        3.21500       -4.25080
C         -0.37030        2.49950       -7.04950
C          0.30170        1.34590       -7.34920
S         -0.80220        0.02370       -7.70500
C          1.63040        1.01940       -6.92920
C          2.54440        1.83640       -6.32220
C          3.41020        1.15190       -5.43080
C          4.30560        1.69730       -4.49490
C          4.54930        3.14440       -4.39060
C          5.83630        3.66970       -4.46640
C          6.05270        5.02310       -4.31110
C          4.99840        5.89920       -4.06300
S          5.36380        7.62190       -3.90170
C          4.25430        8.14920       -2.53030
C          4.89400        9.30980       -1.79490
C          3.71820        5.36020       -3.99890
F          2.64470        6.15560       -3.77500
C          3.48660        4.00940       -4.15280
C          4.84060        0.82840       -3.55960
C          4.51320       -0.54950       -3.48930
C          3.67080       -1.10890       -4.46220
C          3.22060       -2.50940       -4.41040
C          4.11040       -3.57370       -4.48860
C          3.65680       -4.88020       -4.50490
C          2.29790       -5.16380       -4.43760
S          1.59310       -6.78110       -4.46150
C          2.87590       -7.80620       -5.25800
C          3.08110       -7.43360       -6.71350
C          1.42080       -4.08690       -4.31180
C          1.85820       -2.78300       -4.30220
F          0.09730       -4.32600       -4.20230
C          3.15140       -0.24180       -5.40810
S          1.94420       -0.67750       -6.58540
C          4.96290       -1.14130       -2.28620
C          5.60980       -0.27680       -1.44420
S          5.78320        1.31860       -2.17380
C          5.95200       -0.51110       -0.08820
S          5.18960       -1.84390        0.73660
C          6.69800        0.25470        0.80900
C          7.47430        1.40140        0.53550
C          8.09220        2.06730        1.55660
O          8.84430        3.18530        1.41660
C          9.00380        3.72340        0.12720
C          7.96590        1.60430        2.91660
O          8.59610        2.38170        3.82910
C          8.45150        2.05480        5.19020
C          7.25510        0.47150        3.19350
C          6.61560       -0.23180        2.14860
C          5.79090       -1.34800        2.28290
C          5.54820       -2.08830        3.48310
C          4.39040       -2.64140        3.91790
C          3.06660       -2.46280        3.43580
S          2.60890       -1.20620        2.34180
C          1.92590       -3.16350        3.85170
C          1.87670       -4.21080        4.79700
C          0.69390       -4.83520        5.07040
O          0.51550       -5.82080        5.98710
C          1.63270       -6.26720        6.71490
C         -0.48880       -4.49400        4.32560
O         -1.55430       -5.29640        4.57910
C         -2.64960       -5.24670        3.69790
C         -0.46910       -3.45840        3.43630
C          0.72190       -2.72760        3.21500
C          0.92880       -1.63350        2.37280
C          0.07070       -0.83860        1.54540
C         -1.26220       -0.80810        1.51810
H          1.80830       -4.18530       10.36360
H          2.12160       -2.11380        8.83040
H          2.61770       -2.20670        6.62060
H          4.40210       -0.74040        5.79990
H          3.26660        3.72930        3.84500
H          2.79390        2.17020        3.11820
H          4.13160        3.57950        1.51720
H          5.48500        3.55700        2.65550
H          4.94510        2.05720        1.90000
H         -0.14630        1.05090        6.29730
H         -4.58730       -3.41130        8.10310
H         -6.19880       -5.23320        8.48250
H         -5.26660       -9.06680        6.42500
H         -4.83030       -9.99910        7.88010
H         -7.65270       -9.73900        6.71580
H         -6.62160      -11.17140        6.59150
H         -7.22810      -10.64840        8.16760
H         -1.58630       -6.31200        7.15280
H         -4.18590       -3.12370        5.61680
H         -4.24700        1.13210        3.88310
H         -3.21490        2.66050        2.39200
H         -3.11360        4.98100        3.19790
H         -6.87640        7.92640        2.13810
H         -5.63140        9.14860        2.45320
H         -5.43970        6.95090        0.31940
H         -4.19420        8.15570        0.66140
H         -5.75900        8.65780        0.00770
H         -7.28810        3.29010        1.22130
H         -7.03790       -2.60300       -1.57930
H         -6.51780       -4.66420       -2.81540
H         -2.09820       -5.61190       -3.39270
H         -2.12950       -6.90470       -2.16660
H         -2.71880       -7.29300       -5.14360
H         -2.69130       -8.56980       -3.92460
H         -1.19640       -7.71790       -4.34080
H         -3.13620       -2.74950        0.18590
H         -5.67940       -0.85610       -2.75050
H         -5.51960       -0.25390       -4.94140
H         -3.56440       -1.45120       -4.66770
H         -3.65060       -3.89550       -4.91900
H         -1.91980       -6.97810       -8.19130
H         -2.07040       -5.44220       -9.06520
H         -0.70620       -5.81170       -6.33840
H         -0.83840       -4.27940       -7.20420
H          0.13890       -5.58560       -7.87740
H         -3.40450       -1.04750       -8.93100
H         -0.46690        3.97540       -4.68920
H          0.17440        6.25980       -4.16270
H          0.84330        8.18590       -3.64710
H          0.82070        9.88580       -4.14580
H          2.50220        8.60240       -5.49420
H          1.20090        9.22520       -6.51480
H          1.22450        7.52060       -6.05360
H         -4.00920        5.39850       -6.62350
H          0.12740        3.42980       -6.84830
H          2.54810        2.90460       -6.44180
H          6.67020        3.00970       -4.64950
H          7.05020        5.42880       -4.37370
H          3.29390        8.43690       -2.95580
H          4.12610        7.28930       -1.87470
H          5.04790       10.14960       -2.46860
H          4.24670        9.62960       -0.98100
H          5.85700        9.01730       -1.38280
H          2.47710        3.63740       -4.06760
H          5.17010       -3.37800       -4.55590
H          4.37650       -5.68040       -4.57130
H          3.79390       -7.73480       -4.67620
H          2.48610       -8.81990       -5.16620
H          3.83030       -8.08410       -7.16030
H          3.41470       -6.40200       -6.80850
H          2.14980       -7.54600       -7.26370
H          1.13510       -1.98920       -4.20290
H          4.75960       -2.16390       -2.02130
H          7.56550        1.73840       -0.48260
H          9.61730        4.61370        0.25420
H          8.04090        4.00200       -0.31390
H          9.51530        3.02210       -0.54010
H          7.39780        2.04640        5.48690
H          8.97930        2.83400        5.73700
H          8.90270        1.08360        5.41880
H          7.14690        0.10880        4.20110
H          6.42090       -2.21030        4.11520
H          4.45690       -3.26340        4.80180
H          2.78530       -4.51170        5.29190
H          2.39130       -6.70310        6.05690
H          1.25860       -7.03390        7.39160
H          2.08120       -5.45740        7.30050
H         -3.31920       -6.04320        4.01730
H         -2.33740       -5.42210        2.66370
H         -3.17670       -4.29000        3.75570
H         -1.34980       -3.21500        2.86980
H          0.61220       -0.17410        0.88130
H         -1.78730       -0.15670        0.84030
H         -1.86920       -1.40320        2.17140
