72

C          7.48510       -2.88490        8.82460
S          9.00370       -2.79280        8.04840
C          8.26280       -2.18690        6.60170
C          9.12910       -1.95190        5.47090
O         10.33020       -2.06590        5.50470
C          6.88250       -2.07110        6.73950
C          6.45870       -2.48070        8.03050
C          5.94500       -1.58620        5.75830
S          6.38630       -0.57130        4.42560
C          4.73660       -0.44830        3.90630
C          4.42740        0.44160        2.81440
O          5.24500        0.96070        2.09360
C          3.88880       -1.18840        4.72540
C          4.58760       -1.81240        5.77530
C          2.46320       -1.32990        4.55780
S          1.46340       -1.58100        5.94870
C          0.03810       -1.64340        4.96480
C         -1.21720       -1.77970        5.66120
O         -1.30860       -1.93340        6.85630
C          0.33600       -1.48930        3.61360
C          1.72280       -1.31650        3.40290
C         -0.59750       -1.49520        2.51460
S         -2.15760       -2.24860        2.59220
C         -2.51610       -1.80480        0.94750
C         -3.69260       -2.36910        0.34670
O         -4.03510       -2.25880       -0.81100
C         -1.47100       -1.06590        0.38620
C         -0.38400       -0.93850        1.27900
C         -1.45220       -0.50550       -0.92980
S          0.02110       -0.54950       -1.84520
C         -2.46930        0.10220       -1.66180
C         -3.76960        0.42360       -1.22160
C         -4.65190        1.01670       -2.08220
O         -5.93450        1.32420       -1.79590
C         -6.46640        0.88320       -0.56960
C         -4.23130        1.40090       -3.40810
O         -5.18500        2.02380       -4.13500
C         -4.87100        2.43100       -5.44540
C         -2.95480        1.15060       -3.82690
C         -2.05940        0.46070       -2.98140
C         -0.73900        0.10460       -3.25910
C          0.02270        0.21950       -4.46220
C         -0.41220        0.08210       -5.73490
C         -1.68910       -0.39440       -6.17570
S         -2.26810        0.05670       -7.74970
C         -3.71970       -0.87280       -7.52660
C         -4.74070       -0.90790       -8.53940
O         -4.71530       -0.31260       -9.59130
C         -3.71810       -1.50580       -6.29950
C         -2.58320       -1.23740       -5.54020
H          7.42410       -3.23250        9.83720
H          8.60460       -1.66570        4.54030
H          5.43570       -2.45280        8.35730
H          3.34490        0.64230        2.69700
H          4.09670       -2.43640        6.50000
H         -2.11310       -1.71880        5.01800
H          2.16190       -1.24490        2.42490
H         -4.28700       -2.97110        1.06310
H          0.51030       -0.40310        1.01350
H         -4.04280        0.20890       -0.20340
H         -6.33530       -0.19660       -0.44920
H         -7.52780        1.12220       -0.60550
H         -6.00710        1.40290        0.27780
H         -4.07120        3.17820       -5.45350
H         -4.57930        1.58140       -6.07060
H         -5.78250        2.87420       -5.84210
H         -2.60480        1.48840       -4.78650
H          1.07600        0.42670       -4.31660
H          0.27870        0.32910       -6.53030
H         -5.60000       -1.55060       -8.25930
H         -4.52280       -2.13870       -5.96970
H         -2.40300       -1.66280       -4.57050
