
  xtb     03082203513D
 energy: -479.906636204562 gnorm: 0.000382901229 xtb: 6.4.1 (unknown)
277303  0     0  0            999 V2000
    8.9765    1.0777   20.0794 C   0  0  0  0  0  0  0  0  0  0  0  0
    7.8806    0.3729   19.7334 C   0  0  0  0  0  0  0  0  0  0  0  0
    7.7789    0.1574   18.3264 C   0  0  0  0  0  0  0  0  0  0  0  0
    6.7521   -0.4903   17.6227 C   0  0  0  0  0  0  0  0  0  0  0  0
    5.6229   -1.1286   18.3112 C   0  0  0  0  0  0  0  0  0  0  0  0
    4.3083   -0.8399   17.9504 C   0  0  0  0  0  0  0  0  0  0  0  0
    3.2542   -1.4614   18.5843 C   0  0  0  0  0  0  0  0  0  0  0  0
    3.4643   -2.3896   19.6021 C   0  0  0  0  0  0  0  0  0  0  0  0
    2.0313   -3.0867   20.3711 S   0  0  0  0  0  0  0  0  0  0  0  0
    2.4742   -4.8448   20.6281 C   0  0  0  0  0  0  0  0  0  0  0  0
    2.8408   -5.5330   19.3289 C   0  0  0  0  0  0  0  0  0  0  0  0
    4.7813   -2.6508   19.9673 C   0  0  0  0  0  0  0  0  0  0  0  0
    5.0663   -3.5135   20.9683 F   0  0  0  0  0  0  0  0  0  0  0  0
    5.8472   -2.0470   19.3313 C   0  0  0  0  0  0  0  0  0  0  0  0
    6.8568   -0.5021   16.2397 C   0  0  0  0  0  0  0  0  0  0  0  0
    7.9442    0.0828   15.5474 C   0  0  0  0  0  0  0  0  0  0  0  0
    8.9667    0.7447   16.2476 C   0  0  0  0  0  0  0  0  0  0  0  0
   10.0612    1.3914   15.5160 C   0  0  0  0  0  0  0  0  0  0  0  0
    9.7885    2.2180   14.4275 C   0  0  0  0  0  0  0  0  0  0  0  0
   10.8030    2.7697   13.6710 C   0  0  0  0  0  0  0  0  0  0  0  0
   12.1359    2.5191   13.9782 C   0  0  0  0  0  0  0  0  0  0  0  0
   13.5189    3.1058   13.0622 S   0  0  0  0  0  0  0  0  0  0  0  0
   12.8024    3.6687   11.4772 C   0  0  0  0  0  0  0  0  0  0  0  0
   12.3699    5.1225   11.5004 C   0  0  0  0  0  0  0  0  0  0  0  0
   12.3953    1.7345   15.1047 C   0  0  0  0  0  0  0  0  0  0  0  0
   11.3928    1.1738   15.8637 C   0  0  0  0  0  0  0  0  0  0  0  0
   13.6750    1.4912   15.4496 F   0  0  0  0  0  0  0  0  0  0  0  0
    8.8603    0.7532   17.6309 C   0  0  0  0  0  0  0  0  0  0  0  0
    9.9634    1.5340   18.7340 S   0  0  0  0  0  0  0  0  0  0  0  0
    7.8461   -0.1170   14.1490 C   0  0  0  0  0  0  0  0  0  0  0  0
    6.7224   -0.7878   13.7652 C   0  0  0  0  0  0  0  0  0  0  0  0
    5.7324   -1.2520   15.1332 S   0  0  0  0  0  0  0  0  0  0  0  0
    6.3232   -1.0338   12.4159 C   0  0  0  0  0  0  0  0  0  0  0  0
    6.9196   -0.5085   11.3065 C   0  0  0  0  0  0  0  0  0  0  0  0
    6.2708   -0.8462   10.0959 C   0  0  0  0  0  0  0  0  0  0  0  0
    6.6329   -0.4565    8.7958 C   0  0  0  0  0  0  0  0  0  0  0  0
    7.7549    0.4647    8.5790 C   0  0  0  0  0  0  0  0  0  0  0  0
    7.8319    1.6621    9.2912 C   0  0  0  0  0  0  0  0  0  0  0  0
    8.8949    2.5196    9.1119 C   0  0  0  0  0  0  0  0  0  0  0  0
    9.9295    2.2171    8.2283 C   0  0  0  0  0  0  0  0  0  0  0  0
   11.2768    3.3616    8.1490 S   0  0  0  0  0  0  0  0  0  0  0  0
   11.7462    3.3983    6.3813 C   0  0  0  0  0  0  0  0  0  0  0  0
   10.5832    3.7869    5.4918 C   0  0  0  0  0  0  0  0  0  0  0  0
    9.8417    1.0181    7.5275 C   0  0  0  0  0  0  0  0  0  0  0  0
   10.8208    0.6417    6.6778 F   0  0  0  0  0  0  0  0  0  0  0  0
    8.7692    0.1613    7.6785 C   0  0  0  0  0  0  0  0  0  0  0  0
    5.8609   -0.9591    7.7617 C   0  0  0  0  0  0  0  0  0  0  0  0
    4.7456   -1.8098    7.9729 C   0  0  0  0  0  0  0  0  0  0  0  0
    4.3858   -2.2005    9.2752 C   0  0  0  0  0  0  0  0  0  0  0  0
    3.2602   -3.1086    9.5191 C   0  0  0  0  0  0  0  0  0  0  0  0
    2.2851   -2.8102   10.4660 C   0  0  0  0  0  0  0  0  0  0  0  0
    1.2325   -3.6719   10.7055 C   0  0  0  0  0  0  0  0  0  0  0  0
    1.1234   -4.8740   10.0155 C   0  0  0  0  0  0  0  0  0  0  0  0
   -0.1652   -6.0567   10.2140 S   0  0  0  0  0  0  0  0  0  0  0  0
   -0.9632   -5.5862   11.7873 C   0  0  0  0  0  0  0  0  0  0  0  0
   -0.0742   -5.8528   12.9871 C   0  0  0  0  0  0  0  0  0  0  0  0
    2.1061   -5.1578    9.0643 C   0  0  0  0  0  0  0  0  0  0  0  0
    3.1550   -4.3045    8.8098 C   0  0  0  0  0  0  0  0  0  0  0  0
    2.0325   -6.3112    8.3699 F   0  0  0  0  0  0  0  0  0  0  0  0
    5.1542   -1.6907   10.3110 C   0  0  0  0  0  0  0  0  0  0  0  0
    4.9276   -2.0095   12.0134 S   0  0  0  0  0  0  0  0  0  0  0  0
    4.0692   -2.0980    6.7613 C   0  0  0  0  0  0  0  0  0  0  0  0
    4.6343   -1.5139    5.6648 C   0  0  0  0  0  0  0  0  0  0  0  0
    6.0576   -0.5780    6.0729 S   0  0  0  0  0  0  0  0  0  0  0  0
    4.1641   -1.5582    4.3170 C   0  0  0  0  0  0  0  0  0  0  0  0
    3.0579   -2.2023    3.8430 C   0  0  0  0  0  0  0  0  0  0  0  0
    2.8213   -1.9756    2.4653 C   0  0  0  0  0  0  0  0  0  0  0  0
    1.7511   -2.4323    1.6847 C   0  0  0  0  0  0  0  0  0  0  0  0
    0.6376   -3.2488    2.1885 C   0  0  0  0  0  0  0  0  0  0  0  0
    0.2742   -4.4178    1.5206 C   0  0  0  0  0  0  0  0  0  0  0  0
   -0.8723   -5.0982    1.8679 C   0  0  0  0  0  0  0  0  0  0  0  0
   -1.6972   -4.6447    2.8942 C   0  0  0  0  0  0  0  0  0  0  0  0
   -3.1825   -5.5547    3.2137 S   0  0  0  0  0  0  0  0  0  0  0  0
   -4.4392   -4.2361    3.4125 C   0  0  0  0  0  0  0  0  0  0  0  0
   -4.5665   -3.3771    2.1702 C   0  0  0  0  0  0  0  0  0  0  0  0
   -1.2796   -3.5231    3.6044 C   0  0  0  0  0  0  0  0  0  0  0  0
   -1.9956   -3.0628    4.6536 F   0  0  0  0  0  0  0  0  0  0  0  0
   -0.1411   -2.8216    3.2575 C   0  0  0  0  0  0  0  0  0  0  0  0
    1.7253   -2.0127    0.3651 C   0  0  0  0  0  0  0  0  0  0  0  0
    2.6979   -1.1672   -0.2217 C   0  0  0  0  0  0  0  0  0  0  0  0
    3.7851   -0.7317    0.5548 C   0  0  0  0  0  0  0  0  0  0  0  0
    4.8160    0.1615    0.0119 C   0  0  0  0  0  0  0  0  0  0  0  0
    4.4753    1.3430   -0.6460 C   0  0  0  0  0  0  0  0  0  0  0  0
    5.4527    2.1725   -1.1492 C   0  0  0  0  0  0  0  0  0  0  0  0
    6.8082    1.8679   -1.0156 C   0  0  0  0  0  0  0  0  0  0  0  0
    7.9520    3.0355   -1.6776 S   0  0  0  0  0  0  0  0  0  0  0  0
    9.4343    2.0387   -2.1098 C   0  0  0  0  0  0  0  0  0  0  0  0
   10.2500    2.8015   -3.1351 C   0  0  0  0  0  0  0  0  0  0  0  0
    7.1332    0.7012   -0.3298 C   0  0  0  0  0  0  0  0  0  0  0  0
    6.1631   -0.1452    0.1680 C   0  0  0  0  0  0  0  0  0  0  0  0
    8.4223    0.3519   -0.1195 F   0  0  0  0  0  0  0  0  0  0  0  0
    3.8162   -1.1522    1.8779 C   0  0  0  0  0  0  0  0  0  0  0  0
    5.0013   -0.6682    3.0616 S   0  0  0  0  0  0  0  0  0  0  0  0
    2.3736   -0.8502   -1.5695 C   0  0  0  0  0  0  0  0  0  0  0  0
    1.1877   -1.3807   -1.9801 C   0  0  0  0  0  0  0  0  0  0  0  0
    0.4294   -2.3644   -0.7389 S   0  0  0  0  0  0  0  0  0  0  0  0
    0.4481   -1.1947   -3.1849 C   0  0  0  0  0  0  0  0  0  0  0  0
   -0.8123   -1.6710   -3.3897 C   0  0  0  0  0  0  0  0  0  0  0  0
   -1.3928   -1.2527   -4.6077 C   0  0  0  0  0  0  0  0  0  0  0  0
   -2.6965   -1.5160   -5.0568 C   0  0  0  0  0  0  0  0  0  0  0  0
   -3.6090   -2.2770   -4.1908 C   0  0  0  0  0  0  0  0  0  0  0  0
   -3.8305   -1.8511   -2.8814 C   0  0  0  0  0  0  0  0  0  0  0  0
   -4.5847   -2.6098   -2.0119 C   0  0  0  0  0  0  0  0  0  0  0  0
   -5.1418   -3.8176   -2.4176 C   0  0  0  0  0  0  0  0  0  0  0  0
   -6.0622   -4.7680   -1.2330 S   0  0  0  0  0  0  0  0  0  0  0  0
   -5.1949   -6.3798   -1.3158 C   0  0  0  0  0  0  0  0  0  0  0  0
   -3.7722   -6.2817   -0.8006 C   0  0  0  0  0  0  0  0  0  0  0  0
   -4.9703   -4.1980   -3.7446 C   0  0  0  0  0  0  0  0  0  0  0  0
   -5.5300   -5.3360   -4.2034 F   0  0  0  0  0  0  0  0  0  0  0  0
   -4.2124   -3.4506   -4.6260 C   0  0  0  0  0  0  0  0  0  0  0  0
   -3.0400   -0.9998   -6.2928 C   0  0  0  0  0  0  0  0  0  0  0  0
   -2.1497   -0.2120   -7.0683 C   0  0  0  0  0  0  0  0  0  0  0  0
   -0.8551    0.0764   -6.6004 C   0  0  0  0  0  0  0  0  0  0  0  0
    0.0558    0.9434   -7.3585 C   0  0  0  0  0  0  0  0  0  0  0  0
   -0.3505    2.2058   -7.7805 C   0  0  0  0  0  0  0  0  0  0  0  0
    0.5012    3.0339   -8.4860 C   0  0  0  0  0  0  0  0  0  0  0  0
    1.7920    2.6230   -8.7991 C   0  0  0  0  0  0  0  0  0  0  0  0
    2.9629    3.5680   -9.7114 S   0  0  0  0  0  0  0  0  0  0  0  0
    2.2189    5.2427   -9.7449 C   0  0  0  0  0  0  0  0  0  0  0  0
    3.1957    6.1925  -10.4117 C   0  0  0  0  0  0  0  0  0  0  0  0
    2.1861    1.3539   -8.3694 C   0  0  0  0  0  0  0  0  0  0  0  0
    1.3504    0.5243   -7.6567 C   0  0  0  0  0  0  0  0  0  0  0  0
    3.4290    0.9237   -8.6620 F   0  0  0  0  0  0  0  0  0  0  0  0
   -0.5004   -0.4675   -5.3762 C   0  0  0  0  0  0  0  0  0  0  0  0
    1.0150   -0.2285   -4.5332 S   0  0  0  0  0  0  0  0  0  0  0  0
   -2.7476    0.2106   -8.2806 C   0  0  0  0  0  0  0  0  0  0  0  0
   -4.0454   -0.1898   -8.4226 C   0  0  0  0  0  0  0  0  0  0  0  0
   -4.5940   -1.1520   -7.0654 S   0  0  0  0  0  0  0  0  0  0  0  0
   -4.9316    0.1314   -9.4948 C   0  0  0  0  0  0  0  0  0  0  0  0
   -4.6324    0.8302  -10.6290 C   0  0  0  0  0  0  0  0  0  0  0  0
   -5.7446    1.0408  -11.4797 C   0  0  0  0  0  0  0  0  0  0  0  0
   -5.7819    1.7508  -12.6942 C   0  0  0  0  0  0  0  0  0  0  0  0
   -4.5516    2.2727  -13.2997 C   0  0  0  0  0  0  0  0  0  0  0  0
   -4.4552    3.5927  -13.7358 C   0  0  0  0  0  0  0  0  0  0  0  0
   -3.2780    4.0700  -14.2711 C   0  0  0  0  0  0  0  0  0  0  0  0
   -2.1579    3.2522  -14.4126 C   0  0  0  0  0  0  0  0  0  0  0  0
   -0.7161    3.9707  -15.1425 S   0  0  0  0  0  0  0  0  0  0  0  0
    0.6799    3.2296  -14.2155 C   0  0  0  0  0  0  0  0  0  0  0  0
    0.5845    3.5051  -12.7289 C   0  0  0  0  0  0  0  0  0  0  0  0
   -2.2843    1.9239  -14.0170 C   0  0  0  0  0  0  0  0  0  0  0  0
   -1.2629    1.0517  -14.1712 F   0  0  0  0  0  0  0  0  0  0  0  0
   -3.4471    1.4400  -13.4541 C   0  0  0  0  0  0  0  0  0  0  0  0
   -7.0256    1.9123  -13.2819 C   0  0  0  0  0  0  0  0  0  0  0  0
   -8.2161    1.3772  -12.7285 C   0  0  0  0  0  0  0  0  0  0  0  0
   -8.1736    0.6390  -11.5339 C   0  0  0  0  0  0  0  0  0  0  0  0
   -9.3934    0.0511  -10.9665 C   0  0  0  0  0  0  0  0  0  0  0  0
  -10.5292    0.8271  -10.7387 C   0  0  0  0  0  0  0  0  0  0  0  0
  -11.6790    0.2570  -10.2364 C   0  0  0  0  0  0  0  0  0  0  0  0
  -11.7500   -1.1063   -9.9548 C   0  0  0  0  0  0  0  0  0  0  0  0
  -13.3040   -1.7360   -9.3907 S   0  0  0  0  0  0  0  0  0  0  0  0
  -12.8516   -2.9601   -8.1066 C   0  0  0  0  0  0  0  0  0  0  0  0
  -12.0201   -2.3425   -7.0008 C   0  0  0  0  0  0  0  0  0  0  0  0
  -10.6111   -1.8691  -10.1942 C   0  0  0  0  0  0  0  0  0  0  0  0
   -9.4446   -1.3067  -10.6719 C   0  0  0  0  0  0  0  0  0  0  0  0
  -10.6146   -3.2028   -9.9821 F   0  0  0  0  0  0  0  0  0  0  0  0
   -6.9315    0.4864  -10.9399 C   0  0  0  0  0  0  0  0  0  0  0  0
   -6.6229   -0.3205   -9.4252 S   0  0  0  0  0  0  0  0  0  0  0  0
   -9.3464    1.6418  -13.5368 C   0  0  0  0  0  0  0  0  0  0  0  0
   -9.0671    2.3436  -14.6761 C   0  0  0  0  0  0  0  0  0  0  0  0
   -7.3517    2.7245  -14.7903 S   0  0  0  0  0  0  0  0  0  0  0  0
   -9.9491    2.8026  -15.6924 C   0  0  0  0  0  0  0  0  0  0  0  0
   -9.4231    4.0649  -16.7563 S   0  0  0  0  0  0  0  0  0  0  0  0
  -11.2629    2.4275  -15.9914 C   0  0  0  0  0  0  0  0  0  0  0  0
  -12.0251    1.3882  -15.4139 C   0  0  0  0  0  0  0  0  0  0  0  0
  -13.3015    1.1471  -15.8377 C   0  0  0  0  0  0  0  0  0  0  0  0
  -14.1233    0.1916  -15.3424 O   0  0  0  0  0  0  0  0  0  0  0  0
  -13.6652   -0.6039  -14.2764 C   0  0  0  0  0  0  0  0  0  0  0  0
  -13.8675    1.9205  -16.9132 C   0  0  0  0  0  0  0  0  0  0  0  0
  -15.1257    1.5530  -17.2608 O   0  0  0  0  0  0  0  0  0  0  0  0
  -15.7520    2.2354  -18.3179 C   0  0  0  0  0  0  0  0  0  0  0  0
  -13.1377    2.9105  -17.5051 C   0  0  0  0  0  0  0  0  0  0  0  0
  -11.8316    3.2065  -17.0487 C   0  0  0  0  0  0  0  0  0  0  0  0
  -10.9548    4.1660  -17.5525 C   0  0  0  0  0  0  0  0  0  0  0  0
  -11.1157    5.1788  -18.5589 C   0  0  0  0  0  0  0  0  0  0  0  0
  -12.2532    5.7651  -18.9297 C   0  0  0  0  0  0  0  0  0  0  0  0
    9.2859    1.3726   21.0631 H   0  0  0  0  0  0  0  0  0  0  0  0
    7.1477    0.0265   20.4390 H   0  0  0  0  0  0  0  0  0  0  0  0
    4.1132   -0.1166   17.1738 H   0  0  0  0  0  0  0  0  0  0  0  0
    2.2376   -1.2367   18.3016 H   0  0  0  0  0  0  0  0  0  0  0  0
    1.5660   -5.2694   21.0561 H   0  0  0  0  0  0  0  0  0  0  0  0
    3.2738   -4.9061   21.3629 H   0  0  0  0  0  0  0  0  0  0  0  0
    3.0183   -6.5907   19.5126 H   0  0  0  0  0  0  0  0  0  0  0  0
    2.0362   -5.4336   18.6032 H   0  0  0  0  0  0  0  0  0  0  0  0
    3.7449   -5.1023   18.9022 H   0  0  0  0  0  0  0  0  0  0  0  0
    6.8495   -2.3081   19.6345 H   0  0  0  0  0  0  0  0  0  0  0  0
    8.7631    2.4486   14.1797 H   0  0  0  0  0  0  0  0  0  0  0  0
   10.5456    3.3958   12.8326 H   0  0  0  0  0  0  0  0  0  0  0  0
   11.9872    2.9966   11.2147 H   0  0  0  0  0  0  0  0  0  0  0  0
   13.6092    3.5266   10.7587 H   0  0  0  0  0  0  0  0  0  0  0  0
   13.2212    5.7644   11.7133 H   0  0  0  0  0  0  0  0  0  0  0  0
   11.9627    5.3905   10.5275 H   0  0  0  0  0  0  0  0  0  0  0  0
   11.6125    5.3020   12.2600 H   0  0  0  0  0  0  0  0  0  0  0  0
   11.6578    0.5460   16.6994 H   0  0  0  0  0  0  0  0  0  0  0  0
    8.6004    0.2072   13.4574 H   0  0  0  0  0  0  0  0  0  0  0  0
    7.8021    0.1019   11.3464 H   0  0  0  0  0  0  0  0  0  0  0  0
    7.0356    1.9310    9.9685 H   0  0  0  0  0  0  0  0  0  0  0  0
    8.9451    3.4495    9.6573 H   0  0  0  0  0  0  0  0  0  0  0  0
   12.5350    4.1503    6.3510 H   0  0  0  0  0  0  0  0  0  0  0  0
   12.1658    2.4327    6.1080 H   0  0  0  0  0  0  0  0  0  0  0  0
    9.7969    3.0350    5.5266 H   0  0  0  0  0  0  0  0  0  0  0  0
   10.1637    4.7412    5.8041 H   0  0  0  0  0  0  0  0  0  0  0  0
   10.9256    3.8750    4.4629 H   0  0  0  0  0  0  0  0  0  0  0  0
    8.7579   -0.7578    7.1138 H   0  0  0  0  0  0  0  0  0  0  0  0
    2.3348   -1.8790   11.0091 H   0  0  0  0  0  0  0  0  0  0  0  0
    0.4893   -3.3914   11.4337 H   0  0  0  0  0  0  0  0  0  0  0  0
   -1.2785   -4.5456   11.7232 H   0  0  0  0  0  0  0  0  0  0  0  0
   -1.8528   -6.2155   11.8165 H   0  0  0  0  0  0  0  0  0  0  0  0
    0.1945   -6.9058   13.0271 H   0  0  0  0  0  0  0  0  0  0  0  0
   -0.6017   -5.5929   13.9029 H   0  0  0  0  0  0  0  0  0  0  0  0
    0.8415   -5.2674   12.9353 H   0  0  0  0  0  0  0  0  0  0  0  0
    3.9007   -4.5895    8.0840 H   0  0  0  0  0  0  0  0  0  0  0  0
    3.1751   -2.6915    6.7151 H   0  0  0  0  0  0  0  0  0  0  0  0
    2.4212   -2.8169    4.4521 H   0  0  0  0  0  0  0  0  0  0  0  0
    0.8914   -4.7868    0.7162 H   0  0  0  0  0  0  0  0  0  0  0  0
   -1.1627   -5.9886    1.3328 H   0  0  0  0  0  0  0  0  0  0  0  0
   -4.1917   -3.6479    4.2933 H   0  0  0  0  0  0  0  0  0  0  0  0
   -5.3585   -4.7895    3.6027 H   0  0  0  0  0  0  0  0  0  0  0  0
   -4.8607   -3.9793    1.3135 H   0  0  0  0  0  0  0  0  0  0  0  0
   -3.6234   -2.8815    1.9423 H   0  0  0  0  0  0  0  0  0  0  0  0
   -5.3268   -2.6155    2.3326 H   0  0  0  0  0  0  0  0  0  0  0  0
    0.1108   -1.9288    3.8093 H   0  0  0  0  0  0  0  0  0  0  0  0
    3.4367    1.6192   -0.7456 H   0  0  0  0  0  0  0  0  0  0  0  0
    5.1849    3.0843   -1.6601 H   0  0  0  0  0  0  0  0  0  0  0  0
    9.0804    1.0916   -2.5141 H   0  0  0  0  0  0  0  0  0  0  0  0
   10.0087    1.8628   -1.2018 H   0  0  0  0  0  0  0  0  0  0  0  0
   10.5685    3.7605   -2.7327 H   0  0  0  0  0  0  0  0  0  0  0  0
    9.6639    2.9818   -4.0333 H   0  0  0  0  0  0  0  0  0  0  0  0
   11.1329    2.2249   -3.4024 H   0  0  0  0  0  0  0  0  0  0  0  0
    6.4765   -1.0460    0.6721 H   0  0  0  0  0  0  0  0  0  0  0  0
    2.9883   -0.2403   -2.2070 H   0  0  0  0  0  0  0  0  0  0  0  0
   -1.3167   -2.2983   -2.6769 H   0  0  0  0  0  0  0  0  0  0  0  0
   -3.4004   -0.9195   -2.5458 H   0  0  0  0  0  0  0  0  0  0  0  0
   -4.7396   -2.2869   -0.9942 H   0  0  0  0  0  0  0  0  0  0  0  0
   -5.2346   -6.7386   -2.3420 H   0  0  0  0  0  0  0  0  0  0  0  0
   -5.7965   -7.0354   -0.6871 H   0  0  0  0  0  0  0  0  0  0  0  0
   -3.7610   -5.9651    0.2400 H   0  0  0  0  0  0  0  0  0  0  0  0
   -3.2923   -7.2560   -0.8698 H   0  0  0  0  0  0  0  0  0  0  0  0
   -3.1947   -5.5684   -1.3875 H   0  0  0  0  0  0  0  0  0  0  0  0
   -4.0856   -3.8019   -5.6382 H   0  0  0  0  0  0  0  0  0  0  0  0
   -1.3421    2.5552   -7.5344 H   0  0  0  0  0  0  0  0  0  0  0  0
    0.1494    4.0054   -8.7924 H   0  0  0  0  0  0  0  0  0  0  0  0
    2.0234    5.5373   -8.7138 H   0  0  0  0  0  0  0  0  0  0  0  0
    1.2862    5.1928  -10.3057 H   0  0  0  0  0  0  0  0  0  0  0  0
    4.1339    6.2221   -9.8629 H   0  0  0  0  0  0  0  0  0  0  0  0
    2.7751    7.1954  -10.4401 H   0  0  0  0  0  0  0  0  0  0  0  0
    3.4027    5.8714  -11.4300 H   0  0  0  0  0  0  0  0  0  0  0  0
    1.7068   -0.4476   -7.3542 H   0  0  0  0  0  0  0  0  0  0  0  0
   -2.2269    0.7926   -9.0180 H   0  0  0  0  0  0  0  0  0  0  0  0
   -3.6498    1.2084  -10.8421 H   0  0  0  0  0  0  0  0  0  0  0  0
   -5.2992    4.2557  -13.6267 H   0  0  0  0  0  0  0  0  0  0  0  0
   -3.2017    5.0975  -14.5908 H   0  0  0  0  0  0  0  0  0  0  0  0
    1.5514    3.7202  -14.6489 H   0  0  0  0  0  0  0  0  0  0  0  0
    0.7293    2.1652  -14.4318 H   0  0  0  0  0  0  0  0  0  0  0  0
   -0.2789    3.0043  -12.2936 H   0  0  0  0  0  0  0  0  0  0  0  0
    1.4806    3.1393  -12.2310 H   0  0  0  0  0  0  0  0  0  0  0  0
    0.4899    4.5752  -12.5522 H   0  0  0  0  0  0  0  0  0  0  0  0
   -3.4926    0.3989  -13.1733 H   0  0  0  0  0  0  0  0  0  0  0  0
  -10.4971    1.8889  -10.9310 H   0  0  0  0  0  0  0  0  0  0  0  0
  -12.5536    0.8615  -10.0519 H   0  0  0  0  0  0  0  0  0  0  0  0
  -13.8192   -3.2948   -7.7324 H   0  0  0  0  0  0  0  0  0  0  0  0
  -12.3449   -3.7985   -8.5792 H   0  0  0  0  0  0  0  0  0  0  0  0
  -11.8419   -3.0811   -6.2220 H   0  0  0  0  0  0  0  0  0  0  0  0
  -12.5371   -1.4905   -6.5639 H   0  0  0  0  0  0  0  0  0  0  0  0
  -11.0568   -2.0057   -7.3795 H   0  0  0  0  0  0  0  0  0  0  0  0
   -8.5936   -1.9468  -10.8451 H   0  0  0  0  0  0  0  0  0  0  0  0
  -10.3342    1.3398  -13.2504 H   0  0  0  0  0  0  0  0  0  0  0  0
  -11.5784    0.7646  -14.6614 H   0  0  0  0  0  0  0  0  0  0  0  0
  -14.4928   -1.2647  -14.0254 H   0  0  0  0  0  0  0  0  0  0  0  0
  -12.7970   -1.2052  -14.5652 H   0  0  0  0  0  0  0  0  0  0  0  0
  -13.4097    0.0022  -13.4007 H   0  0  0  0  0  0  0  0  0  0  0  0
  -16.7384    1.7853  -18.4150 H   0  0  0  0  0  0  0  0  0  0  0  0
  -15.2032    2.1129  -19.2576 H   0  0  0  0  0  0  0  0  0  0  0  0
  -15.8606    3.3028  -18.0985 H   0  0  0  0  0  0  0  0  0  0  0  0
  -13.5254    3.4580  -18.3458 H   0  0  0  0  0  0  0  0  0  0  0  0
  -10.1865    5.5083  -19.0086 H   0  0  0  0  0  0  0  0  0  0  0  0
  -13.1997    5.5397  -18.4722 H   0  0  0  0  0  0  0  0  0  0  0  0
  -12.2595    6.5214  -19.6949 H   0  0  0  0  0  0  0  0  0  0  0  0
  1  2  2  0  0  0  0
  2  3  1  0  0  0  0
  3  4  2  0  0  0  0
  4  5  1  0  0  0  0
  5  6  2  0  0  0  0
  6  7  1  0  0  0  0
  7  8  2  0  0  0  0
  8  9  1  0  0  0  0
  9 10  1  0  0  0  0
 10 11  1  0  0  0  0
  8 12  1  0  0  0  0
 12 13  1  0  0  0  0
 12 14  2  0  0  0  0
  4 15  1  0  0  0  0
 15 16  2  0  0  0  0
 16 17  1  0  0  0  0
 17 18  1  0  0  0  0
 18 19  2  0  0  0  0
 19 20  1  0  0  0  0
 20 21  2  0  0  0  0
 21 22  1  0  0  0  0
 22 23  1  0  0  0  0
 23 24  1  0  0  0  0
 21 25  1  0  0  0  0
 25 26  2  0  0  0  0
 25 27  1  0  0  0  0
 17 28  2  0  0  0  0
 28 29  1  0  0  0  0
 16 30  1  0  0  0  0
 30 31  2  0  0  0  0
 31 32  1  0  0  0  0
 31 33  1  0  0  0  0
 33 34  2  0  0  0  0
 34 35  1  0  0  0  0
 35 36  2  0  0  0  0
 36 37  1  0  0  0  0
 37 38  2  0  0  0  0
 38 39  1  0  0  0  0
 39 40  2  0  0  0  0
 40 41  1  0  0  0  0
 41 42  1  0  0  0  0
 42 43  1  0  0  0  0
 40 44  1  0  0  0  0
 44 45  1  0  0  0  0
 44 46  2  0  0  0  0
 36 47  1  0  0  0  0
 47 48  2  0  0  0  0
 48 49  1  0  0  0  0
 49 50  1  0  0  0  0
 50 51  2  0  0  0  0
 51 52  1  0  0  0  0
 52 53  2  0  0  0  0
 53 54  1  0  0  0  0
 54 55  1  0  0  0  0
 55 56  1  0  0  0  0
 53 57  1  0  0  0  0
 57 58  2  0  0  0  0
 57 59  1  0  0  0  0
 49 60  2  0  0  0  0
 60 61  1  0  0  0  0
 48 62  1  0  0  0  0
 62 63  2  0  0  0  0
 63 64  1  0  0  0  0
 63 65  1  0  0  0  0
 65 66  2  0  0  0  0
 66 67  1  0  0  0  0
 67 68  2  0  0  0  0
 68 69  1  0  0  0  0
 69 70  2  0  0  0  0
 70 71  1  0  0  0  0
 71 72  2  0  0  0  0
 72 73  1  0  0  0  0
 73 74  1  0  0  0  0
 74 75  1  0  0  0  0
 72 76  1  0  0  0  0
 76 77  1  0  0  0  0
 76 78  2  0  0  0  0
 68 79  1  0  0  0  0
 79 80  2  0  0  0  0
 80 81  1  0  0  0  0
 81 82  1  0  0  0  0
 82 83  2  0  0  0  0
 83 84  1  0  0  0  0
 84 85  2  0  0  0  0
 85 86  1  0  0  0  0
 86 87  1  0  0  0  0
 87 88  1  0  0  0  0
 85 89  1  0  0  0  0
 89 90  2  0  0  0  0
 89 91  1  0  0  0  0
 81 92  2  0  0  0  0
 92 93  1  0  0  0  0
 80 94  1  0  0  0  0
 94 95  2  0  0  0  0
 95 96  1  0  0  0  0
 95 97  1  0  0  0  0
 97 98  2  0  0  0  0
 98 99  1  0  0  0  0
 99100  2  0  0  0  0
100101  1  0  0  0  0
101102  2  0  0  0  0
102103  1  0  0  0  0
103104  2  0  0  0  0
104105  1  0  0  0  0
105106  1  0  0  0  0
106107  1  0  0  0  0
104108  1  0  0  0  0
108109  1  0  0  0  0
108110  2  0  0  0  0
100111  1  0  0  0  0
111112  2  0  0  0  0
112113  1  0  0  0  0
113114  1  0  0  0  0
114115  2  0  0  0  0
115116  1  0  0  0  0
116117  2  0  0  0  0
117118  1  0  0  0  0
118119  1  0  0  0  0
119120  1  0  0  0  0
117121  1  0  0  0  0
121122  2  0  0  0  0
121123  1  0  0  0  0
113124  2  0  0  0  0
124125  1  0  0  0  0
112126  1  0  0  0  0
126127  2  0  0  0  0
127128  1  0  0  0  0
127129  1  0  0  0  0
129130  2  0  0  0  0
130131  1  0  0  0  0
131132  2  0  0  0  0
132133  1  0  0  0  0
133134  2  0  0  0  0
134135  1  0  0  0  0
135136  2  0  0  0  0
136137  1  0  0  0  0
137138  1  0  0  0  0
138139  1  0  0  0  0
136140  1  0  0  0  0
140141  1  0  0  0  0
140142  2  0  0  0  0
132143  1  0  0  0  0
143144  2  0  0  0  0
144145  1  0  0  0  0
145146  1  0  0  0  0
146147  2  0  0  0  0
147148  1  0  0  0  0
148149  2  0  0  0  0
149150  1  0  0  0  0
150151  1  0  0  0  0
151152  1  0  0  0  0
149153  1  0  0  0  0
153154  2  0  0  0  0
153155  1  0  0  0  0
145156  2  0  0  0  0
156157  1  0  0  0  0
144158  1  0  0  0  0
158159  2  0  0  0  0
159160  1  0  0  0  0
159161  1  0  0  0  0
161162  1  0  0  0  0
161163  2  0  0  0  0
163164  1  0  0  0  0
164165  2  0  0  0  0
165166  1  0  0  0  0
166167  1  0  0  0  0
165168  1  0  0  0  0
168169  1  0  0  0  0
169170  1  0  0  0  0
168171  2  0  0  0  0
171172  1  0  0  0  0
172173  2  0  0  0  0
173174  1  0  0  0  0
174175  2  0  0  0  0
 29  1  1  0  0  0  0
 61 33  1  0  0  0  0
 93 65  1  0  0  0  0
125 97  1  0  0  0  0
157129  1  0  0  0  0
173162  1  0  0  0  0
 28  3  1  0  0  0  0
 60 35  1  0  0  0  0
 92 67  1  0  0  0  0
124 99  1  0  0  0  0
156131  1  0  0  0  0
172163  1  0  0  0  0
 14  5  1  0  0  0  0
 32 15  1  0  0  0  0
 46 37  1  0  0  0  0
 64 47  1  0  0  0  0
 78 69  1  0  0  0  0
 96 79  1  0  0  0  0
110101  1  0  0  0  0
128111  1  0  0  0  0
142133  1  0  0  0  0
160143  1  0  0  0  0
 26 18  1  0  0  0  0
 58 50  1  0  0  0  0
 90 82  1  0  0  0  0
122114  1  0  0  0  0
154146  1  0  0  0  0
  1176  1  0  0  0  0
  2177  1  0  0  0  0
  6178  1  0  0  0  0
  7179  1  0  0  0  0
 10180  1  0  0  0  0
 10181  1  0  0  0  0
 11182  1  0  0  0  0
 11183  1  0  0  0  0
 11184  1  0  0  0  0
 14185  1  0  0  0  0
 19186  1  0  0  0  0
 20187  1  0  0  0  0
 23188  1  0  0  0  0
 23189  1  0  0  0  0
 24190  1  0  0  0  0
 24191  1  0  0  0  0
 24192  1  0  0  0  0
 26193  1  0  0  0  0
 30194  1  0  0  0  0
 34195  1  0  0  0  0
 38196  1  0  0  0  0
 39197  1  0  0  0  0
 42198  1  0  0  0  0
 42199  1  0  0  0  0
 43200  1  0  0  0  0
 43201  1  0  0  0  0
 43202  1  0  0  0  0
 46203  1  0  0  0  0
 51204  1  0  0  0  0
 52205  1  0  0  0  0
 55206  1  0  0  0  0
 55207  1  0  0  0  0
 56208  1  0  0  0  0
 56209  1  0  0  0  0
 56210  1  0  0  0  0
 58211  1  0  0  0  0
 62212  1  0  0  0  0
 66213  1  0  0  0  0
 70214  1  0  0  0  0
 71215  1  0  0  0  0
 74216  1  0  0  0  0
 74217  1  0  0  0  0
 75218  1  0  0  0  0
 75219  1  0  0  0  0
 75220  1  0  0  0  0
 78221  1  0  0  0  0
 83222  1  0  0  0  0
 84223  1  0  0  0  0
 87224  1  0  0  0  0
 87225  1  0  0  0  0
 88226  1  0  0  0  0
 88227  1  0  0  0  0
 88228  1  0  0  0  0
 90229  1  0  0  0  0
 94230  1  0  0  0  0
 98231  1  0  0  0  0
102232  1  0  0  0  0
103233  1  0  0  0  0
106234  1  0  0  0  0
106235  1  0  0  0  0
107236  1  0  0  0  0
107237  1  0  0  0  0
107238  1  0  0  0  0
110239  1  0  0  0  0
115240  1  0  0  0  0
116241  1  0  0  0  0
119242  1  0  0  0  0
119243  1  0  0  0  0
120244  1  0  0  0  0
120245  1  0  0  0  0
120246  1  0  0  0  0
122247  1  0  0  0  0
126248  1  0  0  0  0
130249  1  0  0  0  0
134250  1  0  0  0  0
135251  1  0  0  0  0
138252  1  0  0  0  0
138253  1  0  0  0  0
139254  1  0  0  0  0
139255  1  0  0  0  0
139256  1  0  0  0  0
142257  1  0  0  0  0
147258  1  0  0  0  0
148259  1  0  0  0  0
151260  1  0  0  0  0
151261  1  0  0  0  0
152262  1  0  0  0  0
152263  1  0  0  0  0
152264  1  0  0  0  0
154265  1  0  0  0  0
158266  1  0  0  0  0
164267  1  0  0  0  0
167268  1  0  0  0  0
167269  1  0  0  0  0
167270  1  0  0  0  0
170271  1  0  0  0  0
170272  1  0  0  0  0
170273  1  0  0  0  0
171274  1  0  0  0  0
174275  1  0  0  0  0
175276  1  0  0  0  0
175277  1  0  0  0  0
M  END
