
  xtb     03042214573D
 energy: -389.557554667802 gnorm: 0.000638045725 xtb: 6.4.1 (unknown)
227247  0     0  0            999 V2000
    0.4644    4.2491   11.5226 C   0  0  0  0  0  0  0  0  0  0  0  0
   -0.4041    3.6611   10.6762 C   0  0  0  0  0  0  0  0  0  0  0  0
   -0.0419    2.3205   10.3486 C   0  0  0  0  0  0  0  0  0  0  0  0
   -0.7032    1.4240    9.4953 C   0  0  0  0  0  0  0  0  0  0  0  0
   -1.8554    1.8064    8.6716 C   0  0  0  0  0  0  0  0  0  0  0  0
   -1.8419    2.9747    7.9142 C   0  0  0  0  0  0  0  0  0  0  0  0
   -2.8752    3.2848    7.0510 C   0  0  0  0  0  0  0  0  0  0  0  0
   -3.9631    2.4306    6.9051 C   0  0  0  0  0  0  0  0  0  0  0  0
   -5.3171    2.6663    5.8099 S   0  0  0  0  0  0  0  0  0  0  0  0
   -5.0038    4.3084    5.0634 C   0  0  0  0  0  0  0  0  0  0  0  0
   -6.0787    4.5800    4.0289 C   0  0  0  0  0  0  0  0  0  0  0  0
   -3.9745    1.2739    7.6875 C   0  0  0  0  0  0  0  0  0  0  0  0
   -5.0192    0.4235    7.5861 F   0  0  0  0  0  0  0  0  0  0  0  0
   -2.9577    0.9598    8.5578 C   0  0  0  0  0  0  0  0  0  0  0  0
   -0.1595    0.1501    9.4060 C   0  0  0  0  0  0  0  0  0  0  0  0
    1.0352   -0.2487   10.0537 C   0  0  0  0  0  0  0  0  0  0  0  0
    1.7155    0.6655   10.8756 C   0  0  0  0  0  0  0  0  0  0  0  0
    2.9923    0.3217   11.5118 C   0  0  0  0  0  0  0  0  0  0  0  0
    4.0472   -0.1986   10.7618 C   0  0  0  0  0  0  0  0  0  0  0  0
    5.2540   -0.4910   11.3575 C   0  0  0  0  0  0  0  0  0  0  0  0
    5.4583   -0.2929   12.7231 C   0  0  0  0  0  0  0  0  0  0  0  0
    7.0367   -0.7460   13.3700 S   0  0  0  0  0  0  0  0  0  0  0  0
    7.2967    0.4108   14.7741 C   0  0  0  0  0  0  0  0  0  0  0  0
    8.7846    0.5257   15.0412 C   0  0  0  0  0  0  0  0  0  0  0  0
    4.3887    0.2016   13.4631 C   0  0  0  0  0  0  0  0  0  0  0  0
    3.1823    0.5218   12.8743 C   0  0  0  0  0  0  0  0  0  0  0  0
    4.4902    0.3761   14.8007 F   0  0  0  0  0  0  0  0  0  0  0  0
    1.1369    1.9195   11.0226 C   0  0  0  0  0  0  0  0  0  0  0  0
    1.7801    3.2243   11.9886 S   0  0  0  0  0  0  0  0  0  0  0  0
    1.3950   -1.5822    9.7328 C   0  0  0  0  0  0  0  0  0  0  0  0
    0.5460   -2.1957    8.8522 C   0  0  0  0  0  0  0  0  0  0  0  0
   -0.7888   -1.1398    8.4223 S   0  0  0  0  0  0  0  0  0  0  0  0
    0.7045   -3.4694    8.2435 C   0  0  0  0  0  0  0  0  0  0  0  0
    2.1755   -4.3580    8.5178 S   0  0  0  0  0  0  0  0  0  0  0  0
   -0.0875   -4.1166    7.2917 C   0  0  0  0  0  0  0  0  0  0  0  0
   -1.3601   -3.7443    6.8051 C   0  0  0  0  0  0  0  0  0  0  0  0
   -1.9452   -4.4453    5.7873 C   0  0  0  0  0  0  0  0  0  0  0  0
   -3.1344   -4.1456    5.2188 O   0  0  0  0  0  0  0  0  0  0  0  0
   -3.8275   -3.0047    5.6705 C   0  0  0  0  0  0  0  0  0  0  0  0
   -1.2946   -5.6086    5.2343 C   0  0  0  0  0  0  0  0  0  0  0  0
   -1.9685   -6.1991    4.2176 O   0  0  0  0  0  0  0  0  0  0  0  0
   -1.3681   -7.2933    3.5711 C   0  0  0  0  0  0  0  0  0  0  0  0
   -0.0986   -6.0266    5.7389 C   0  0  0  0  0  0  0  0  0  0  0  0
    0.5456   -5.2756    6.7499 C   0  0  0  0  0  0  0  0  0  0  0  0
    1.8078   -5.5155    7.2842 C   0  0  0  0  0  0  0  0  0  0  0  0
    2.7669   -6.5082    6.8753 C   0  0  0  0  0  0  0  0  0  0  0  0
    3.0939   -6.7615    5.5926 C   0  0  0  0  0  0  0  0  0  0  0  0
    2.6965   -5.9683    4.4584 C   0  0  0  0  0  0  0  0  0  0  0  0
    2.5668   -6.3642    3.1595 C   0  0  0  0  0  0  0  0  0  0  0  0
    2.1484   -5.3295    2.2770 C   0  0  0  0  0  0  0  0  0  0  0  0
    1.8757   -5.3927    0.8993 C   0  0  0  0  0  0  0  0  0  0  0  0
    2.0927   -6.6228    0.1283 C   0  0  0  0  0  0  0  0  0  0  0  0
    3.3111   -7.2978    0.1842 C   0  0  0  0  0  0  0  0  0  0  0  0
    3.5227   -8.4265   -0.5780 C   0  0  0  0  0  0  0  0  0  0  0  0
    2.5267   -8.9386   -1.4073 C   0  0  0  0  0  0  0  0  0  0  0  0
    2.8988  -10.4090   -2.3167 S   0  0  0  0  0  0  0  0  0  0  0  0
    2.1357  -10.1151   -3.9556 C   0  0  0  0  0  0  0  0  0  0  0  0
    2.6484   -8.8443   -4.6022 C   0  0  0  0  0  0  0  0  0  0  0  0
    1.3020   -8.2776   -1.4210 C   0  0  0  0  0  0  0  0  0  0  0  0
    0.2706   -8.7480   -2.1550 F   0  0  0  0  0  0  0  0  0  0  0  0
    1.0863   -7.1293   -0.6871 C   0  0  0  0  0  0  0  0  0  0  0  0
    1.4011   -4.2333    0.2992 C   0  0  0  0  0  0  0  0  0  0  0  0
    1.1905   -3.0281    1.0129 C   0  0  0  0  0  0  0  0  0  0  0  0
    1.4741   -2.9587    2.3820 C   0  0  0  0  0  0  0  0  0  0  0  0
    1.2278   -1.7446    3.1730 C   0  0  0  0  0  0  0  0  0  0  0  0
    0.3684   -1.8002    4.2677 C   0  0  0  0  0  0  0  0  0  0  0  0
    0.1368   -0.6769    5.0327 C   0  0  0  0  0  0  0  0  0  0  0  0
    0.7609    0.5298    4.7403 C   0  0  0  0  0  0  0  0  0  0  0  0
    0.4165    1.9395    5.7675 S   0  0  0  0  0  0  0  0  0  0  0  0
    2.1040    2.4013    6.3050 C   0  0  0  0  0  0  0  0  0  0  0  0
    2.7388    1.3147    7.1488 C   0  0  0  0  0  0  0  0  0  0  0  0
    1.5904    0.5807    3.6264 C   0  0  0  0  0  0  0  0  0  0  0  0
    1.8333   -0.5352    2.8497 C   0  0  0  0  0  0  0  0  0  0  0  0
    2.1848    1.7414    3.2720 F   0  0  0  0  0  0  0  0  0  0  0  0
    1.9540   -4.1122    2.9738 C   0  0  0  0  0  0  0  0  0  0  0  0
    2.3768   -4.2522    4.6502 S   0  0  0  0  0  0  0  0  0  0  0  0
    0.6734   -2.0012    0.1918 C   0  0  0  0  0  0  0  0  0  0  0  0
    0.5200   -2.3672   -1.1135 C   0  0  0  0  0  0  0  0  0  0  0  0
    1.0047   -4.0270   -1.3914 S   0  0  0  0  0  0  0  0  0  0  0  0
    0.0312   -1.5070   -2.1442 C   0  0  0  0  0  0  0  0  0  0  0  0
   -0.6117   -0.3226   -1.9283 C   0  0  0  0  0  0  0  0  0  0  0  0
   -0.9118    0.3872   -3.1122 C   0  0  0  0  0  0  0  0  0  0  0  0
   -1.4815    1.6684   -3.2051 C   0  0  0  0  0  0  0  0  0  0  0  0
   -1.8965    2.3639   -1.9760 C   0  0  0  0  0  0  0  0  0  0  0  0
   -1.2775    3.5444   -1.5770 C   0  0  0  0  0  0  0  0  0  0  0  0
   -1.5786    4.1097   -0.3525 C   0  0  0  0  0  0  0  0  0  0  0  0
   -2.5197    3.5297    0.4858 C   0  0  0  0  0  0  0  0  0  0  0  0
   -2.8193    4.2289    2.0993 S   0  0  0  0  0  0  0  0  0  0  0  0
   -1.7713    3.1102    3.1105 C   0  0  0  0  0  0  0  0  0  0  0  0
   -2.3968    1.7505    3.3478 C   0  0  0  0  0  0  0  0  0  0  0  0
   -3.1941    2.4002    0.0402 C   0  0  0  0  0  0  0  0  0  0  0  0
   -4.1679    1.8502    0.7878 F   0  0  0  0  0  0  0  0  0  0  0  0
   -2.8751    1.8015   -1.1633 C   0  0  0  0  0  0  0  0  0  0  0  0
   -1.5784    2.2127   -4.4682 C   0  0  0  0  0  0  0  0  0  0  0  0
   -1.1577    1.5264   -5.6365 C   0  0  0  0  0  0  0  0  0  0  0  0
   -0.5737    0.2489   -5.5417 C   0  0  0  0  0  0  0  0  0  0  0  0
   -0.0613   -0.4222   -6.7407 C   0  0  0  0  0  0  0  0  0  0  0  0
    0.7487    0.2701   -7.6410 C   0  0  0  0  0  0  0  0  0  0  0  0
    1.1957   -0.3408   -8.7921 C   0  0  0  0  0  0  0  0  0  0  0  0
    0.8747   -1.6626   -9.0792 C   0  0  0  0  0  0  0  0  0  0  0  0
    1.5255   -2.3860  -10.5631 S   0  0  0  0  0  0  0  0  0  0  0  0
    0.0103   -3.0352  -11.3563 C   0  0  0  0  0  0  0  0  0  0  0  0
   -0.9687   -1.9245  -11.6811 C   0  0  0  0  0  0  0  0  0  0  0  0
    0.1034   -2.3560   -8.1530 C   0  0  0  0  0  0  0  0  0  0  0  0
   -0.3729   -1.7521   -7.0067 C   0  0  0  0  0  0  0  0  0  0  0  0
   -0.2149   -3.6506   -8.3636 F   0  0  0  0  0  0  0  0  0  0  0  0
   -0.4750   -0.2986   -4.2714 C   0  0  0  0  0  0  0  0  0  0  0  0
    0.2667   -1.8239   -3.8505 S   0  0  0  0  0  0  0  0  0  0  0  0
   -1.4147    2.2784   -6.8019 C   0  0  0  0  0  0  0  0  0  0  0  0
   -1.9690    3.5118   -6.5728 C   0  0  0  0  0  0  0  0  0  0  0  0
   -2.2320    3.7833   -4.8551 S   0  0  0  0  0  0  0  0  0  0  0  0
   -2.2473    4.4729   -7.5729 C   0  0  0  0  0  0  0  0  0  0  0  0
   -1.8874    4.0420   -9.2219 S   0  0  0  0  0  0  0  0  0  0  0  0
   -2.6994    5.7947   -7.4984 C   0  0  0  0  0  0  0  0  0  0  0  0
   -3.0971    6.5091   -6.3492 C   0  0  0  0  0  0  0  0  0  0  0  0
   -3.4952    7.8130   -6.4549 C   0  0  0  0  0  0  0  0  0  0  0  0
   -3.8988    8.5937   -5.4245 O   0  0  0  0  0  0  0  0  0  0  0  0
   -3.9266    8.0344   -4.1338 C   0  0  0  0  0  0  0  0  0  0  0  0
   -3.5085    8.4675   -7.7365 C   0  0  0  0  0  0  0  0  0  0  0  0
   -3.9212    9.7592   -7.6982 O   0  0  0  0  0  0  0  0  0  0  0  0
   -3.9808   10.4778   -8.9044 C   0  0  0  0  0  0  0  0  0  0  0  0
   -3.1243    7.7888   -8.8595 C   0  0  0  0  0  0  0  0  0  0  0  0
   -2.7201    6.4401   -8.7696 C   0  0  0  0  0  0  0  0  0  0  0  0
   -2.2756    5.6210   -9.8194 C   0  0  0  0  0  0  0  0  0  0  0  0
   -2.2308    5.9604  -11.1938 C   0  0  0  0  0  0  0  0  0  0  0  0
   -1.6174    5.3270  -12.2294 C   0  0  0  0  0  0  0  0  0  0  0  0
   -0.6588    4.2759  -12.2300 C   0  0  0  0  0  0  0  0  0  0  0  0
   -0.6433    3.1987  -13.5939 S   0  0  0  0  0  0  0  0  0  0  0  0
    0.3890    3.9528  -11.3635 C   0  0  0  0  0  0  0  0  0  0  0  0
    0.7892    4.6692  -10.2148 C   0  0  0  0  0  0  0  0  0  0  0  0
    1.8321    4.2201   -9.4538 C   0  0  0  0  0  0  0  0  0  0  0  0
    2.2660    4.7940   -8.3043 O   0  0  0  0  0  0  0  0  0  0  0  0
    1.5623    5.9063   -7.8098 C   0  0  0  0  0  0  0  0  0  0  0  0
    2.5917    3.0711   -9.8718 C   0  0  0  0  0  0  0  0  0  0  0  0
    3.6417    2.7760   -9.0625 O   0  0  0  0  0  0  0  0  0  0  0  0
    4.5361    1.7657   -9.4600 C   0  0  0  0  0  0  0  0  0  0  0  0
    2.2575    2.4022  -11.0157 C   0  0  0  0  0  0  0  0  0  0  0  0
    1.1327    2.8028  -11.7743 C   0  0  0  0  0  0  0  0  0  0  0  0
    0.6661    2.2525  -12.9688 C   0  0  0  0  0  0  0  0  0  0  0  0
    1.0589    1.0982  -13.7252 C   0  0  0  0  0  0  0  0  0  0  0  0
    1.7275    0.0287  -13.2914 C   0  0  0  0  0  0  0  0  0  0  0  0
    0.4229    5.2412   11.9279 H   0  0  0  0  0  0  0  0  0  0  0  0
   -1.2908    4.1399   10.3024 H   0  0  0  0  0  0  0  0  0  0  0  0
   -0.9912    3.6361    7.9692 H   0  0  0  0  0  0  0  0  0  0  0  0
   -2.8199    4.1954    6.4774 H   0  0  0  0  0  0  0  0  0  0  0  0
   -5.0251    5.0491    5.8633 H   0  0  0  0  0  0  0  0  0  0  0  0
   -4.0243    4.2908    4.5890 H   0  0  0  0  0  0  0  0  0  0  0  0
   -7.0662    4.5654    4.4843 H   0  0  0  0  0  0  0  0  0  0  0  0
   -6.0446    3.8268    3.2455 H   0  0  0  0  0  0  0  0  0  0  0  0
   -5.9108    5.5545    3.5764 H   0  0  0  0  0  0  0  0  0  0  0  0
   -3.0416    0.0647    9.1533 H   0  0  0  0  0  0  0  0  0  0  0  0
    3.9267   -0.3445    9.6991 H   0  0  0  0  0  0  0  0  0  0  0  0
    6.0719   -0.8809   10.7716 H   0  0  0  0  0  0  0  0  0  0  0  0
    6.7700    0.0216   15.6439 H   0  0  0  0  0  0  0  0  0  0  0  0
    6.8727    1.3707   14.4835 H   0  0  0  0  0  0  0  0  0  0  0  0
    9.3035    0.9017   14.1623 H   0  0  0  0  0  0  0  0  0  0  0  0
    9.2017   -0.4456   15.2982 H   0  0  0  0  0  0  0  0  0  0  0  0
    8.9566    1.2093   15.8699 H   0  0  0  0  0  0  0  0  0  0  0  0
    2.3871    0.8969   13.4995 H   0  0  0  0  0  0  0  0  0  0  0  0
    2.2608   -2.0756   10.1373 H   0  0  0  0  0  0  0  0  0  0  0  0
   -1.8692   -2.9051    7.2431 H   0  0  0  0  0  0  0  0  0  0  0  0
   -4.1140   -3.0963    6.7221 H   0  0  0  0  0  0  0  0  0  0  0  0
   -3.2344   -2.0947    5.5353 H   0  0  0  0  0  0  0  0  0  0  0  0
   -4.7248   -2.9441    5.0580 H   0  0  0  0  0  0  0  0  0  0  0  0
   -2.0452   -7.5664    2.7638 H   0  0  0  0  0  0  0  0  0  0  0  0
   -0.3910   -7.0247    3.1529 H   0  0  0  0  0  0  0  0  0  0  0  0
   -1.2488   -8.1459    4.2475 H   0  0  0  0  0  0  0  0  0  0  0  0
    0.3898   -6.9128    5.3697 H   0  0  0  0  0  0  0  0  0  0  0  0
    3.2529   -7.0696    7.6627 H   0  0  0  0  0  0  0  0  0  0  0  0
    3.7388   -7.6011    5.3688 H   0  0  0  0  0  0  0  0  0  0  0  0
    2.7197   -7.3810    2.8420 H   0  0  0  0  0  0  0  0  0  0  0  0
    4.1069   -6.9100    0.8019 H   0  0  0  0  0  0  0  0  0  0  0  0
    4.4739   -8.9349   -0.5501 H   0  0  0  0  0  0  0  0  0  0  0  0
    1.0535  -10.1102   -3.8468 H   0  0  0  0  0  0  0  0  0  0  0  0
    2.4315  -10.9950   -4.5271 H   0  0  0  0  0  0  0  0  0  0  0  0
    2.3555   -7.9680   -4.0267 H   0  0  0  0  0  0  0  0  0  0  0  0
    3.7340   -8.8630   -4.6749 H   0  0  0  0  0  0  0  0  0  0  0  0
    2.2321   -8.7504   -5.6030 H   0  0  0  0  0  0  0  0  0  0  0  0
    0.1180   -6.6563   -0.7375 H   0  0  0  0  0  0  0  0  0  0  0  0
   -0.1243   -2.7277    4.5157 H   0  0  0  0  0  0  0  0  0  0  0  0
   -0.5300   -0.7188    5.8790 H   0  0  0  0  0  0  0  0  0  0  0  0
    2.6962    2.6330    5.4219 H   0  0  0  0  0  0  0  0  0  0  0  0
    1.9565    3.3126    6.8839 H   0  0  0  0  0  0  0  0  0  0  0  0
    2.1237    1.1067    8.0214 H   0  0  0  0  0  0  0  0  0  0  0  0
    2.8502    0.3947    6.5759 H   0  0  0  0  0  0  0  0  0  0  0  0
    3.7227    1.6368    7.4850 H   0  0  0  0  0  0  0  0  0  0  0  0
    2.5010   -0.4546    2.0055 H   0  0  0  0  0  0  0  0  0  0  0  0
    0.4380   -1.0220    0.5650 H   0  0  0  0  0  0  0  0  0  0  0  0
   -0.8578    0.0454   -0.9497 H   0  0  0  0  0  0  0  0  0  0  0  0
   -0.5326    3.9969   -2.2134 H   0  0  0  0  0  0  0  0  0  0  0  0
   -1.0731    5.0044   -0.0225 H   0  0  0  0  0  0  0  0  0  0  0  0
   -1.6397    3.6426    4.0519 H   0  0  0  0  0  0  0  0  0  0  0  0
   -0.8036    3.0351    2.6146 H   0  0  0  0  0  0  0  0  0  0  0  0
   -1.8494    1.2331    4.1332 H   0  0  0  0  0  0  0  0  0  0  0  0
   -3.4335    1.8516    3.6595 H   0  0  0  0  0  0  0  0  0  0  0  0
   -2.3670    1.1394    2.4488 H   0  0  0  0  0  0  0  0  0  0  0  0
   -3.3956    0.9044   -1.4623 H   0  0  0  0  0  0  0  0  0  0  0  0
    1.0395    1.2883   -7.4328 H   0  0  0  0  0  0  0  0  0  0  0  0
    1.7945    0.2103   -9.4989 H   0  0  0  0  0  0  0  0  0  0  0  0
    0.3764   -3.5170  -12.2624 H   0  0  0  0  0  0  0  0  0  0  0  0
   -0.4264   -3.7891  -10.7044 H   0  0  0  0  0  0  0  0  0  0  0  0
   -1.3150   -1.4362  -10.7713 H   0  0  0  0  0  0  0  0  0  0  0  0
   -1.8313   -2.3356  -12.2016 H   0  0  0  0  0  0  0  0  0  0  0  0
   -0.4987   -1.1758  -12.3167 H   0  0  0  0  0  0  0  0  0  0  0  0
   -0.9911   -2.3264   -6.3345 H   0  0  0  0  0  0  0  0  0  0  0  0
   -1.2065    1.9257   -7.7960 H   0  0  0  0  0  0  0  0  0  0  0  0
   -3.0885    6.0109   -5.3957 H   0  0  0  0  0  0  0  0  0  0  0  0
   -4.2766    8.8291   -3.4775 H   0  0  0  0  0  0  0  0  0  0  0  0
   -2.9310    7.7099   -3.8144 H   0  0  0  0  0  0  0  0  0  0  0  0
   -4.6161    7.1860   -4.0779 H   0  0  0  0  0  0  0  0  0  0  0  0
   -2.9941   10.5613   -9.3724 H   0  0  0  0  0  0  0  0  0  0  0  0
   -4.3381   11.4708   -8.6377 H   0  0  0  0  0  0  0  0  0  0  0  0
   -4.6798   10.0191   -9.6117 H   0  0  0  0  0  0  0  0  0  0  0  0
   -3.1254    8.2684   -9.8240 H   0  0  0  0  0  0  0  0  0  0  0  0
   -2.8271    6.8267  -11.4526 H   0  0  0  0  0  0  0  0  0  0  0  0
   -1.9067    5.6525  -13.2223 H   0  0  0  0  0  0  0  0  0  0  0  0
    0.2800    5.5864   -9.9744 H   0  0  0  0  0  0  0  0  0  0  0  0
    2.0400    6.1608   -6.8652 H   0  0  0  0  0  0  0  0  0  0  0  0
    0.5081    5.6696   -7.6314 H   0  0  0  0  0  0  0  0  0  0  0  0
    1.6289    6.7614   -8.4903 H   0  0  0  0  0  0  0  0  0  0  0  0
    5.3206    1.7567   -8.7053 H   0  0  0  0  0  0  0  0  0  0  0  0
    4.9764    1.9820  -10.4388 H   0  0  0  0  0  0  0  0  0  0  0  0
    4.0561    0.7821   -9.4875 H   0  0  0  0  0  0  0  0  0  0  0  0
    2.8635    1.5903  -11.3784 H   0  0  0  0  0  0  0  0  0  0  0  0
    0.7191    1.1157  -14.7547 H   0  0  0  0  0  0  0  0  0  0  0  0
    1.9584   -0.7819  -13.9606 H   0  0  0  0  0  0  0  0  0  0  0  0
    2.0384   -0.1006  -12.2714 H   0  0  0  0  0  0  0  0  0  0  0  0
  1  2  2  0  0  0  0
  2  3  1  0  0  0  0
  3  4  2  0  0  0  0
  4  5  1  0  0  0  0
  5  6  2  0  0  0  0
  6  7  1  0  0  0  0
  7  8  2  0  0  0  0
  8  9  1  0  0  0  0
  9 10  1  0  0  0  0
 10 11  1  0  0  0  0
  8 12  1  0  0  0  0
 12 13  1  0  0  0  0
 12 14  2  0  0  0  0
  4 15  1  0  0  0  0
 15 16  2  0  0  0  0
 16 17  1  0  0  0  0
 17 18  1  0  0  0  0
 18 19  2  0  0  0  0
 19 20  1  0  0  0  0
 20 21  2  0  0  0  0
 21 22  1  0  0  0  0
 22 23  1  0  0  0  0
 23 24  1  0  0  0  0
 21 25  1  0  0  0  0
 25 26  2  0  0  0  0
 25 27  1  0  0  0  0
 17 28  2  0  0  0  0
 28 29  1  0  0  0  0
 16 30  1  0  0  0  0
 30 31  2  0  0  0  0
 31 32  1  0  0  0  0
 31 33  1  0  0  0  0
 33 34  1  0  0  0  0
 33 35  2  0  0  0  0
 35 36  1  0  0  0  0
 36 37  2  0  0  0  0
 37 38  1  0  0  0  0
 38 39  1  0  0  0  0
 37 40  1  0  0  0  0
 40 41  1  0  0  0  0
 41 42  1  0  0  0  0
 40 43  2  0  0  0  0
 43 44  1  0  0  0  0
 44 45  2  0  0  0  0
 45 46  1  0  0  0  0
 46 47  2  0  0  0  0
 47 48  1  0  0  0  0
 48 49  2  0  0  0  0
 49 50  1  0  0  0  0
 50 51  2  0  0  0  0
 51 52  1  0  0  0  0
 52 53  2  0  0  0  0
 53 54  1  0  0  0  0
 54 55  2  0  0  0  0
 55 56  1  0  0  0  0
 56 57  1  0  0  0  0
 57 58  1  0  0  0  0
 55 59  1  0  0  0  0
 59 60  1  0  0  0  0
 59 61  2  0  0  0  0
 51 62  1  0  0  0  0
 62 63  2  0  0  0  0
 63 64  1  0  0  0  0
 64 65  1  0  0  0  0
 65 66  2  0  0  0  0
 66 67  1  0  0  0  0
 67 68  2  0  0  0  0
 68 69  1  0  0  0  0
 69 70  1  0  0  0  0
 70 71  1  0  0  0  0
 68 72  1  0  0  0  0
 72 73  2  0  0  0  0
 72 74  1  0  0  0  0
 64 75  2  0  0  0  0
 75 76  1  0  0  0  0
 63 77  1  0  0  0  0
 77 78  2  0  0  0  0
 78 79  1  0  0  0  0
 78 80  1  0  0  0  0
 80 81  2  0  0  0  0
 81 82  1  0  0  0  0
 82 83  2  0  0  0  0
 83 84  1  0  0  0  0
 84 85  2  0  0  0  0
 85 86  1  0  0  0  0
 86 87  2  0  0  0  0
 87 88  1  0  0  0  0
 88 89  1  0  0  0  0
 89 90  1  0  0  0  0
 87 91  1  0  0  0  0
 91 92  1  0  0  0  0
 91 93  2  0  0  0  0
 83 94  1  0  0  0  0
 94 95  2  0  0  0  0
 95 96  1  0  0  0  0
 96 97  1  0  0  0  0
 97 98  2  0  0  0  0
 98 99  1  0  0  0  0
 99100  2  0  0  0  0
100101  1  0  0  0  0
101102  1  0  0  0  0
102103  1  0  0  0  0
100104  1  0  0  0  0
104105  2  0  0  0  0
104106  1  0  0  0  0
 96107  2  0  0  0  0
107108  1  0  0  0  0
 95109  1  0  0  0  0
109110  2  0  0  0  0
110111  1  0  0  0  0
110112  1  0  0  0  0
112113  1  0  0  0  0
112114  2  0  0  0  0
114115  1  0  0  0  0
115116  2  0  0  0  0
116117  1  0  0  0  0
117118  1  0  0  0  0
116119  1  0  0  0  0
119120  1  0  0  0  0
120121  1  0  0  0  0
119122  2  0  0  0  0
122123  1  0  0  0  0
123124  2  0  0  0  0
124125  1  0  0  0  0
125126  2  0  0  0  0
126127  1  0  0  0  0
127128  1  0  0  0  0
127129  2  0  0  0  0
129130  1  0  0  0  0
130131  2  0  0  0  0
131132  1  0  0  0  0
132133  1  0  0  0  0
131134  1  0  0  0  0
134135  1  0  0  0  0
135136  1  0  0  0  0
134137  2  0  0  0  0
137138  1  0  0  0  0
138139  2  0  0  0  0
139140  1  0  0  0  0
140141  2  0  0  0  0
 29  1  1  0  0  0  0
 45 34  1  0  0  0  0
 76 48  1  0  0  0  0
108 80  1  0  0  0  0
124113  1  0  0  0  0
139128  1  0  0  0  0
 28  3  1  0  0  0  0
 44 35  1  0  0  0  0
 75 50  1  0  0  0  0
107 82  1  0  0  0  0
123114  1  0  0  0  0
138129  1  0  0  0  0
 14  5  1  0  0  0  0
 32 15  1  0  0  0  0
 61 52  1  0  0  0  0
 79 62  1  0  0  0  0
 93 84  1  0  0  0  0
111 94  1  0  0  0  0
 26 18  1  0  0  0  0
 73 65  1  0  0  0  0
105 97  1  0  0  0  0
  1142  1  0  0  0  0
  2143  1  0  0  0  0
  6144  1  0  0  0  0
  7145  1  0  0  0  0
 10146  1  0  0  0  0
 10147  1  0  0  0  0
 11148  1  0  0  0  0
 11149  1  0  0  0  0
 11150  1  0  0  0  0
 14151  1  0  0  0  0
 19152  1  0  0  0  0
 20153  1  0  0  0  0
 23154  1  0  0  0  0
 23155  1  0  0  0  0
 24156  1  0  0  0  0
 24157  1  0  0  0  0
 24158  1  0  0  0  0
 26159  1  0  0  0  0
 30160  1  0  0  0  0
 36161  1  0  0  0  0
 39162  1  0  0  0  0
 39163  1  0  0  0  0
 39164  1  0  0  0  0
 42165  1  0  0  0  0
 42166  1  0  0  0  0
 42167  1  0  0  0  0
 43168  1  0  0  0  0
 46169  1  0  0  0  0
 47170  1  0  0  0  0
 49171  1  0  0  0  0
 53172  1  0  0  0  0
 54173  1  0  0  0  0
 57174  1  0  0  0  0
 57175  1  0  0  0  0
 58176  1  0  0  0  0
 58177  1  0  0  0  0
 58178  1  0  0  0  0
 61179  1  0  0  0  0
 66180  1  0  0  0  0
 67181  1  0  0  0  0
 70182  1  0  0  0  0
 70183  1  0  0  0  0
 71184  1  0  0  0  0
 71185  1  0  0  0  0
 71186  1  0  0  0  0
 73187  1  0  0  0  0
 77188  1  0  0  0  0
 81189  1  0  0  0  0
 85190  1  0  0  0  0
 86191  1  0  0  0  0
 89192  1  0  0  0  0
 89193  1  0  0  0  0
 90194  1  0  0  0  0
 90195  1  0  0  0  0
 90196  1  0  0  0  0
 93197  1  0  0  0  0
 98198  1  0  0  0  0
 99199  1  0  0  0  0
102200  1  0  0  0  0
102201  1  0  0  0  0
103202  1  0  0  0  0
103203  1  0  0  0  0
103204  1  0  0  0  0
105205  1  0  0  0  0
109206  1  0  0  0  0
115207  1  0  0  0  0
118208  1  0  0  0  0
118209  1  0  0  0  0
118210  1  0  0  0  0
121211  1  0  0  0  0
121212  1  0  0  0  0
121213  1  0  0  0  0
122214  1  0  0  0  0
125215  1  0  0  0  0
126216  1  0  0  0  0
130217  1  0  0  0  0
133218  1  0  0  0  0
133219  1  0  0  0  0
133220  1  0  0  0  0
136221  1  0  0  0  0
136222  1  0  0  0  0
136223  1  0  0  0  0
137224  1  0  0  0  0
140225  1  0  0  0  0
141226  1  0  0  0  0
141227  1  0  0  0  0
M  END
