227

C          0.50010       -2.23140       12.30060
C          0.87350       -0.98670       11.94400
C          0.45170       -0.63530       10.62640
C          0.68410        0.56250        9.93430
C          1.50290        1.63970       10.50450
C          2.78020        1.38380       11.00190
C          3.55870        2.40730       11.49620
C          3.09460        3.72220       11.53010
S          4.17230        4.94230       12.21050
C          3.76200        6.46690       11.26870
C          4.96390        7.39030       11.28420
C          1.80510        3.95660       11.06170
F          1.26210        5.19360       11.11380
C          1.02470        2.94470       10.54050
C          0.12160        0.67080        8.67120
C         -0.62620       -0.36940        8.06730
C         -0.81950       -1.58670        8.74050
C         -1.51750       -2.70120        8.08970
C         -2.53360       -3.40670        8.73130
C         -3.17300       -4.45130        8.09740
C         -2.83990       -4.82540        6.79760
S         -3.75590       -6.14370        6.05250
C         -2.47240       -7.12710        5.19020
C         -1.41440       -7.63710        6.14740
C         -1.84390       -4.09420        6.15940
C         -1.17310       -3.06860        6.79140
F         -1.49990       -4.36260        4.87860
C         -0.29110       -1.67750       10.02110
S         -0.39350       -3.06550       11.07470
C         -1.09940        0.00160        6.78340
C         -0.69310        1.23910        6.38470
S          0.28090        2.04220        7.60090
C         -0.95910        1.85900        5.12960
C         -0.45670        3.02270        4.63050
C         -0.88330        3.30220        3.30800
C         -0.51250        4.38420        2.49290
C          0.43900        5.41200        2.93150
C          1.68990        5.07390        3.44440
C          2.59610        6.05600        3.78370
C          2.28990        7.40750        3.63890
S          3.52390        8.58430        4.11320
C          3.43030        9.85780        2.79980
C          3.61560        9.26610        1.41690
C          1.02270        7.72990        3.16420
F          0.63540        9.01980        3.04000
C          0.11470        6.75810        2.79860
C         -1.06010        4.41900        1.22290
C         -1.95330        3.43660        0.72780
C         -2.33470        2.35650        1.54450
C         -3.25090        1.31830        1.06100
C         -4.29830        0.85640        1.85910
C         -5.15930       -0.11730        1.40250
C         -5.01570       -0.67660        0.13330
S         -6.13650       -1.96390       -0.31910
C         -6.35130       -1.74760       -2.13180
C         -7.68160       -2.34900       -2.53990
C         -3.96340       -0.21470       -0.65070
C         -3.10060        0.76590       -0.20810
F         -3.74600       -0.72360       -1.88630
C         -1.78330        2.32290        2.81740
S         -2.03030        1.06240        3.99470
C         -2.32500        3.69900       -0.60860
C         -1.70700        4.78730       -1.16330
S         -0.68530        5.60860        0.00220
C         -1.76190        5.14300       -2.53390
S         -2.39770        3.96290       -3.63610
C         -1.27870        6.25340       -3.22840
C         -0.69860        7.42000       -2.68860
C         -0.26500        8.41500       -3.51910
O          0.31280        9.57260       -3.11720
C          0.51950        9.76840       -1.73920
C         -0.40580        8.28240       -4.94640
O          0.05820        9.34450       -5.65080
C         -0.04360        9.31310       -7.05230
C         -0.96650        7.15710       -5.48400
C         -1.42110        6.12000       -4.64120
C         -1.96920        4.88880       -5.02870
C         -2.20750        4.46180       -6.36360
C         -2.24530        3.22790       -6.92540
C         -1.92280        1.91820       -6.45920
C         -1.81420        0.85190       -7.31800
C         -1.35520       -0.34390       -6.72420
C         -1.13040       -1.58620       -7.34720
C         -1.29390       -1.77040       -8.79350
C         -2.03990       -2.82910       -9.30180
C         -2.18030       -3.01960      -10.66310
C         -1.57810       -2.15420      -11.56840
S         -1.64810       -2.28810      -13.32490
C         -2.97190       -3.50680      -13.63350
C         -4.35100       -2.94990      -13.33490
C         -0.82290       -1.10310      -11.04470
F         -0.20980       -0.25170      -11.89400
C         -0.67540       -0.90200       -9.69160
C         -0.70820       -2.61790       -6.52880
C         -0.50340       -2.47230       -5.13450
C         -0.75730       -1.23840       -4.50230
C         -0.63990       -1.12730       -3.04540
C         -1.15160       -2.13750       -2.23160
C         -1.03830       -2.08970       -0.85740
C         -0.42590       -1.00970       -0.23570
S         -0.21030       -0.81990        1.50510
C         -0.92760       -2.33100        2.23510
C         -2.43990       -2.29640        2.32450
C          0.05790        0.01040       -1.05720
C         -0.03130       -0.03470       -2.43040
F          0.64070        1.08900       -0.48160
C         -1.14630       -0.19360       -5.32930
S         -1.48750        1.44180       -4.82790
C          0.02290       -3.64890       -4.55820
C          0.20400       -4.68160       -5.44030
S         -0.27710       -4.22390       -7.06700
C          0.72310       -5.95450       -5.10050
S          0.82770       -6.35040       -3.40980
C          1.28230       -6.97150       -5.87980
C          1.38090       -7.02440       -7.28580
C          1.99460       -8.08600       -7.88980
O          2.14320       -8.24740       -9.22790
C          1.62260       -7.25610      -10.07880
C          2.55010       -9.15060       -7.09750
O          3.13180      -10.14010       -7.82280
C          3.70050      -11.22540       -7.13520
C          2.47140       -9.10770       -5.73300
C          1.83190       -8.02550       -5.09290
C          1.69830       -7.81830       -3.70990
C          2.12270       -8.69480       -2.68290
C          2.24280       -8.49170       -1.34250
C          2.17710       -7.29970       -0.57040
S          1.63330       -7.45530        1.07750
C          2.53330       -5.97390       -0.82950
C          3.15300       -5.46250       -1.99150
C          3.38790       -4.12030       -2.10840
O          3.94160       -3.51350       -3.18690
C          4.25330       -4.30100       -4.30890
C          3.06600       -3.22570       -1.02600
O          3.36240       -1.92670       -1.27120
C          3.30980       -1.01480       -0.19980
C          2.55070       -3.71710        0.14030
C          2.27870       -5.09830        0.26960
C          1.79160       -5.76130        1.39720
C          1.48660       -5.21170        2.68050
C          1.07410       -5.91630        3.73540
H          0.68510       -2.73580       13.22880
H          1.41840       -0.31890       12.58620
H          3.17470        0.37960       10.96730
H          4.55320        2.20880       11.86480
H          3.51450        6.16090       10.25350
H          2.89730        6.93710       11.73460
H          5.82420        6.90610       10.82760
H          4.73550        8.29650       10.72730
H          5.22300        7.66340       12.30470
H          0.03160        3.18510       10.19450
H         -2.83150       -3.12740        9.72970
H         -3.95520       -4.99770        8.60080
H         -3.03980       -7.95020        4.75620
H         -2.04290       -6.53160        4.38750
H         -0.71320       -8.27420        5.61240
H         -0.86060       -6.81120        6.59050
H         -1.87050       -8.21450        6.94870
H         -0.37930       -2.56300        6.26340
H         -1.73230       -0.61830        6.17410
H          0.20320        3.65910        5.19320
H          1.96520        4.03450        3.53620
H          3.57190        5.79210        4.16110
H          2.48700       10.39180        2.89120
H          4.24720       10.53440        3.05080
H          2.80410        8.58180        1.17510
H          4.55520        8.72070        1.35750
H          3.62520       10.06320        0.67610
H         -0.85380        7.06450        2.43510
H         -4.45690        1.28430        2.83660
H         -5.96830       -0.46630        2.02500
H         -6.32280       -0.67810       -2.33410
H         -5.52330       -2.24030       -2.63940
H         -7.70950       -3.40990       -2.30110
H         -7.82580       -2.22830       -3.61150
H         -8.49950       -1.85730       -2.01810
H         -2.29020        1.05830       -0.85540
H         -3.02830        3.10820       -1.16590
H         -0.60960        7.50850       -1.61970
H          1.01130       10.73550       -1.65060
H         -0.42660        9.79110       -1.18910
H          1.16350        8.99070       -1.31610
H         -1.08690        9.24170       -7.37780
H          0.52690        8.48130       -7.47870
H          0.37830       10.25480       -7.39900
H         -1.06870        7.04360       -6.55040
H         -2.34560        5.28570       -7.05520
H         -2.47290        3.21580       -7.98610
H         -2.05730        0.92920       -8.36300
H         -2.53170       -3.50860       -8.62270
H         -2.76300       -3.85670      -11.01160
H         -2.75380       -4.41070      -13.06610
H         -2.86690       -3.73110      -14.69500
H         -5.10960       -3.69570      -13.56530
H         -4.53670       -2.06610      -13.94060
H         -4.44280       -2.67220      -12.28700
H         -0.06110       -0.08630       -9.34360
H         -1.67900       -2.96530       -2.67900
H         -1.44070       -2.90200       -0.27540
H         -0.49140       -2.36150        3.23320
H         -0.56270       -3.18950        1.67240
H         -2.76600       -1.43450        2.90180
H         -2.79060       -3.20050        2.81680
H         -2.89920       -2.23610        1.34110
H          0.38910        0.77390       -3.00660
H          0.32140       -3.72600       -3.52800
H          0.96470       -6.21940       -7.86630
H          2.10070       -6.28620       -9.90750
H          0.53990       -7.14890       -9.95550
H          1.84120       -7.59350      -11.09050
H          2.95200      -11.76480       -6.54490
H          4.51610      -10.90360       -6.47890
H          4.09680      -11.88590       -7.90440
H          2.89170       -9.89490       -5.12960
H          2.33590       -9.69960       -3.02700
H          2.38910       -9.38420       -0.74420
H          3.46630       -6.15160       -2.75680
H          5.02740       -5.04110       -4.08010
H          3.36880       -4.81320       -4.70060
H          4.62920       -3.60760       -5.05930
H          2.30440       -0.92610        0.21810
H          4.00460       -1.30110        0.59670
H          3.60820       -0.05420       -0.61500
H          2.34920       -3.06300        0.97230
H          1.63220       -4.14400        2.77350
H          0.92360       -6.98120        3.67280
H          0.87990       -5.45030        4.68330
