128

C          6.30590        1.75370        2.01640
S          5.33650        0.37430        1.73800
C          6.44580        2.02870        3.35630
C          7.17140        3.09040        3.95250
C          7.20230        3.20820        5.30940
O          7.86020        4.17290        6.00680
C          8.57990        5.13640        5.28150
C          6.49620        2.26220        6.13910
O          6.60900        2.50790        7.47200
C          5.95350        1.64540        8.36540
C          5.79190        1.23380        5.58030
C          5.75250        1.08360        4.17670
C          5.08140        0.10450        3.43530
C          4.44960       -1.05050        3.96920
C          3.64570       -1.97230        3.38050
C          2.97650       -1.94700        2.12720
S          2.40220       -0.49510        1.37300
C          2.53290       -3.06660        1.41190
C          2.77590       -4.42160        1.72530
C          2.25780       -5.40900        0.93590
O          2.40960       -6.74440        1.14270
C          3.15560       -7.16300        2.25610
C          1.47280       -5.07700       -0.22350
O          0.98810       -6.15540       -0.89160
C          0.15390       -5.93560       -2.00240
C          1.26320       -3.76940       -0.56310
C          1.79080       -2.73670        0.24170
C          1.63010       -1.35610        0.07280
C          0.95950       -0.66410       -0.96100
C          0.55480        0.62740       -0.87040
C         -0.05520        1.38750       -1.90120
S          0.25630        0.97890       -3.56920
C         -0.44810        2.42730       -4.13730
C         -0.92310        3.20960       -3.11090
C         -0.76300        2.59200       -1.82270
C         -1.36950        3.20890       -0.68680
C         -1.72810        4.54790       -0.80180
C         -1.78440        5.18170       -2.07090
C         -1.47460        4.51090       -3.21000
N         -1.92220        5.30590        0.32670
C         -1.67730        2.41060        0.49060
C         -2.87100        2.20650        1.08910
C         -4.18070        2.75830        0.95440
S         -4.58180        4.35260        0.38490
C         -6.17480        4.26980        0.98880
C         -6.44310        3.05420        1.57400
C         -5.32930        2.15700        1.48620
C         -5.50250        0.79020        1.83220
C         -6.66810        0.41810        2.47970
C         -7.70200        1.36560        2.70870
C         -7.62960        2.63000        2.21910
N         -6.85830       -0.88460        2.90540
C         -4.56480       -0.22830        1.32780
C         -4.43010       -0.48860        0.01600
C         -5.18890        0.10280       -1.04950
S         -6.78240        0.73360       -0.74200
C         -7.04590        1.10560       -2.37870
C         -5.96390        0.78190       -3.16210
C         -4.88710        0.19540       -2.40970
C         -3.70760       -0.21300       -3.09320
C         -3.63120       -0.00800       -4.46630
C         -4.70840        0.57980       -5.18120
C         -5.84900        0.96490       -4.55910
N         -2.53110       -0.39920       -5.20050
C         -2.57010       -0.78520       -2.37490
C         -1.96160       -1.93440       -2.70760
C         -2.44880       -2.89690       -3.66270
S         -4.15910       -3.17980       -3.76980
C         -3.94920       -4.50550       -4.81740
C         -2.62470       -4.72880       -5.11110
C         -1.74780       -3.78940       -4.46650
C         -0.34360       -3.83330       -4.72970
C          0.13750       -4.84680       -5.54950
C         -0.74690       -5.80420       -6.12170
C         -2.08760       -5.74710       -5.93310
N          1.47960       -4.97950       -5.84590
C          0.51810       -2.75740       -4.25570
C          1.77690       -2.85460       -3.83390
H          6.71520        2.28930        1.18350
H          7.68430        3.78370        3.30610
H          7.92450        5.71800        4.62430
H          9.02270        5.79640        6.02560
H          9.37520        4.67820        4.68350
H          4.86970        1.64820        8.20650
H          6.17280        2.02950        9.36040
H          6.32810        0.61920        8.28270
H          5.25520        0.53060        6.19560
H          4.72330       -1.24920        4.99880
H          3.45420       -2.87160        3.95560
H          3.36730       -4.65520        2.59490
H          4.19050       -6.80770        2.20500
H          3.14640       -8.25130        2.22530
H          2.70350       -6.82370        3.19460
H         -0.16380       -6.92260       -2.33370
H         -0.72770       -5.34350       -1.73580
H          0.68550       -5.43810       -2.81770
H          0.69500       -3.51230       -1.44040
H          0.75340       -1.22180       -1.86240
H          0.74890        1.14750        0.05780
H         -0.44680        2.64640       -5.18650
H         -2.13670        6.20230       -2.11100
H         -1.60150        4.95890       -4.18360
H         -2.44460        6.16070        0.23550
H         -2.04710        4.80540        1.19130
H         -0.88900        1.76560        0.84550
H         -2.86610        1.43240        1.84950
H         -6.82060        5.11990        0.89590
H         -8.59380        1.02650        3.21680
H         -8.45830        3.31590        2.30850
H         -6.29020       -1.57490        2.43930
H         -7.81690       -1.16450        3.03940
H         -3.99530       -0.80500        2.04620
H         -3.70650       -1.22940       -0.29860
H         -7.97320        1.54590       -2.68710
H         -4.59170        0.71260       -6.24800
H         -6.66800        1.41100       -5.10270
H         -1.67380       -0.51220       -4.68150
H         -2.42130        0.05530       -6.09280
H         -2.18350       -0.20000       -1.54980
H         -1.07170       -2.23240       -2.16940
H         -4.80000       -5.05710       -5.16450
H         -0.31470       -6.57340       -6.74660
H         -2.75340       -6.45580       -6.40170
H          2.02890       -4.13680       -5.75200
H          1.68180       -5.51620       -6.67540
H          0.06110       -1.77510       -4.28580
H          2.33610       -1.97850       -3.54950
H          2.28070       -3.79710       -3.69740
