252

C          7.26740       14.47200       -0.73430
S          7.57940       13.49470        0.62520
C          6.14640       14.06220       -1.42050
C          5.61390       14.63630       -2.60170
C          4.51150       14.08580       -3.18330
O          3.90000       14.53300       -4.30860
C          4.43190       15.66640       -4.94690
C          3.90490       12.90720       -2.61200
O          2.84480       12.43940       -3.31560
C          2.17970       11.29320       -2.84600
C          4.39960       12.35000       -1.46630
C          5.51630       12.92430       -0.81840
C          6.17460       12.50330        0.34110
C          5.91350       11.47120        1.28070
C          4.74510       10.81450        1.46630
C          4.55180        9.75650        2.40070
C          5.42980        9.15730        3.26070
C          4.86780        8.09550        4.01090
C          5.51500        7.24680        4.92770
C          6.96020        7.32820        5.16780
C          7.86420        7.33500        4.10600
C          9.22210        7.36190        4.34040
C          9.73260        7.39700        5.63600
S         11.49150        7.46170        5.82410
C         11.81520        6.28690        7.19110
C         11.28760        4.90010        6.88310
C          8.81900        7.42210        6.68500
F          9.24070        7.50420        7.96580
C          7.45760        7.36950        6.46610
C          4.72980        6.29160        5.55600
C          3.34930        6.13870        5.28540
C          2.71410        6.93300        4.31590
C          1.32960        6.65080        3.91120
C          0.95900        5.34860        3.57210
C         -0.33660        5.05450        3.20180
C         -1.30810        6.04840        3.15730
S         -2.97550        5.59190        2.75800
C         -3.31530        6.67760        1.32520
C         -2.41770        6.33720        0.15240
C         -0.92580        7.34510        3.48360
C          0.37080        7.65590        3.84440
F         -1.83030        8.34750        3.46310
C          3.48880        7.91540        3.72360
S          2.95470        9.02930        2.49700
C          2.77920        5.08380        6.03550
C          3.68130        4.39290        6.78970
S          5.29280        5.06060        6.66620
C          3.33850        3.14880        7.41690
C          2.09180        2.82700        7.85890
C          1.85410        1.43090        7.91620
C          0.59760        0.82380        8.06590
C         -0.54960        1.59840        8.55280
C         -0.44440        2.30570        9.75090
C         -1.51810        3.01200       10.24650
C         -2.73120        3.06370        9.56080
S         -4.01990        4.03460       10.28260
C         -5.55320        3.10370        9.91590
C         -5.50360        1.68930       10.45750
C         -2.80540        2.39300        8.34360
F         -3.92620        2.44350        7.59160
C         -1.74710        1.65720        7.84910
C          0.50690       -0.48580        7.62550
C          1.63220       -1.24580        7.22390
C          2.92360       -0.68610        7.26430
C          4.09390       -1.51430        6.95900
C          4.22660       -2.76490        7.56580
C          5.33330       -3.54970        7.32870
C          6.34460       -3.13480        6.46330
S          7.69850       -4.24290        6.21010
C          9.16220       -3.14740        6.10840
C          9.31370       -2.28480        7.34500
C          6.17790       -1.90640        5.83120
C          5.08790       -1.09730        6.08030
F          7.08420       -1.46200        4.93290
C          2.98750        0.67720        7.52560
S          4.35780        1.72950        7.24400
C          1.24880       -2.43890        6.54710
C         -0.09820       -2.56530        6.40210
S         -0.97920       -1.32840        7.28060
C         -0.79450       -3.23920        5.33510
C         -0.71060       -4.47700        4.78710
C         -1.36680       -4.57820        3.52380
C         -1.44510       -5.68040        2.65850
C         -0.96640       -7.01320        3.04500
C         -1.37190       -7.59810        4.24390
C         -0.99130       -8.88440        4.56030
C         -0.17830       -9.63170        3.70940
S          0.24550      -11.26900        4.22350
C          0.23930      -12.24590        2.67380
C         -1.08240      -12.14900        1.93870
C          0.26520       -9.01350        2.54440
F          1.10710       -9.64880        1.69940
C         -0.13040       -7.73720        2.20150
C         -2.00920       -5.45450        1.40940
C         -2.49420       -4.19280        0.98090
C         -2.43680       -3.09710        1.85210
C         -2.80930       -1.73140        1.44990
C         -4.07660       -1.39820        0.98490
C         -4.38460       -0.09570        0.63660
C         -3.43630        0.91620        0.73840
S         -3.70810        2.59790        0.27850
C         -5.46280        2.86980        0.70210
C         -5.70380        2.74370        2.19290
C         -2.16510        0.56360        1.18960
C         -1.84670       -0.72750        1.54430
F         -1.21240        1.51150        1.29080
C         -1.89590       -3.33320        3.10550
S         -1.72720       -2.12530        4.34020
C         -2.93700       -4.21660       -0.36550
C         -2.82400       -5.44330       -0.95100
S         -2.18140       -6.64580        0.14890
C         -3.09080       -5.80540       -2.30580
C         -3.57250       -5.02020       -3.31300
C         -3.63580       -5.68240       -4.56440
C         -4.00740       -5.15030       -5.81170
C         -4.54560       -3.79230       -5.94520
C         -5.59080       -3.35340       -5.13300
C         -6.13490       -2.09920       -5.30560
C         -5.65590       -1.22680       -6.28180
S         -6.42210        0.36330       -6.39250
C         -6.48390        0.70690       -8.18970
C         -7.20920       -0.38210       -8.95450
C         -4.58750       -1.66360       -7.05840
F         -4.03570       -0.86090       -7.99650
C         -4.04680       -2.92440       -6.91070
C         -3.85370       -5.98030       -6.90950
C         -3.38130       -7.31460       -6.83070
C         -3.03040       -7.85220       -5.58150
C         -2.47590       -9.20070       -5.41880
C         -1.38640       -9.63060       -6.17460
C         -0.79450      -10.84960       -5.91990
C         -1.27260      -11.69090       -4.91830
S         -0.42430      -13.21840       -4.63680
C         -0.32200      -13.29920       -2.80830
C          0.34150      -12.07110       -2.21800
C         -2.40180      -11.27860       -4.21780
C         -2.98760      -10.05050       -4.44290
F         -2.96050      -12.07400       -3.27990
C         -3.17210       -7.01810       -4.48220
S         -2.71120       -7.42510       -2.85180
C         -3.35750       -7.94320       -8.09720
C         -3.76950       -7.14470       -9.13160
S         -4.23960       -5.55370       -8.55490
C         -3.81000       -7.50000      -10.50530
S         -3.34340       -9.11110      -10.95630
C         -4.14700       -6.75860      -11.64110
C         -4.57950       -5.41630      -11.70070
C         -4.89230       -4.84240      -12.90000
O         -5.30580       -3.56440      -13.06960
C         -5.41380       -2.74060      -11.93400
C         -4.81710       -5.61340      -14.11490
O         -5.20700       -4.94020      -15.22600
C         -5.16690       -5.61060      -16.46060
C         -4.38610       -6.90800      -14.08140
C         -4.00980       -7.50480      -12.85450
C         -3.55120       -8.80350      -12.64700
C         -3.22420       -9.86420      -13.55920
C         -2.83590       -9.73610      -14.82740
H          7.91540       15.29440       -0.96260
H          6.10800       15.49980       -3.01590
H          5.45800       15.49130       -5.28700
H          3.79180       15.84660       -5.80890
H          4.41300       16.54290       -4.29070
H          2.84390       10.42290       -2.82220
H          1.37310       11.11120       -3.55400
H          1.75690       11.45350       -1.84870
H          3.96460       11.45170       -1.06700
H          6.74670       11.23140        1.92900
H          3.86950       11.09060        0.90000
H          6.45210        9.46920        3.36970
H          7.49670        7.28110        3.09250
H          9.91940        7.34960        3.51710
H         12.90250        6.28690        7.26810
H         11.39470        6.68860        8.11030
H         10.20200        4.90610        6.80190
H         11.56790        4.21620        7.68170
H         11.70180        4.53310        5.94620
H          6.79480        7.39260        7.31710
H          1.70210        4.56570        3.57510
H         -0.61560        4.04750        2.93310
H         -3.20600        7.71330        1.64070
H         -4.36230        6.48680        1.09130
H         -2.51870        5.28560       -0.10820
H         -2.69060        6.94200       -0.71030
H         -1.37490        6.53290        0.39710
H          0.61050        8.67550        4.10270
H          1.74000        4.81610        5.98240
H          1.32650        3.55810        8.04670
H          0.48100        2.27480       10.30610
H         -1.43930        3.54110       11.18340
H         -5.73380        3.12500        8.84360
H         -6.32300        3.69000       10.41790
H         -5.29130        1.69590       11.52470
H         -6.46250        1.20170       10.29410
H         -4.73340        1.10700        9.95510
H         -1.86360        1.16930        6.89440
H          3.46570       -3.10530        8.25180
H          5.43950       -4.50690        7.81510
H          9.99020       -3.85030        6.01510
H          9.09830       -2.55210        5.20040
H          8.48700       -1.58240        7.43340
H          9.34060       -2.90210        8.24060
H         10.23990       -1.71700        7.28300
H          5.01310       -0.16210        5.54900
H          1.95280       -3.09200        6.06270
H         -0.17850       -5.29270        5.24270
H         -2.02210       -7.05180        4.91020
H         -1.32820       -9.34410        5.47650
H          1.07680      -11.93190        2.05440
H          0.41950      -13.26200        3.02540
H         -1.90610      -12.41620        2.59750
H         -1.08070      -12.83060        1.09020
H         -1.25070      -11.14020        1.56650
H          0.24550       -7.31070        1.28480
H         -4.83510       -2.16320        0.90940
H         -5.37600        0.13140        0.27700
H         -6.07870        2.18600        0.11910
H         -5.65260        3.88670        0.35900
H         -6.74180        2.97690        2.42150
H         -5.06180        3.43460        2.73520
H         -5.49140        1.73260        2.53540
H         -0.84570       -0.94620        1.88140
H         -3.29850       -3.34390       -0.87770
H         -3.84210       -3.98870       -3.17830
H         -6.00130       -4.01770       -4.38780
H         -6.95640       -1.77020       -4.68820
H         -5.47140        0.85840       -8.55720
H         -7.02570        1.65130       -8.24190
H         -8.20660       -0.53490       -8.54750
H         -6.66540       -1.32350       -8.90070
H         -7.29740       -0.09730      -10.00090
H         -3.21480       -3.20510       -7.53710
H         -0.97320       -8.98280       -6.93250
H          0.06810      -11.16680       -6.48490
H         -1.32070      -13.45670       -2.40640
H          0.27670      -14.19310       -2.63330
H          1.32000      -11.91240       -2.66640
H         -0.26340      -11.18160       -2.38530
H          0.46750      -12.20040       -1.14490
H         -3.85620       -9.77730       -3.86420
H         -3.05150       -8.96350       -8.24490
H         -4.66270       -4.85180      -10.78950
H         -5.74360       -1.77190      -12.30530
H         -6.15200       -3.12940      -11.22490
H         -4.45110       -2.62610      -11.42590
H         -5.51350       -4.88910      -17.19850
H         -5.82890       -6.48280      -16.46730
H         -4.14910       -5.92640      -16.71290
H         -4.35480       -7.50560      -14.97510
H         -3.26100      -10.85420      -13.12020
H         -2.70280       -8.78010      -15.30090
H         -2.60460      -10.60170      -15.42290
