
  xtb     03082202463D
 energy: -224.074910055725 gnorm: 0.000182796214 xtb: 6.4.1 (unknown)
132143  0     0  0            999 V2000
    6.9001    7.1939   -0.1548 C   0  0  0  0  0  0  0  0  0  0  0  0
    8.3492    7.7185    0.5946 S   0  0  0  0  0  0  0  0  0  0  0  0
    8.6992    6.1532    1.2063 C   0  0  0  0  0  0  0  0  0  0  0  0
    7.7331    5.2537    0.8471 C   0  0  0  0  0  0  0  0  0  0  0  0
    6.6865    5.8600    0.0645 C   0  0  0  0  0  0  0  0  0  0  0  0
    5.6124    5.1342   -0.3459 N   0  0  0  0  0  0  0  0  0  0  0  0
    5.5876    3.8742   -0.0204 C   0  0  0  0  0  0  0  0  0  0  0  0
    6.7016    3.2321    0.6844 C   0  0  0  0  0  0  0  0  0  0  0  0
    6.7479    1.8839    0.8049 N   0  0  0  0  0  0  0  0  0  0  0  0
    7.7670    1.2200    1.5744 C   0  0  0  0  0  0  0  0  0  0  0  0
    7.7204    3.9230    1.1228 N   0  0  0  0  0  0  0  0  0  0  0  0
    4.4978    3.1438   -0.4551 N   0  0  0  0  0  0  0  0  0  0  0  0
    3.5542    3.8612   -1.2993 C   0  0  0  0  0  0  0  0  0  0  0  0
    3.9570    2.1316    0.3296 C   0  0  0  0  0  0  0  0  0  0  0  0
    3.6393    2.3513    2.0353 S   0  0  0  0  0  0  0  0  0  0  0  0
    3.5109    0.8962   -0.1006 C   0  0  0  0  0  0  0  0  0  0  0  0
    3.6275    0.3385   -1.3998 C   0  0  0  0  0  0  0  0  0  0  0  0
    3.2217   -0.9420   -1.6210 C   0  0  0  0  0  0  0  0  0  0  0  0
    3.2930   -1.5925   -2.8204 O   0  0  0  0  0  0  0  0  0  0  0  0
    3.8932   -0.9114   -3.8955 C   0  0  0  0  0  0  0  0  0  0  0  0
    2.7002   -1.7461   -0.5409 C   0  0  0  0  0  0  0  0  0  0  0  0
    2.4423   -3.0396   -0.8882 O   0  0  0  0  0  0  0  0  0  0  0  0
    2.0906   -3.9332    0.1405 C   0  0  0  0  0  0  0  0  0  0  0  0
    2.5491   -1.2182    0.7044 C   0  0  0  0  0  0  0  0  0  0  0  0
    2.9404    0.1208    0.9574 C   0  0  0  0  0  0  0  0  0  0  0  0
    2.9358    0.7749    2.1755 C   0  0  0  0  0  0  0  0  0  0  0  0
    2.4798    0.2593    3.4543 C   0  0  0  0  0  0  0  0  0  0  0  0
    1.1911    0.0427    3.7677 C   0  0  0  0  0  0  0  0  0  0  0  0
    0.0402    0.4124    3.0147 C   0  0  0  0  0  0  0  0  0  0  0  0
    0.0552    1.3976    1.5828 S   0  0  0  0  0  0  0  0  0  0  0  0
   -1.6530    1.4568    1.4933 C   0  0  0  0  0  0  0  0  0  0  0  0
   -2.2398    0.7439    2.5055 C   0  0  0  0  0  0  0  0  0  0  0  0
   -1.2739    0.1278    3.3688 C   0  0  0  0  0  0  0  0  0  0  0  0
   -1.6576   -0.7271    4.3446 N   0  0  0  0  0  0  0  0  0  0  0  0
   -2.9424   -0.9125    4.5019 C   0  0  0  0  0  0  0  0  0  0  0  0
   -3.9205   -0.0912    3.7876 C   0  0  0  0  0  0  0  0  0  0  0  0
   -5.1895    0.0228    4.2532 N   0  0  0  0  0  0  0  0  0  0  0  0
   -6.2205    0.6837    3.4978 C   0  0  0  0  0  0  0  0  0  0  0  0
   -3.5684    0.6585    2.7770 N   0  0  0  0  0  0  0  0  0  0  0  0
   -3.3212   -1.8773    5.4111 N   0  0  0  0  0  0  0  0  0  0  0  0
   -2.2921   -2.4077    6.2828 C   0  0  0  0  0  0  0  0  0  0  0  0
   -4.4579   -2.6343    5.2108 C   0  0  0  0  0  0  0  0  0  0  0  0
   -5.3402   -3.3501    6.5369 S   0  0  0  0  0  0  0  0  0  0  0  0
   -6.6039   -3.9083    5.5022 C   0  0  0  0  0  0  0  0  0  0  0  0
   -6.3810   -3.5468    4.2046 C   0  0  0  0  0  0  0  0  0  0  0  0
   -5.1279   -2.8670    4.0267 C   0  0  0  0  0  0  0  0  0  0  0  0
   -4.6855   -2.5633    2.7895 N   0  0  0  0  0  0  0  0  0  0  0  0
   -5.4683   -2.7735    1.7609 C   0  0  0  0  0  0  0  0  0  0  0  0
   -6.8470   -3.2190    1.9891 C   0  0  0  0  0  0  0  0  0  0  0  0
   -7.7799   -3.2011    0.9895 N   0  0  0  0  0  0  0  0  0  0  0  0
   -9.1516   -3.5217    1.3110 C   0  0  0  0  0  0  0  0  0  0  0  0
   -7.2372   -3.6565    3.1532 N   0  0  0  0  0  0  0  0  0  0  0  0
   -4.9012   -2.5538    0.5381 N   0  0  0  0  0  0  0  0  0  0  0  0
   -5.4973   -2.9244   -0.7276 C   0  0  0  0  0  0  0  0  0  0  0  0
   -3.5836   -2.1173    0.4947 C   0  0  0  0  0  0  0  0  0  0  0  0
   -2.4540   -2.5338    1.7359 S   0  0  0  0  0  0  0  0  0  0  0  0
   -1.1486   -1.8121    0.8813 C   0  0  0  0  0  0  0  0  0  0  0  0
   -1.5688   -1.2092   -0.2707 C   0  0  0  0  0  0  0  0  0  0  0  0
   -2.9661   -1.4297   -0.5294 C   0  0  0  0  0  0  0  0  0  0  0  0
   -3.5323   -1.0129   -1.6953 N   0  0  0  0  0  0  0  0  0  0  0  0
   -2.7740   -0.3266   -2.5021 C   0  0  0  0  0  0  0  0  0  0  0  0
   -1.4241    0.0918   -2.1251 C   0  0  0  0  0  0  0  0  0  0  0  0
   -0.8235    1.1144   -2.7814 N   0  0  0  0  0  0  0  0  0  0  0  0
    0.5435    1.4724   -2.5141 C   0  0  0  0  0  0  0  0  0  0  0  0
   -0.8271   -0.4029   -1.0756 N   0  0  0  0  0  0  0  0  0  0  0  0
   -3.3130    0.0551   -3.7186 N   0  0  0  0  0  0  0  0  0  0  0  0
   -4.7474   -0.0477   -3.8872 C   0  0  0  0  0  0  0  0  0  0  0  0
   -2.5157   -0.0297   -4.8469 C   0  0  0  0  0  0  0  0  0  0  0  0
   -2.7404    0.9959   -6.2379 S   0  0  0  0  0  0  0  0  0  0  0  0
   -1.3236    0.3820   -7.0087 C   0  0  0  0  0  0  0  0  0  0  0  0
   -0.6902   -0.5475   -6.2328 C   0  0  0  0  0  0  0  0  0  0  0  0
   -1.3846   -0.8018   -5.0021 C   0  0  0  0  0  0  0  0  0  0  0  0
   -0.9366   -1.7096   -4.0964 N   0  0  0  0  0  0  0  0  0  0  0  0
    0.1831   -2.3124   -4.3743 C   0  0  0  0  0  0  0  0  0  0  0  0
    0.8849   -2.0715   -5.6396 C   0  0  0  0  0  0  0  0  0  0  0  0
    2.0261   -2.7701   -5.8850 N   0  0  0  0  0  0  0  0  0  0  0  0
    2.6229   -2.7595   -7.1990 C   0  0  0  0  0  0  0  0  0  0  0  0
    0.4538   -1.2271   -6.5349 N   0  0  0  0  0  0  0  0  0  0  0  0
    0.6395   -3.2929   -3.5347 N   0  0  0  0  0  0  0  0  0  0  0  0
   -0.2012   -3.6248   -2.4029 C   0  0  0  0  0  0  0  0  0  0  0  0
    6.2875    7.8874   -0.6932 H   0  0  0  0  0  0  0  0  0  0  0  0
    9.5837    5.9873    1.7858 H   0  0  0  0  0  0  0  0  0  0  0  0
    5.9201    1.3566    0.5743 H   0  0  0  0  0  0  0  0  0  0  0  0
    7.4086    0.9636    2.5760 H   0  0  0  0  0  0  0  0  0  0  0  0
    8.6105    1.9005    1.6634 H   0  0  0  0  0  0  0  0  0  0  0  0
    8.0752    0.3076    1.0628 H   0  0  0  0  0  0  0  0  0  0  0  0
    2.8152    3.1546   -1.6687 H   0  0  0  0  0  0  0  0  0  0  0  0
    4.1016    4.3117   -2.1249 H   0  0  0  0  0  0  0  0  0  0  0  0
    3.0566    4.6590   -0.7420 H   0  0  0  0  0  0  0  0  0  0  0  0
    4.0563    0.9482   -2.1779 H   0  0  0  0  0  0  0  0  0  0  0  0
    3.8926   -1.6098   -4.7297 H   0  0  0  0  0  0  0  0  0  0  0  0
    4.9213   -0.6203   -3.6587 H   0  0  0  0  0  0  0  0  0  0  0  0
    3.3220   -0.0207   -4.1772 H   0  0  0  0  0  0  0  0  0  0  0  0
    2.8409   -3.9362    0.9377 H   0  0  0  0  0  0  0  0  0  0  0  0
    2.0547   -4.9192   -0.3205 H   0  0  0  0  0  0  0  0  0  0  0  0
    1.1105   -3.6948    0.5643 H   0  0  0  0  0  0  0  0  0  0  0  0
    2.1678   -1.7954    1.5303 H   0  0  0  0  0  0  0  0  0  0  0  0
    3.2456    0.0487    4.1905 H   0  0  0  0  0  0  0  0  0  0  0  0
    0.9474   -0.4205    4.7151 H   0  0  0  0  0  0  0  0  0  0  0  0
   -2.1274    2.0033    0.7039 H   0  0  0  0  0  0  0  0  0  0  0  0
   -5.4922   -0.6208    4.9663 H   0  0  0  0  0  0  0  0  0  0  0  0
   -6.8424   -0.0363    2.9540 H   0  0  0  0  0  0  0  0  0  0  0  0
   -6.8555    1.2611    4.1705 H   0  0  0  0  0  0  0  0  0  0  0  0
   -5.7331    1.3450    2.7854 H   0  0  0  0  0  0  0  0  0  0  0  0
   -1.6618   -1.5854    6.6136 H   0  0  0  0  0  0  0  0  0  0  0  0
   -2.7676   -2.8839    7.1386 H   0  0  0  0  0  0  0  0  0  0  0  0
   -1.6685   -3.1335    5.7552 H   0  0  0  0  0  0  0  0  0  0  0  0
   -7.4301   -4.4440    5.9200 H   0  0  0  0  0  0  0  0  0  0  0  0
   -7.6607   -2.4929    0.2832 H   0  0  0  0  0  0  0  0  0  0  0  0
   -9.6361   -2.7337    1.8959 H   0  0  0  0  0  0  0  0  0  0  0  0
   -9.1580   -4.4337    1.9032 H   0  0  0  0  0  0  0  0  0  0  0  0
   -9.6998   -3.6761    0.3838 H   0  0  0  0  0  0  0  0  0  0  0  0
   -6.1147   -3.8142   -0.6114 H   0  0  0  0  0  0  0  0  0  0  0  0
   -4.6939   -3.1361   -1.4306 H   0  0  0  0  0  0  0  0  0  0  0  0
   -6.0828   -2.1033   -1.1498 H   0  0  0  0  0  0  0  0  0  0  0  0
   -0.1773   -1.7653    1.3275 H   0  0  0  0  0  0  0  0  0  0  0  0
   -1.1965    1.3845   -3.6773 H   0  0  0  0  0  0  0  0  0  0  0  0
    1.2389    0.9068   -3.1438 H   0  0  0  0  0  0  0  0  0  0  0  0
    0.6754    2.5381   -2.7019 H   0  0  0  0  0  0  0  0  0  0  0  0
    0.7522    1.2425   -1.4706 H   0  0  0  0  0  0  0  0  0  0  0  0
   -5.0574   -1.0794   -4.0772 H   0  0  0  0  0  0  0  0  0  0  0  0
   -5.0452    0.5816   -4.7249 H   0  0  0  0  0  0  0  0  0  0  0  0
   -5.2245    0.2984   -2.9730 H   0  0  0  0  0  0  0  0  0  0  0  0
   -1.0532    0.7432   -7.9787 H   0  0  0  0  0  0  0  0  0  0  0  0
    2.1454   -3.6129   -5.3432 H   0  0  0  0  0  0  0  0  0  0  0  0
    3.6794   -3.0124   -7.1175 H   0  0  0  0  0  0  0  0  0  0  0  0
    2.1365   -3.4677   -7.8769 H   0  0  0  0  0  0  0  0  0  0  0  0
    2.5097   -1.7588   -7.6098 H   0  0  0  0  0  0  0  0  0  0  0  0
    1.6203   -3.2229   -3.2860 H   0  0  0  0  0  0  0  0  0  0  0  0
    0.1429   -4.5674   -1.9828 H   0  0  0  0  0  0  0  0  0  0  0  0
   -0.1870   -2.8508   -1.6344 H   0  0  0  0  0  0  0  0  0  0  0  0
   -1.2244   -3.7325   -2.7589 H   0  0  0  0  0  0  0  0  0  0  0  0
  1  2  1  0  0  0  0
  2  3  1  0  0  0  0
  3  4  2  0  0  0  0
  4  5  1  0  0  0  0
  5  6  1  0  0  0  0
  6  7  2  0  0  0  0
  7  8  1  0  0  0  0
  8  9  1  0  0  0  0
  9 10  1  0  0  0  0
  8 11  2  0  0  0  0
  7 12  1  0  0  0  0
 12 13  1  0  0  0  0
 12 14  1  0  0  0  0
 14 15  1  0  0  0  0
 14 16  2  0  0  0  0
 16 17  1  0  0  0  0
 17 18  2  0  0  0  0
 18 19  1  0  0  0  0
 19 20  1  0  0  0  0
 18 21  1  0  0  0  0
 21 22  1  0  0  0  0
 22 23  1  0  0  0  0
 21 24  2  0  0  0  0
 24 25  1  0  0  0  0
 25 26  2  0  0  0  0
 26 27  1  0  0  0  0
 27 28  2  0  0  0  0
 28 29  1  0  0  0  0
 29 30  1  0  0  0  0
 30 31  1  0  0  0  0
 31 32  2  0  0  0  0
 32 33  1  0  0  0  0
 33 34  1  0  0  0  0
 34 35  2  0  0  0  0
 35 36  1  0  0  0  0
 36 37  1  0  0  0  0
 37 38  1  0  0  0  0
 36 39  2  0  0  0  0
 35 40  1  0  0  0  0
 40 41  1  0  0  0  0
 40 42  1  0  0  0  0
 42 43  1  0  0  0  0
 43 44  1  0  0  0  0
 44 45  2  0  0  0  0
 45 46  1  0  0  0  0
 46 47  1  0  0  0  0
 47 48  2  0  0  0  0
 48 49  1  0  0  0  0
 49 50  1  0  0  0  0
 50 51  1  0  0  0  0
 49 52  2  0  0  0  0
 48 53  1  0  0  0  0
 53 54  1  0  0  0  0
 53 55  1  0  0  0  0
 55 56  1  0  0  0  0
 56 57  1  0  0  0  0
 57 58  2  0  0  0  0
 58 59  1  0  0  0  0
 59 60  1  0  0  0  0
 60 61  2  0  0  0  0
 61 62  1  0  0  0  0
 62 63  1  0  0  0  0
 63 64  1  0  0  0  0
 62 65  2  0  0  0  0
 61 66  1  0  0  0  0
 66 67  1  0  0  0  0
 66 68  1  0  0  0  0
 68 69  1  0  0  0  0
 69 70  1  0  0  0  0
 70 71  2  0  0  0  0
 71 72  1  0  0  0  0
 72 73  1  0  0  0  0
 73 74  2  0  0  0  0
 74 75  1  0  0  0  0
 75 76  1  0  0  0  0
 76 77  1  0  0  0  0
 75 78  2  0  0  0  0
 74 79  1  0  0  0  0
 79 80  1  0  0  0  0
  5  1  2  0  0  0  0
 26 15  1  0  0  0  0
 33 29  2  0  0  0  0
 46 42  2  0  0  0  0
 59 55  2  0  0  0  0
 72 68  2  0  0  0  0
 11  4  1  0  0  0  0
 25 16  1  0  0  0  0
 39 32  1  0  0  0  0
 52 45  1  0  0  0  0
 65 58  1  0  0  0  0
 78 71  1  0  0  0  0
  1 81  1  0  0  0  0
  3 82  1  0  0  0  0
  9 83  1  0  0  0  0
 10 84  1  0  0  0  0
 10 85  1  0  0  0  0
 10 86  1  0  0  0  0
 13 87  1  0  0  0  0
 13 88  1  0  0  0  0
 13 89  1  0  0  0  0
 17 90  1  0  0  0  0
 20 91  1  0  0  0  0
 20 92  1  0  0  0  0
 20 93  1  0  0  0  0
 23 94  1  0  0  0  0
 23 95  1  0  0  0  0
 23 96  1  0  0  0  0
 24 97  1  0  0  0  0
 27 98  1  0  0  0  0
 28 99  1  0  0  0  0
 31100  1  0  0  0  0
 37101  1  0  0  0  0
 38102  1  0  0  0  0
 38103  1  0  0  0  0
 38104  1  0  0  0  0
 41105  1  0  0  0  0
 41106  1  0  0  0  0
 41107  1  0  0  0  0
 44108  1  0  0  0  0
 50109  1  0  0  0  0
 51110  1  0  0  0  0
 51111  1  0  0  0  0
 51112  1  0  0  0  0
 54113  1  0  0  0  0
 54114  1  0  0  0  0
 54115  1  0  0  0  0
 57116  1  0  0  0  0
 63117  1  0  0  0  0
 64118  1  0  0  0  0
 64119  1  0  0  0  0
 64120  1  0  0  0  0
 67121  1  0  0  0  0
 67122  1  0  0  0  0
 67123  1  0  0  0  0
 70124  1  0  0  0  0
 76125  1  0  0  0  0
 77126  1  0  0  0  0
 77127  1  0  0  0  0
 77128  1  0  0  0  0
 79129  1  0  0  0  0
 80130  1  0  0  0  0
 80131  1  0  0  0  0
 80132  1  0  0  0  0
M  END
