227

C          0.46440        4.24910       11.52260
C         -0.40410        3.66110       10.67620
C         -0.04190        2.32050       10.34860
C         -0.70320        1.42400        9.49530
C         -1.85540        1.80640        8.67160
C         -1.84190        2.97470        7.91420
C         -2.87520        3.28480        7.05100
C         -3.96310        2.43060        6.90510
S         -5.31710        2.66630        5.80990
C         -5.00380        4.30840        5.06340
C         -6.07870        4.58000        4.02890
C         -3.97450        1.27390        7.68750
F         -5.01920        0.42350        7.58610
C         -2.95770        0.95980        8.55780
C         -0.15950        0.15010        9.40600
C          1.03520       -0.24870       10.05370
C          1.71550        0.66550       10.87560
C          2.99230        0.32170       11.51180
C          4.04720       -0.19860       10.76180
C          5.25400       -0.49100       11.35750
C          5.45830       -0.29290       12.72310
S          7.03670       -0.74600       13.37000
C          7.29670        0.41080       14.77410
C          8.78460        0.52570       15.04120
C          4.38870        0.20160       13.46310
C          3.18230        0.52180       12.87430
F          4.49020        0.37610       14.80070
C          1.13690        1.91950       11.02260
S          1.78010        3.22430       11.98860
C          1.39500       -1.58220        9.73280
C          0.54600       -2.19570        8.85220
S         -0.78880       -1.13980        8.42230
C          0.70450       -3.46940        8.24350
S          2.17550       -4.35800        8.51780
C         -0.08750       -4.11660        7.29170
C         -1.36010       -3.74430        6.80510
C         -1.94520       -4.44530        5.78730
O         -3.13440       -4.14560        5.21880
C         -3.82750       -3.00470        5.67050
C         -1.29460       -5.60860        5.23430
O         -1.96850       -6.19910        4.21760
C         -1.36810       -7.29330        3.57110
C         -0.09860       -6.02660        5.73890
C          0.54560       -5.27560        6.74990
C          1.80780       -5.51550        7.28420
C          2.76690       -6.50820        6.87530
C          3.09390       -6.76150        5.59260
C          2.69650       -5.96830        4.45840
C          2.56680       -6.36420        3.15950
C          2.14840       -5.32950        2.27700
C          1.87570       -5.39270        0.89930
C          2.09270       -6.62280        0.12830
C          3.31110       -7.29780        0.18420
C          3.52270       -8.42650       -0.57800
C          2.52670       -8.93860       -1.40730
S          2.89880      -10.40900       -2.31670
C          2.13570      -10.11510       -3.95560
C          2.64840       -8.84430       -4.60220
C          1.30200       -8.27760       -1.42100
F          0.27060       -8.74800       -2.15500
C          1.08630       -7.12930       -0.68710
C          1.40110       -4.23330        0.29920
C          1.19050       -3.02810        1.01290
C          1.47410       -2.95870        2.38200
C          1.22780       -1.74460        3.17300
C          0.36840       -1.80020        4.26770
C          0.13680       -0.67690        5.03270
C          0.76090        0.52980        4.74030
S          0.41650        1.93950        5.76750
C          2.10400        2.40130        6.30500
C          2.73880        1.31470        7.14880
C          1.59040        0.58070        3.62640
C          1.83330       -0.53520        2.84970
F          2.18480        1.74140        3.27200
C          1.95400       -4.11220        2.97380
S          2.37680       -4.25220        4.65020
C          0.67340       -2.00120        0.19180
C          0.52000       -2.36720       -1.11350
S          1.00470       -4.02700       -1.39140
C          0.03120       -1.50700       -2.14420
C         -0.61170       -0.32260       -1.92830
C         -0.91180        0.38720       -3.11220
C         -1.48150        1.66840       -3.20510
C         -1.89650        2.36390       -1.97600
C         -1.27750        3.54440       -1.57700
C         -1.57860        4.10970       -0.35250
C         -2.51970        3.52970        0.48580
S         -2.81930        4.22890        2.09930
C         -1.77130        3.11020        3.11050
C         -2.39680        1.75050        3.34780
C         -3.19410        2.40020        0.04020
F         -4.16790        1.85020        0.78780
C         -2.87510        1.80150       -1.16330
C         -1.57840        2.21270       -4.46820
C         -1.15770        1.52640       -5.63650
C         -0.57370        0.24890       -5.54170
C         -0.06130       -0.42220       -6.74070
C          0.74870        0.27010       -7.64100
C          1.19570       -0.34080       -8.79210
C          0.87470       -1.66260       -9.07920
S          1.52550       -2.38600      -10.56310
C          0.01030       -3.03520      -11.35630
C         -0.96870       -1.92450      -11.68110
C          0.10340       -2.35600       -8.15300
C         -0.37290       -1.75210       -7.00670
F         -0.21490       -3.65060       -8.36360
C         -0.47500       -0.29860       -4.27140
S          0.26670       -1.82390       -3.85050
C         -1.41470        2.27840       -6.80190
C         -1.96900        3.51180       -6.57280
S         -2.23200        3.78330       -4.85510
C         -2.24730        4.47290       -7.57290
S         -1.88740        4.04200       -9.22190
C         -2.69940        5.79470       -7.49840
C         -3.09710        6.50910       -6.34920
C         -3.49520        7.81300       -6.45490
O         -3.89880        8.59370       -5.42450
C         -3.92660        8.03440       -4.13380
C         -3.50850        8.46750       -7.73650
O         -3.92120        9.75920       -7.69820
C         -3.98080       10.47780       -8.90440
C         -3.12430        7.78880       -8.85950
C         -2.72010        6.44010       -8.76960
C         -2.27560        5.62100       -9.81940
C         -2.23080        5.96040      -11.19380
C         -1.61740        5.32700      -12.22940
C         -0.65880        4.27590      -12.23000
S         -0.64330        3.19870      -13.59390
C          0.38900        3.95280      -11.36350
C          0.78920        4.66920      -10.21480
C          1.83210        4.22010       -9.45380
O          2.26600        4.79400       -8.30430
C          1.56230        5.90630       -7.80980
C          2.59170        3.07110       -9.87180
O          3.64170        2.77600       -9.06250
C          4.53610        1.76570       -9.46000
C          2.25750        2.40220      -11.01570
C          1.13270        2.80280      -11.77430
C          0.66610        2.25250      -12.96880
C          1.05890        1.09820      -13.72520
C          1.72750        0.02870      -13.29140
H          0.42290        5.24120       11.92790
H         -1.29080        4.13990       10.30240
H         -0.99120        3.63610        7.96920
H         -2.81990        4.19540        6.47740
H         -5.02510        5.04910        5.86330
H         -4.02430        4.29080        4.58900
H         -7.06620        4.56540        4.48430
H         -6.04460        3.82680        3.24550
H         -5.91080        5.55450        3.57640
H         -3.04160        0.06470        9.15330
H          3.92670       -0.34450        9.69910
H          6.07190       -0.88090       10.77160
H          6.77000        0.02160       15.64390
H          6.87270        1.37070       14.48350
H          9.30350        0.90170       14.16230
H          9.20170       -0.44560       15.29820
H          8.95660        1.20930       15.86990
H          2.38710        0.89690       13.49950
H          2.26080       -2.07560       10.13730
H         -1.86920       -2.90510        7.24310
H         -4.11400       -3.09630        6.72210
H         -3.23440       -2.09470        5.53530
H         -4.72480       -2.94410        5.05800
H         -2.04520       -7.56640        2.76380
H         -0.39100       -7.02470        3.15290
H         -1.24880       -8.14590        4.24750
H          0.38980       -6.91280        5.36970
H          3.25290       -7.06960        7.66270
H          3.73880       -7.60110        5.36880
H          2.71970       -7.38100        2.84200
H          4.10690       -6.91000        0.80190
H          4.47390       -8.93490       -0.55010
H          1.05350      -10.11020       -3.84680
H          2.43150      -10.99500       -4.52710
H          2.35550       -7.96800       -4.02670
H          3.73400       -8.86300       -4.67490
H          2.23210       -8.75040       -5.60300
H          0.11800       -6.65630       -0.73750
H         -0.12430       -2.72770        4.51570
H         -0.53000       -0.71880        5.87900
H          2.69620        2.63300        5.42190
H          1.95650        3.31260        6.88390
H          2.12370        1.10670        8.02140
H          2.85020        0.39470        6.57590
H          3.72270        1.63680        7.48500
H          2.50100       -0.45460        2.00550
H          0.43800       -1.02200        0.56500
H         -0.85780        0.04540       -0.94970
H         -0.53260        3.99690       -2.21340
H         -1.07310        5.00440       -0.02250
H         -1.63970        3.64260        4.05190
H         -0.80360        3.03510        2.61460
H         -1.84940        1.23310        4.13320
H         -3.43350        1.85160        3.65950
H         -2.36700        1.13940        2.44880
H         -3.39560        0.90440       -1.46230
H          1.03950        1.28830       -7.43280
H          1.79450        0.21030       -9.49890
H          0.37640       -3.51700      -12.26240
H         -0.42640       -3.78910      -10.70440
H         -1.31500       -1.43620      -10.77130
H         -1.83130       -2.33560      -12.20160
H         -0.49870       -1.17580      -12.31670
H         -0.99110       -2.32640       -6.33450
H         -1.20650        1.92570       -7.79600
H         -3.08850        6.01090       -5.39570
H         -4.27660        8.82910       -3.47750
H         -2.93100        7.70990       -3.81440
H         -4.61610        7.18600       -4.07790
H         -2.99410       10.56130       -9.37240
H         -4.33810       11.47080       -8.63770
H         -4.67980       10.01910       -9.61170
H         -3.12540        8.26840       -9.82400
H         -2.82710        6.82670      -11.45260
H         -1.90670        5.65250      -13.22230
H          0.28000        5.58640       -9.97440
H          2.04000        6.16080       -6.86520
H          0.50810        5.66960       -7.63140
H          1.62890        6.76140       -8.49030
H          5.32060        1.75670       -8.70530
H          4.97640        1.98200      -10.43880
H          4.05610        0.78210       -9.48750
H          2.86350        1.59030      -11.37840
H          0.71910        1.11570      -14.75470
H          1.95840       -0.78190      -13.96060
H          2.03840       -0.10060      -12.27140
