
  xtb     03042218353D
 energy: -191.564202866252 gnorm: 0.000342127557 xtb: 6.4.1 (unknown)
 96103  0     0  0            999 V2000
    2.9147    5.9304    1.2526 C   0  0  0  0  0  0  0  0  0  0  0  0
    2.4376    4.2981    1.0193 S   0  0  0  0  0  0  0  0  0  0  0  0
    3.6690    4.0303   -0.1840 C   0  0  0  0  0  0  0  0  0  0  0  0
    4.3951    5.1889   -0.3607 C   0  0  0  0  0  0  0  0  0  0  0  0
    3.9651    6.2587    0.4518 C   0  0  0  0  0  0  0  0  0  0  0  0
    4.5322    7.4700    0.4375 F   0  0  0  0  0  0  0  0  0  0  0  0
    5.4177    5.2773   -1.2264 F   0  0  0  0  0  0  0  0  0  0  0  0
    3.8655    2.7951   -0.8594 C   0  0  0  0  0  0  0  0  0  0  0  0
    3.1022    1.6980   -0.6375 C   0  0  0  0  0  0  0  0  0  0  0  0
    3.1815    0.4201   -1.2384 C   0  0  0  0  0  0  0  0  0  0  0  0
    1.8447   -0.6491   -0.9490 S   0  0  0  0  0  0  0  0  0  0  0  0
    4.1279   -0.2055   -2.0684 C   0  0  0  0  0  0  0  0  0  0  0  0
    5.3763    0.2968   -2.4901 C   0  0  0  0  0  0  0  0  0  0  0  0
    6.1693   -0.4320   -3.3349 C   0  0  0  0  0  0  0  0  0  0  0  0
    7.3808   -0.0495   -3.7977 O   0  0  0  0  0  0  0  0  0  0  0  0
    7.8936    1.1978   -3.3952 C   0  0  0  0  0  0  0  0  0  0  0  0
    5.7271   -1.7127   -3.8170 C   0  0  0  0  0  0  0  0  0  0  0  0
    6.5737   -2.3048   -4.6894 O   0  0  0  0  0  0  0  0  0  0  0  0
    6.2310   -3.5672   -5.2084 C   0  0  0  0  0  0  0  0  0  0  0  0
    4.5408   -2.2365   -3.3796 C   0  0  0  0  0  0  0  0  0  0  0  0
    3.7347   -1.5171   -2.4745 C   0  0  0  0  0  0  0  0  0  0  0  0
    2.5080   -1.9215   -1.9224 C   0  0  0  0  0  0  0  0  0  0  0  0
    1.7634   -3.1179   -1.9798 C   0  0  0  0  0  0  0  0  0  0  0  0
    2.1445   -4.3583   -2.3829 C   0  0  0  0  0  0  0  0  0  0  0  0
    1.2687   -5.4663   -2.2780 C   0  0  0  0  0  0  0  0  0  0  0  0
   -0.4011   -5.2770   -1.8255 S   0  0  0  0  0  0  0  0  0  0  0  0
   -0.6504   -6.9908   -1.6565 C   0  0  0  0  0  0  0  0  0  0  0  0
    0.5011   -7.6561   -2.0452 C   0  0  0  0  0  0  0  0  0  0  0  0
    1.5660   -6.8145   -2.3833 C   0  0  0  0  0  0  0  0  0  0  0  0
    2.7871   -7.2593   -2.7255 F   0  0  0  0  0  0  0  0  0  0  0  0
    0.5945   -8.9949   -2.0335 F   0  0  0  0  0  0  0  0  0  0  0  0
   -1.8700   -7.5945   -1.2394 C   0  0  0  0  0  0  0  0  0  0  0  0
   -2.9183   -7.0165   -0.6011 C   0  0  0  0  0  0  0  0  0  0  0  0
   -2.9920   -5.7095   -0.0351 C   0  0  0  0  0  0  0  0  0  0  0  0
   -4.4848   -4.8297   -0.1506 S   0  0  0  0  0  0  0  0  0  0  0  0
   -2.0326   -4.9511    0.6437 C   0  0  0  0  0  0  0  0  0  0  0  0
   -0.7447   -5.3659    1.0493 C   0  0  0  0  0  0  0  0  0  0  0  0
    0.1165   -4.4664    1.6143 C   0  0  0  0  0  0  0  0  0  0  0  0
    1.3848   -4.7334    2.0042 O   0  0  0  0  0  0  0  0  0  0  0  0
    1.8890   -6.0299    1.7964 C   0  0  0  0  0  0  0  0  0  0  0  0
   -0.2955   -3.1027    1.8261 C   0  0  0  0  0  0  0  0  0  0  0  0
    0.6682   -2.3057    2.3402 O   0  0  0  0  0  0  0  0  0  0  0  0
    0.3745   -0.9458    2.5510 C   0  0  0  0  0  0  0  0  0  0  0  0
   -1.5748   -2.7150    1.5280 C   0  0  0  0  0  0  0  0  0  0  0  0
   -2.4721   -3.6323    0.9457 C   0  0  0  0  0  0  0  0  0  0  0  0
   -3.8073   -3.4030    0.5744 C   0  0  0  0  0  0  0  0  0  0  0  0
   -4.5428   -2.2146    0.7256 C   0  0  0  0  0  0  0  0  0  0  0  0
   -5.8410   -2.0337    0.3643 C   0  0  0  0  0  0  0  0  0  0  0  0
   -6.5358   -0.8167    0.5376 C   0  0  0  0  0  0  0  0  0  0  0  0
   -5.8141    0.6078    1.2365 S   0  0  0  0  0  0  0  0  0  0  0  0
   -7.2767    1.5428    1.0703 C   0  0  0  0  0  0  0  0  0  0  0  0
   -8.2609    0.7578    0.4945 C   0  0  0  0  0  0  0  0  0  0  0  0
   -7.8524   -0.5459    0.2000 C   0  0  0  0  0  0  0  0  0  0  0  0
   -8.6518   -1.4652   -0.3593 F   0  0  0  0  0  0  0  0  0  0  0  0
   -9.4928    1.2185    0.2473 F   0  0  0  0  0  0  0  0  0  0  0  0
   -7.3906    2.8939    1.4804 C   0  0  0  0  0  0  0  0  0  0  0  0
   -6.3724    3.5871    2.0430 C   0  0  0  0  0  0  0  0  0  0  0  0
   -6.4270    4.9378    2.4791 C   0  0  0  0  0  0  0  0  0  0  0  0
   -5.0192    5.6660    3.1994 S   0  0  0  0  0  0  0  0  0  0  0  0
   -5.8149    7.1881    3.4504 C   0  0  0  0  0  0  0  0  0  0  0  0
   -7.1099    7.1092    2.9872 C   0  0  0  0  0  0  0  0  0  0  0  0
   -7.4553    5.8608    2.4465 C   0  0  0  0  0  0  0  0  0  0  0  0
   -8.6717    5.6015    1.9486 F   0  0  0  0  0  0  0  0  0  0  0  0
   -7.9633    8.1400    3.0504 F   0  0  0  0  0  0  0  0  0  0  0  0
   -5.1837    8.3262    4.0541 C   0  0  0  0  0  0  0  0  0  0  0  0
   -3.9262    8.3480    4.4887 C   0  0  0  0  0  0  0  0  0  0  0  0
    2.4051    6.5559    1.9556 H   0  0  0  0  0  0  0  0  0  0  0  0
    4.6575    2.8063   -1.5909 H   0  0  0  0  0  0  0  0  0  0  0  0
    2.2896    1.8088    0.0730 H   0  0  0  0  0  0  0  0  0  0  0  0
    5.7105    1.2500   -2.1245 H   0  0  0  0  0  0  0  0  0  0  0  0
    7.2451    2.0206   -3.7128 H   0  0  0  0  0  0  0  0  0  0  0  0
    8.8595    1.2903   -3.8885 H   0  0  0  0  0  0  0  0  0  0  0  0
    8.0350    1.2433   -2.3106 H   0  0  0  0  0  0  0  0  0  0  0  0
    5.2945   -3.5285   -5.7741 H   0  0  0  0  0  0  0  0  0  0  0  0
    7.0451   -3.8398   -5.8773 H   0  0  0  0  0  0  0  0  0  0  0  0
    6.1468   -4.3178   -4.4159 H   0  0  0  0  0  0  0  0  0  0  0  0
    4.1977   -3.1888   -3.7410 H   0  0  0  0  0  0  0  0  0  0  0  0
    0.7587   -3.0338   -1.5773 H   0  0  0  0  0  0  0  0  0  0  0  0
    3.1483   -4.5797   -2.7093 H   0  0  0  0  0  0  0  0  0  0  0  0
   -1.9566   -8.6398   -1.5088 H   0  0  0  0  0  0  0  0  0  0  0  0
   -3.8327   -7.5937   -0.5404 H   0  0  0  0  0  0  0  0  0  0  0  0
   -0.4645   -6.3951    0.9012 H   0  0  0  0  0  0  0  0  0  0  0  0
    2.9149   -6.0082    2.1591 H   0  0  0  0  0  0  0  0  0  0  0  0
    1.8860   -6.2957    0.7340 H   0  0  0  0  0  0  0  0  0  0  0  0
    1.3214   -6.7784    2.3583 H   0  0  0  0  0  0  0  0  0  0  0  0
    0.0859   -0.4509    1.6182 H   0  0  0  0  0  0  0  0  0  0  0  0
   -0.4185   -0.8165    3.2946 H   0  0  0  0  0  0  0  0  0  0  0  0
    1.2951   -0.5021    2.9255 H   0  0  0  0  0  0  0  0  0  0  0  0
   -1.9068   -1.7091    1.7218 H   0  0  0  0  0  0  0  0  0  0  0  0
   -4.0193   -1.3778    1.1702 H   0  0  0  0  0  0  0  0  0  0  0  0
   -6.4021   -2.8441   -0.0818 H   0  0  0  0  0  0  0  0  0  0  0  0
   -8.3568    3.3492    1.3175 H   0  0  0  0  0  0  0  0  0  0  0  0
   -5.4211    3.0910    2.1880 H   0  0  0  0  0  0  0  0  0  0  0  0
   -5.8186    9.1985    4.1384 H   0  0  0  0  0  0  0  0  0  0  0  0
   -3.2917    7.4807    4.4069 H   0  0  0  0  0  0  0  0  0  0  0  0
   -3.5001    9.2277    4.9356 H   0  0  0  0  0  0  0  0  0  0  0  0
  1  2  1  0  0  0  0
  2  3  1  0  0  0  0
  3  4  2  0  0  0  0
  4  5  1  0  0  0  0
  5  6  1  0  0  0  0
  4  7  1  0  0  0  0
  3  8  1  0  0  0  0
  8  9  2  0  0  0  0
  9 10  1  0  0  0  0
 10 11  1  0  0  0  0
 10 12  2  0  0  0  0
 12 13  1  0  0  0  0
 13 14  2  0  0  0  0
 14 15  1  0  0  0  0
 15 16  1  0  0  0  0
 14 17  1  0  0  0  0
 17 18  1  0  0  0  0
 18 19  1  0  0  0  0
 17 20  2  0  0  0  0
 20 21  1  0  0  0  0
 21 22  2  0  0  0  0
 22 23  1  0  0  0  0
 23 24  2  0  0  0  0
 24 25  1  0  0  0  0
 25 26  1  0  0  0  0
 26 27  1  0  0  0  0
 27 28  2  0  0  0  0
 28 29  1  0  0  0  0
 29 30  1  0  0  0  0
 28 31  1  0  0  0  0
 27 32  1  0  0  0  0
 32 33  2  0  0  0  0
 33 34  1  0  0  0  0
 34 35  1  0  0  0  0
 34 36  2  0  0  0  0
 36 37  1  0  0  0  0
 37 38  2  0  0  0  0
 38 39  1  0  0  0  0
 39 40  1  0  0  0  0
 38 41  1  0  0  0  0
 41 42  1  0  0  0  0
 42 43  1  0  0  0  0
 41 44  2  0  0  0  0
 44 45  1  0  0  0  0
 45 46  2  0  0  0  0
 46 47  1  0  0  0  0
 47 48  2  0  0  0  0
 48 49  1  0  0  0  0
 49 50  1  0  0  0  0
 50 51  1  0  0  0  0
 51 52  2  0  0  0  0
 52 53  1  0  0  0  0
 53 54  1  0  0  0  0
 52 55  1  0  0  0  0
 51 56  1  0  0  0  0
 56 57  2  0  0  0  0
 57 58  1  0  0  0  0
 58 59  1  0  0  0  0
 59 60  1  0  0  0  0
 60 61  2  0  0  0  0
 61 62  1  0  0  0  0
 62 63  1  0  0  0  0
 61 64  1  0  0  0  0
 60 65  1  0  0  0  0
 65 66  2  0  0  0  0
  5  1  2  0  0  0  0
 22 11  1  0  0  0  0
 29 25  2  0  0  0  0
 46 35  1  0  0  0  0
 53 49  2  0  0  0  0
 62 58  2  0  0  0  0
 21 12  1  0  0  0  0
 45 36  1  0  0  0  0
  1 67  1  0  0  0  0
  8 68  1  0  0  0  0
  9 69  1  0  0  0  0
 13 70  1  0  0  0  0
 16 71  1  0  0  0  0
 16 72  1  0  0  0  0
 16 73  1  0  0  0  0
 19 74  1  0  0  0  0
 19 75  1  0  0  0  0
 19 76  1  0  0  0  0
 20 77  1  0  0  0  0
 23 78  1  0  0  0  0
 24 79  1  0  0  0  0
 32 80  1  0  0  0  0
 33 81  1  0  0  0  0
 37 82  1  0  0  0  0
 40 83  1  0  0  0  0
 40 84  1  0  0  0  0
 40 85  1  0  0  0  0
 43 86  1  0  0  0  0
 43 87  1  0  0  0  0
 43 88  1  0  0  0  0
 44 89  1  0  0  0  0
 47 90  1  0  0  0  0
 48 91  1  0  0  0  0
 56 92  1  0  0  0  0
 57 93  1  0  0  0  0
 65 94  1  0  0  0  0
 66 95  1  0  0  0  0
 66 96  1  0  0  0  0
M  END
