164

C          3.11160       -3.97630        8.17160
C          2.34010       -4.29270        7.07840
O          2.79870       -4.99120        6.00660
C          4.14440       -5.42700        5.99280
C          4.36930       -6.17240        4.68640
C          0.96860       -3.90750        7.03460
O          0.14620       -4.19440        5.98560
C          0.58200       -3.97740        4.65120
C          1.12490       -2.57190        4.42810
C          0.36600       -3.28860        8.12990
C          1.18870       -2.87800        9.22010
C          2.56340       -3.24770        9.23830
N          3.35530       -2.90240       10.27280
C          2.83060       -2.15830       11.21290
C          1.50500       -1.70350       11.14020
N          0.69970       -2.06990       10.17390
C         -1.03740       -2.97130        8.10450
S         -1.78360       -2.53700        6.60580
C         -1.94890       -2.86220        9.15610
C         -1.78140       -3.27050       10.49790
C         -2.78240       -3.07480       11.40490
O         -2.72690       -3.41410       12.72120
C         -1.53400       -3.97270       13.20830
C         -4.02530       -2.47300       11.00200
O         -4.92690       -2.32170       12.00830
C         -6.17920       -1.76530       11.70020
C         -4.22690       -2.12320        9.69650
C         -3.20740       -2.33120        8.74290
C         -3.25440       -2.03880        7.37370
C         -4.35760       -1.50240        6.65930
C         -4.37390       -0.91040        5.43690
C         -3.28220       -0.46690        4.63840
S         -3.47120       -0.49470        2.90970
C         -2.04090        0.08020        4.98010
C         -1.55440        0.37260        6.27410
C         -0.28430        0.85150        6.43830
O          0.30200        1.13360        7.62820
C         -0.41840        0.87200        8.80950
C          0.54900        1.10140        5.29200
O          1.79580        1.55250        5.59320
C          2.68070        1.81010        4.53360
C          0.06460        0.90000        4.02970
C         -1.23940        0.39210        3.84480
C         -1.87850        0.13410        2.62500
C         -1.36320        0.33200        1.32370
C         -2.04080        0.05130        0.18610
C         -1.58960        0.21920       -1.16580
C         -0.27610        0.45550       -1.56010
O          0.69600        0.54880       -0.60310
C          1.83650       -0.29640       -0.71380
C          2.04610       -1.00770        0.61860
C          0.08530        0.63870       -2.93410
O          1.40730        0.90840       -3.08720
C          2.01320        1.04740       -4.35610
C          3.51660        1.12020       -4.12740
C         -0.87000        0.54650       -3.92660
C         -2.20720        0.24150       -3.55750
C         -2.57260        0.08460       -2.19650
N         -3.84100       -0.20510       -1.86630
C         -4.71510       -0.33270       -2.83380
C         -4.36030       -0.14330       -4.17680
N         -3.13420        0.14530       -4.53140
C         -0.65060        0.64940       -5.38850
C         -0.54030        1.83820       -6.07820
O         -0.50710        3.06420       -5.44890
C         -1.61890        3.43220       -4.64410
C         -2.94060        3.32810       -5.39200
C         -0.39960        1.83940       -7.50010
O         -0.33000        2.96670       -8.24290
C          0.38040        4.10650       -7.78120
C          0.97180        4.79570       -9.00280
C         -0.43440        0.64900       -8.20340
C         -0.58850       -0.57500       -7.52120
C         -0.68800       -0.57420       -6.10350
N         -0.77870       -1.72980       -5.41850
C         -0.81330       -2.83770       -6.11300
C         -0.71140       -2.83950       -7.51540
N         -0.57930       -1.73710       -8.20450
C         -0.30770        0.63880       -9.67080
C          0.86100        1.06480      -10.26850
O          1.83110        1.54030       -9.44080
C          3.19330        1.22260       -9.68220
C          3.89100        1.19130       -8.32900
C          0.99590        1.03620      -11.69360
O          2.16620        1.53400      -12.18160
C          2.35570        1.64300      -13.57990
C          1.60050        2.82190      -14.18510
C         -0.01920        0.52390      -12.46100
C         -1.20660        0.06110      -11.86680
C         -1.37240        0.14300      -10.45730
N         -2.52340       -0.24250       -9.87750
C         -3.45140       -0.72950      -10.65920
C         -3.27590       -0.84370      -12.05000
N         -2.18220       -0.44460      -12.64770
H          4.14820       -4.25690        8.24810
H          4.82020       -4.56380        6.06140
H          4.33210       -6.09060        6.84710
H          5.38980       -6.54170        4.64450
H          3.68340       -7.01230        4.61600
H          4.19530       -5.50990        3.84260
H          1.32470       -4.72730        4.36300
H         -0.32700       -4.12700        4.06240
H          0.39160       -1.83340        4.74330
H          2.03960       -2.41770        4.99670
H          1.33980       -2.42790        3.37280
H          3.47550       -1.89680       12.04130
H          1.09230       -1.03060       11.88040
H         -0.85920       -3.74490       10.78170
H         -1.32240       -4.94120       12.74220
H         -1.68890       -4.11380       14.27690
H         -0.68190       -3.30340       13.04710
H         -6.72930       -1.73870       12.63940
H         -6.72640       -2.38020       10.97760
H         -6.08230       -0.74710       11.30800
H         -5.16110       -1.69490        9.37290
H         -5.31610       -1.62910        7.14830
H         -5.34610       -0.76120        4.98130
H         -2.20330        0.22120        7.11910
H          0.23760        1.17710        9.62290
H         -0.64890       -0.19220        8.91910
H         -1.34390        1.45520        8.85340
H          2.30300        2.59860        3.87400
H          2.87360        0.90670        3.94430
H          3.60770        2.14300        4.99770
H          0.66160        1.11890        3.16070
H         -0.36930        0.74490        1.26500
H         -3.05610       -0.31640        0.26290
H          2.70950        0.31910       -0.95870
H          1.69180       -1.03370       -1.50830
H          1.17020       -1.60370        0.86410
H          2.20370       -0.27990        1.41010
H          2.91640       -1.65590        0.55690
H          1.66360        1.96540       -4.84190
H          1.76500        0.19140       -4.99420
H          3.87340        0.20010       -3.67150
H          3.74900        1.94940       -3.46450
H          4.02470        1.26800       -5.07590
H         -5.72670       -0.58010       -2.54120
H         -5.08740       -0.21820       -4.97460
H         -1.40500        4.46950       -4.37070
H         -1.65310        2.82930       -3.72890
H         -3.15600        2.28640       -5.62340
H         -3.74040        3.72490       -4.77260
H         -2.89640        3.89220       -6.32120
H         -0.30000        4.78610       -7.25390
H          1.17520        3.80530       -7.09260
H          1.63790        4.11070       -9.51900
H          1.52390        5.68110       -8.69900
H          0.17680        5.08520       -9.68450
H         -0.89630       -3.75820       -5.55010
H         -0.71080       -3.76430       -8.07790
H          3.65090        1.98030      -10.32950
H          3.27550        0.24780      -10.17490
H          3.43320        0.43650       -7.69420
H          4.94500        0.96190       -8.45880
H          3.79220        2.15820       -7.84250
H          2.08660        0.70530      -14.07950
H          3.43330        1.79540      -13.69090
H          1.90370        3.74430      -13.69610
H          0.52780        2.70260      -14.05840
H          1.82590        2.89310      -15.24550
H          0.04080        0.46120      -13.53500
H         -4.37320       -1.03670      -10.18270
H         -4.04900       -1.25820      -12.68390
