227

C          7.15110       -0.43840        5.71900
S          6.12900       -1.27550        4.63190
C          6.58440       -0.28890        6.96400
C          7.13930        0.35170        8.09870
C          6.42280        0.41260        9.25730
O          6.82600        1.00700       10.40700
C          8.04400        1.70810       10.39500
C          5.10970       -0.18050        9.33430
O          4.51090       -0.04100       10.54610
C          3.23720       -0.60280       10.73060
C          4.56160       -0.80400        8.24890
C          5.28150       -0.87210        7.03790
C          4.88060       -1.45810        5.83190
C          3.67390       -2.14080        5.57930
C          3.29300       -2.66310        4.38200
C          2.11720       -3.41250        4.15480
S          1.45270       -3.47150        2.55190
C          1.31800       -4.16350        5.03510
C          1.60300       -4.48680        6.37820
C          0.74530       -5.27110        7.09970
O          0.91890       -5.63770        8.39730
C          2.05470       -5.16510        9.07500
C         -0.43290       -5.80550        6.48160
O         -1.19130       -6.58820        7.29340
C         -2.35580       -7.16690        6.76260
C         -0.69890       -5.54050        5.16520
C          0.15370       -4.70440        4.41680
C          0.04660       -4.37280        3.05300
C         -0.96170       -4.58480        2.09720
C         -2.26800       -4.91700        2.32410
C         -3.23600       -5.03850        1.31470
S         -2.83440       -4.89730       -0.37040
C         -4.62490       -5.20580        1.47340
C         -5.33260       -5.37350        2.67980
C         -6.69630       -5.48870        2.66460
O         -7.48630       -5.65260        3.75850
C         -6.87350       -5.70880        5.02100
C         -7.41400       -5.43760        1.42070
O         -8.76050       -5.55600        1.54780
C         -9.54830       -5.48750        0.38570
C         -6.73840       -5.27770        0.24050
C         -5.33540       -5.15700        0.24450
C         -4.50110       -4.96790       -0.86940
C         -4.88140       -4.64360       -2.18090
C         -4.01910       -4.41990       -3.21070
C         -4.34620       -3.64540       -4.34720
C         -3.46620       -3.11250       -5.25540
C         -3.97750       -1.99750       -5.95890
C         -3.23700       -1.06720       -6.71060
C         -1.80630       -1.29120       -6.98930
C         -1.37130       -2.31580       -7.82370
C         -0.02320       -2.50790       -8.05270
C          0.93630       -1.69330       -7.45740
S          2.64040       -1.97460       -7.86320
C          3.47410       -1.96400       -6.23220
C          2.96030       -3.06490       -5.32810
C          0.48590       -0.66990       -6.63040
F          1.36040        0.17310       -6.03370
C         -0.85690       -0.47330       -6.38410
C         -3.83900        0.15360       -6.94640
C         -5.14800        0.47890       -6.50780
C         -5.93440       -0.49560       -5.87130
C         -7.26910       -0.16060       -5.35380
C         -8.26560        0.31420       -6.20340
C         -9.52540        0.59500       -5.71830
C         -9.83410        0.44010       -4.36790
S        -11.47750        0.85460       -3.86010
C        -11.88060       -0.39070       -2.57900
C        -11.74130       -1.80910       -3.09430
C         -8.81040        0.02280       -3.52350
C         -7.55390       -0.29010       -3.99850
F         -9.01000       -0.08800       -2.18910
C         -5.31470       -1.70120       -5.58870
S         -5.94220       -2.91250       -4.49810
C         -5.32590        1.88390       -6.37420
C         -4.19710        2.59940       -6.65250
S         -2.97680        1.58910       -7.45970
C         -3.60570        3.58120       -5.77550
C         -3.71810        3.34990       -4.43100
C         -2.55770        3.68940       -3.69860
C         -2.19510        3.13520       -2.46040
C         -3.01620        2.06560       -1.86440
C         -3.29430        0.94440       -2.65140
C         -4.01510       -0.11330       -2.14790
C         -4.49220       -0.10340       -0.83720
S         -5.39810       -1.52460       -0.30990
C         -6.61880       -0.84110        0.88170
C         -7.84830       -1.72680        0.88740
C         -4.17180        1.00030       -0.05140
F         -4.55300        1.05730        1.24430
C         -3.45110        2.07240       -0.54720
C         -0.90530        3.39140       -2.02330
C          0.03730        4.10150       -2.80760
C         -0.30760        4.58800       -4.07980
C          0.70860        5.13170       -4.99130
C          1.84590        4.39150       -5.29940
C          2.80660        4.88450       -6.16020
C          2.66710        6.14040       -6.73860
S          3.81450        6.89510       -7.84260
C          5.25730        5.77470       -7.83010
C          6.06320        5.87160       -6.54770
C          1.50800        6.85960       -6.44000
C          0.53670        6.37550       -5.59220
F          1.33340        8.07430       -6.99730
C         -1.60770        4.36810       -4.50040
S         -2.17180        4.51680       -6.15460
C          1.33850        4.02850       -2.24520
C          1.40670        3.27500       -1.11520
S         -0.16400        2.68530       -0.60950
C          2.63370        2.78880       -0.54210
C          3.64000        2.29300       -1.31080
C          4.74620        1.81190       -0.56630
C          5.91070        1.20820       -1.06160
C          6.08550        0.99650       -2.50470
C          5.94070        2.04250       -3.41220
C          6.04060        1.82830       -4.77340
C          6.27770        0.55520       -5.27940
S          6.43390        0.14560       -6.98760
C          5.62740        1.53510       -7.85570
C          4.12590        1.54930       -7.64670
C          6.44470       -0.47850       -4.35620
F          6.68090       -1.72690       -4.80970
C          6.35820       -0.27770       -2.99730
C          6.84220        0.79980       -0.11930
C          6.67130        1.00670        1.27100
C          5.49850        1.59700        1.76380
C          5.31490        1.85750        3.19760
C          6.26210        2.59820        3.90360
C          6.07150        2.88890        5.23430
C          4.94690        2.44040        5.93130
S          4.90280        2.90690        7.63200
C          3.19370        2.66200        8.22550
C          2.21990        3.64110        7.60090
C          4.03240        1.66970        5.22180
C          4.19430        1.39800        3.87640
F          2.93670        1.14490        5.81880
C          4.54340        1.96210        0.82620
S          2.98890        2.68720        1.16680
C          7.78820        0.51670        2.01140
C          8.74740       -0.01510        1.22870
S          8.37200        0.03450       -0.46060
H          8.11820       -0.10790        5.39650
H          8.11930        0.78990        8.01030
H          8.89130        1.04050       10.20570
H          8.14360        2.14380       11.38760
H          8.03440        2.50560        9.64490
H          3.25360       -1.68980       10.59390
H          2.96030       -0.37450       11.75840
H          2.49760       -0.16400       10.05190
H          3.57570       -1.23700        8.29600
H          2.99950       -2.20880        6.41910
H          3.90740       -2.45920        3.51280
H          2.52940       -4.14980        6.80850
H          1.97910       -5.55920       10.08710
H          2.98100       -5.52480        8.61460
H          2.07200       -4.07020        9.11290
H         -3.06100       -6.40310        6.41580
H         -2.80610       -7.72620        7.58090
H         -2.12820       -7.85140        5.93840
H         -1.53500       -6.00560        4.67480
H         -0.67500       -4.38580        1.07080
H         -2.62970       -5.01670        3.33520
H         -4.78620       -5.40870        3.60760
H         -6.33390       -4.78300        5.24830
H         -6.18580       -6.55850        5.09770
H         -7.68430       -5.83730        5.73610
H        -10.57790       -5.59170        0.72330
H         -9.42850       -4.52590       -0.12400
H         -9.31150       -6.29930       -0.31010
H         -7.26150       -5.23990       -0.70010
H         -5.93430       -4.44780       -2.33790
H         -2.97380       -4.67690       -3.09770
H         -2.44240       -3.43300       -5.33150
H         -2.09580       -2.96120       -8.29680
H          0.31240       -3.29960       -8.70430
H          4.52290       -2.11860       -6.48410
H          3.35660       -0.98150       -5.78010
H          1.91180       -2.90660       -5.07840
H          3.05980       -4.03360       -5.81280
H          3.53770       -3.07650       -4.40600
H         -1.14790        0.32450       -5.71840
H         -8.05310        0.43840       -7.25450
H        -10.30270        0.94030       -6.38210
H        -12.91760       -0.16290       -2.33200
H        -11.26120       -0.21170       -1.70280
H        -12.34950       -1.95300       -3.98480
H        -12.06980       -2.51000       -2.32910
H        -10.70590       -2.03330       -3.34420
H         -6.79970       -0.60410       -3.29420
H         -6.19510        2.31530       -5.90990
H         -4.53210        2.78930       -4.00860
H         -2.93060        0.89930       -3.66710
H         -4.21630       -0.97810       -2.76150
H         -6.15130       -0.80130        1.86460
H         -6.86640        0.16450        0.54660
H         -8.30110       -1.74590       -0.10130
H         -7.58500       -2.74220        1.17620
H         -8.57590       -1.33850        1.59690
H         -3.23610        2.90240        0.10800
H          1.96640        3.40280       -4.88280
H          3.66350        4.27170       -6.38330
H          5.84860        6.11390       -8.68060
H          4.90990        4.76250       -8.03460
H          6.40910        6.89190       -6.40120
H          6.93280        5.21820       -6.60280
H          5.46580        5.58900       -5.68340
H         -0.33750        6.97490       -5.39280
H          2.19840        4.50410       -2.68040
H          3.57220        2.22970       -2.38120
H          5.76830        3.04360       -3.04570
H          5.93730        2.66780       -5.44200
H          6.10890        2.46320       -7.54770
H          5.86990        1.35190       -8.90240
H          3.67420        2.36440       -8.20980
H          3.87360        1.66950       -6.59480
H          3.69300        0.61580       -7.99730
H          6.47630       -1.11890       -2.33280
H          7.13530        2.97320        3.39160
H          6.79500        3.48110        5.77310
H          3.28440        2.82670        9.29990
H          2.91020        1.62750        8.04820
H          1.23430        3.51020        8.04300
H          2.54780        4.66420        7.77170
H          2.13800        3.47760        6.52910
H          3.44760        0.79700        3.38080
H          7.84390        0.55960        3.08260
H          9.67840       -0.45330        1.53090
