
  xtb     03072218463D
 energy: -250.355891949070 gnorm: 0.000458484167 xtb: 6.4.1 (unknown)
157173  0     0  0            999 V2000
   -2.9321    4.3843    0.6164 N   0  0  0  0  0  0  0  0  0  0  0  0
   -1.6127    3.7459    0.6925 C   0  0  0  0  0  0  0  0  0  0  0  0
   -1.8789    2.4167   -0.0396 C   0  0  0  0  0  0  0  0  0  0  0  0
   -2.0604    2.5798   -1.4716 N   0  0  0  0  0  0  0  0  0  0  0  0
   -1.2505    3.6150   -2.0946 C   0  0  0  0  0  0  0  0  0  0  0  0
   -0.0968    4.0824   -1.2033 C   0  0  0  0  0  0  0  0  0  0  0  0
    0.5685    5.2288   -1.9505 C   0  0  0  0  0  0  0  0  0  0  0  0
   -0.7670    6.1462   -2.8000 S   0  0  0  0  0  0  0  0  0  0  0  0
   -2.0272    4.8851   -2.4365 C   0  0  0  0  0  0  0  0  0  0  0  0
   -0.6394    4.5734    0.0493 N   0  0  0  0  0  0  0  0  0  0  0  0
   -3.0474    1.8846    0.6086 N   0  0  0  0  0  0  0  0  0  0  0  0
   -4.0759    3.2038    1.1472 S   0  0  0  0  0  0  0  0  0  0  0  0
   -3.6505    0.7584    0.0399 C   0  0  0  0  0  0  0  0  0  0  0  0
   -4.9239    0.4137    0.2257 C   0  0  0  0  0  0  0  0  0  0  0  0
   -5.4924   -0.7285   -0.3136 N   0  0  0  0  0  0  0  0  0  0  0  0
   -6.5249   -1.4022    0.4217 C   0  0  0  0  0  0  0  0  0  0  0  0
   -6.8588   -2.6791   -0.3885 C   0  0  0  0  0  0  0  0  0  0  0  0
   -6.7194   -3.8327    0.4746 N   0  0  0  0  0  0  0  0  0  0  0  0
   -7.5227   -3.7551    1.6746 C   0  0  0  0  0  0  0  0  0  0  0  0
   -7.0712   -2.5174    2.4952 C   0  0  0  0  0  0  0  0  0  0  0  0
   -6.4655   -2.9964    3.8123 C   0  0  0  0  0  0  0  0  0  0  0  0
   -7.3708   -4.5001    4.2504 S   0  0  0  0  0  0  0  0  0  0  0  0
   -7.3038   -5.0146    2.5138 C   0  0  0  0  0  0  0  0  0  0  0  0
   -6.0706   -1.7986    1.7407 N   0  0  0  0  0  0  0  0  0  0  0  0
   -5.9114   -2.7272   -1.4697 N   0  0  0  0  0  0  0  0  0  0  0  0
   -4.4544   -1.9202   -1.0572 S   0  0  0  0  0  0  0  0  0  0  0  0
   -5.8760   -3.7611   -2.3582 C   0  0  0  0  0  0  0  0  0  0  0  0
   -4.7306   -4.1834   -2.9069 C   0  0  0  0  0  0  0  0  0  0  0  0
   -3.5368   -3.6315   -2.4109 N   0  0  0  0  0  0  0  0  0  0  0  0
   -2.6264   -3.0025   -3.3464 C   0  0  0  0  0  0  0  0  0  0  0  0
   -1.3026   -2.7103   -2.5506 C   0  0  0  0  0  0  0  0  0  0  0  0
   -0.2129   -3.2994   -3.2924 N   0  0  0  0  0  0  0  0  0  0  0  0
   -0.1247   -2.7736   -4.6415 C   0  0  0  0  0  0  0  0  0  0  0  0
   -1.4309   -3.1818   -5.3939 C   0  0  0  0  0  0  0  0  0  0  0  0
   -1.0662   -4.1032   -6.5541 C   0  0  0  0  0  0  0  0  0  0  0  0
    0.5830   -3.5849   -7.0971 S   0  0  0  0  0  0  0  0  0  0  0  0
    1.0714   -3.3871   -5.3613 C   0  0  0  0  0  0  0  0  0  0  0  0
   -2.3721   -3.8322   -4.5053 N   0  0  0  0  0  0  0  0  0  0  0  0
   -1.4180   -3.3529   -1.2604 N   0  0  0  0  0  0  0  0  0  0  0  0
   -2.4685   -4.6568   -1.4217 S   0  0  0  0  0  0  0  0  0  0  0  0
   -1.4757   -2.6137   -0.0790 C   0  0  0  0  0  0  0  0  0  0  0  0
   -0.7870   -1.4992    0.1565 C   0  0  0  0  0  0  0  0  0  0  0  0
   -0.8826   -0.6848    1.2961 N   0  0  0  0  0  0  0  0  0  0  0  0
   -1.8103   -0.9791    2.3553 C   0  0  0  0  0  0  0  0  0  0  0  0
   -1.0769   -1.8284    3.4340 C   0  0  0  0  0  0  0  0  0  0  0  0
   -1.4782   -1.3666    4.7444 N   0  0  0  0  0  0  0  0  0  0  0  0
   -2.8926   -1.0856    4.8774 C   0  0  0  0  0  0  0  0  0  0  0  0
   -3.2681    0.0634    3.9067 C   0  0  0  0  0  0  0  0  0  0  0  0
   -3.5236    1.3237    4.7219 C   0  0  0  0  0  0  0  0  0  0  0  0
   -4.3706    0.7352    6.2083 S   0  0  0  0  0  0  0  0  0  0  0  0
   -3.1872   -0.6374    6.3114 C   0  0  0  0  0  0  0  0  0  0  0  0
   -2.1775    0.2639    2.9891 N   0  0  0  0  0  0  0  0  0  0  0  0
    0.3416   -1.6486    3.1839 N   0  0  0  0  0  0  0  0  0  0  0  0
    0.5659   -0.2952    2.0956 S   0  0  0  0  0  0  0  0  0  0  0  0
    1.2718   -1.9664    4.1385 C   0  0  0  0  0  0  0  0  0  0  0  0
    2.6034   -1.7888    4.0349 C   0  0  0  0  0  0  0  0  0  0  0  0
    3.2723   -1.3307    2.8533 C   0  0  0  0  0  0  0  0  0  0  0  0
    4.5193   -0.1223    2.9252 S   0  0  0  0  0  0  0  0  0  0  0  0
    3.0895   -1.7528    1.5411 C   0  0  0  0  0  0  0  0  0  0  0  0
    2.2877   -2.8352    1.1093 C   0  0  0  0  0  0  0  0  0  0  0  0
    2.2465   -3.1662   -0.2134 C   0  0  0  0  0  0  0  0  0  0  0  0
    1.5418   -4.2067   -0.7459 O   0  0  0  0  0  0  0  0  0  0  0  0
    0.8715   -5.0710    0.1351 C   0  0  0  0  0  0  0  0  0  0  0  0
    3.0030   -2.4034   -1.1668 C   0  0  0  0  0  0  0  0  0  0  0  0
    2.9161   -2.7241   -2.5135 O   0  0  0  0  0  0  0  0  0  0  0  0
    3.6721   -3.8697   -2.8620 C   0  0  0  0  0  0  0  0  0  0  0  0
    3.8141   -1.3846   -0.7664 C   0  0  0  0  0  0  0  0  0  0  0  0
    3.9049   -1.0471    0.6016 C   0  0  0  0  0  0  0  0  0  0  0  0
    4.7508   -0.1172    1.2039 C   0  0  0  0  0  0  0  0  0  0  0  0
    5.7091    0.7228    0.5751 C   0  0  0  0  0  0  0  0  0  0  0  0
    6.5780    1.5079    1.2352 C   0  0  0  0  0  0  0  0  0  0  0  0
    7.4684    2.3625    0.6313 N   0  0  0  0  0  0  0  0  0  0  0  0
    8.5715    2.9351    1.4181 C   0  0  0  0  0  0  0  0  0  0  0  0
    9.6639    3.3437    0.3947 C   0  0  0  0  0  0  0  0  0  0  0  0
    9.4875    4.6578   -0.1788 N   0  0  0  0  0  0  0  0  0  0  0  0
    9.2147    5.6807    0.8069 C   0  0  0  0  0  0  0  0  0  0  0  0
    8.0032    5.3242    1.6867 C   0  0  0  0  0  0  0  0  0  0  0  0
    6.7584    5.4829    0.8044 C   0  0  0  0  0  0  0  0  0  0  0  0
    7.0889    6.8963   -0.3050 S   0  0  0  0  0  0  0  0  0  0  0  0
    8.8693    6.9886    0.1190 C   0  0  0  0  0  0  0  0  0  0  0  0
    8.1932    4.0159    2.2764 N   0  0  0  0  0  0  0  0  0  0  0  0
    9.5774    2.3065   -0.5985 N   0  0  0  0  0  0  0  0  0  0  0  0
    7.9065    2.1850   -1.0219 S   0  0  0  0  0  0  0  0  0  0  0  0
   10.5455    2.0799   -1.5572 C   0  0  0  0  0  0  0  0  0  0  0  0
   11.7216    2.6851   -1.6424 C   0  0  0  0  0  0  0  0  0  0  0  0
   -3.0027    5.2151    1.1945 H   0  0  0  0  0  0  0  0  0  0  0  0
   -1.3339    3.5222    1.7382 H   0  0  0  0  0  0  0  0  0  0  0  0
   -1.0459    1.7173    0.1301 H   0  0  0  0  0  0  0  0  0  0  0  0
   -3.0415    2.7446   -1.6737 H   0  0  0  0  0  0  0  0  0  0  0  0
   -0.8276    3.1934   -3.0186 H   0  0  0  0  0  0  0  0  0  0  0  0
    0.6251    3.2602   -1.0509 H   0  0  0  0  0  0  0  0  0  0  0  0
    1.0849    5.9126   -1.2800 H   0  0  0  0  0  0  0  0  0  0  0  0
    1.2641    4.8611   -2.7041 H   0  0  0  0  0  0  0  0  0  0  0  0
   -2.6181    5.2145   -1.5812 H   0  0  0  0  0  0  0  0  0  0  0  0
   -2.6618    4.7644   -3.3121 H   0  0  0  0  0  0  0  0  0  0  0  0
    0.0892    4.8889    0.6732 H   0  0  0  0  0  0  0  0  0  0  0  0
   -2.9695    0.1352   -0.5180 H   0  0  0  0  0  0  0  0  0  0  0  0
   -5.6044    1.0527    0.7758 H   0  0  0  0  0  0  0  0  0  0  0  0
   -7.4132   -0.7375    0.4721 H   0  0  0  0  0  0  0  0  0  0  0  0
   -7.8766   -2.5999   -0.8271 H   0  0  0  0  0  0  0  0  0  0  0  0
   -6.9099   -4.6859   -0.0406 H   0  0  0  0  0  0  0  0  0  0  0  0
   -8.5998   -3.6504    1.4425 H   0  0  0  0  0  0  0  0  0  0  0  0
   -7.9595   -1.8937    2.7099 H   0  0  0  0  0  0  0  0  0  0  0  0
   -6.5604   -2.2699    4.6158 H   0  0  0  0  0  0  0  0  0  0  0  0
   -5.4162   -3.2554    3.6608 H   0  0  0  0  0  0  0  0  0  0  0  0
   -6.3117   -5.4218    2.3139 H   0  0  0  0  0  0  0  0  0  0  0  0
   -8.0591   -5.7774    2.3429 H   0  0  0  0  0  0  0  0  0  0  0  0
   -5.7549   -0.9789    2.2517 H   0  0  0  0  0  0  0  0  0  0  0  0
   -6.8336   -4.1765   -2.6362 H   0  0  0  0  0  0  0  0  0  0  0  0
   -4.6908   -4.9249   -3.6896 H   0  0  0  0  0  0  0  0  0  0  0  0
   -3.0889   -2.0681   -3.6873 H   0  0  0  0  0  0  0  0  0  0  0  0
   -1.1926   -1.6217   -2.3937 H   0  0  0  0  0  0  0  0  0  0  0  0
    0.6666   -3.1963   -2.7941 H   0  0  0  0  0  0  0  0  0  0  0  0
   -0.0330   -1.6721   -4.6465 H   0  0  0  0  0  0  0  0  0  0  0  0
   -1.9215   -2.2829   -5.7843 H   0  0  0  0  0  0  0  0  0  0  0  0
   -1.0080   -5.1414   -6.2229 H   0  0  0  0  0  0  0  0  0  0  0  0
   -1.7596   -4.0268   -7.3866 H   0  0  0  0  0  0  0  0  0  0  0  0
    1.2871   -4.3744   -4.9507 H   0  0  0  0  0  0  0  0  0  0  0  0
    1.9569   -2.7606   -5.3101 H   0  0  0  0  0  0  0  0  0  0  0  0
   -1.9601   -4.7050   -4.1740 H   0  0  0  0  0  0  0  0  0  0  0  0
   -2.1369   -3.0490    0.6551 H   0  0  0  0  0  0  0  0  0  0  0  0
   -0.0819   -1.0994   -0.5574 H   0  0  0  0  0  0  0  0  0  0  0  0
   -2.6883   -1.5117    1.9500 H   0  0  0  0  0  0  0  0  0  0  0  0
   -1.2984   -2.9065    3.2785 H   0  0  0  0  0  0  0  0  0  0  0  0
   -1.1821   -2.0153    5.4652 H   0  0  0  0  0  0  0  0  0  0  0  0
   -3.5088   -1.9718    4.6342 H   0  0  0  0  0  0  0  0  0  0  0  0
   -4.2037   -0.2191    3.3842 H   0  0  0  0  0  0  0  0  0  0  0  0
   -4.1506    2.0430    4.2014 H   0  0  0  0  0  0  0  0  0  0  0  0
   -2.5787    1.7843    5.0099 H   0  0  0  0  0  0  0  0  0  0  0  0
   -3.6172   -1.4242    6.9264 H   0  0  0  0  0  0  0  0  0  0  0  0
   -2.2748   -0.2593    6.7748 H   0  0  0  0  0  0  0  0  0  0  0  0
   -2.4096    0.9589    2.2846 H   0  0  0  0  0  0  0  0  0  0  0  0
    0.8680   -2.3890    5.0481 H   0  0  0  0  0  0  0  0  0  0  0  0
    3.2074   -1.9608    4.9139 H   0  0  0  0  0  0  0  0  0  0  0  0
    1.7347   -3.3873    1.8499 H   0  0  0  0  0  0  0  0  0  0  0  0
    0.3659   -5.8007   -0.4950 H   0  0  0  0  0  0  0  0  0  0  0  0
    0.1271   -4.5372    0.7319 H   0  0  0  0  0  0  0  0  0  0  0  0
    1.5771   -5.5792    0.8018 H   0  0  0  0  0  0  0  0  0  0  0  0
    3.6241   -3.9539   -3.9457 H   0  0  0  0  0  0  0  0  0  0  0  0
    3.2579   -4.7720   -2.4038 H   0  0  0  0  0  0  0  0  0  0  0  0
    4.7164   -3.7534   -2.5527 H   0  0  0  0  0  0  0  0  0  0  0  0
    4.3924   -0.8517   -1.5051 H   0  0  0  0  0  0  0  0  0  0  0  0
    5.7413    0.7018   -0.5057 H   0  0  0  0  0  0  0  0  0  0  0  0
    6.5808    1.5509    2.3165 H   0  0  0  0  0  0  0  0  0  0  0  0
    8.9770    2.1408    2.0650 H   0  0  0  0  0  0  0  0  0  0  0  0
   10.6446    3.3070    0.8841 H   0  0  0  0  0  0  0  0  0  0  0  0
    8.7354    4.6299   -0.8658 H   0  0  0  0  0  0  0  0  0  0  0  0
   10.1114    5.7863    1.4289 H   0  0  0  0  0  0  0  0  0  0  0  0
    7.9477    6.0393    2.5158 H   0  0  0  0  0  0  0  0  0  0  0  0
    6.5765    4.5968    0.1953 H   0  0  0  0  0  0  0  0  0  0  0  0
    5.8642    5.6992    1.3863 H   0  0  0  0  0  0  0  0  0  0  0  0
    9.0203    7.8409    0.7803 H   0  0  0  0  0  0  0  0  0  0  0  0
    9.4364    7.1261   -0.7985 H   0  0  0  0  0  0  0  0  0  0  0  0
    7.4117    3.7576    2.8676 H   0  0  0  0  0  0  0  0  0  0  0  0
   10.2606    1.2857   -2.2342 H   0  0  0  0  0  0  0  0  0  0  0  0
   12.4406    2.3677   -2.3737 H   0  0  0  0  0  0  0  0  0  0  0  0
   12.0035    3.4941   -0.9942 H   0  0  0  0  0  0  0  0  0  0  0  0
  1  2  1  0  0  0  0
  2  3  1  0  0  0  0
  3  4  1  0  0  0  0
  4  5  1  0  0  0  0
  5  6  1  0  0  0  0
  6  7  1  0  0  0  0
  7  8  1  0  0  0  0
  8  9  1  0  0  0  0
  6 10  1  0  0  0  0
  3 11  1  0  0  0  0
 11 12  1  0  0  0  0
 11 13  1  0  0  0  0
 13 14  2  0  0  0  0
 14 15  1  0  0  0  0
 15 16  1  0  0  0  0
 16 17  1  0  0  0  0
 17 18  1  0  0  0  0
 18 19  1  0  0  0  0
 19 20  1  0  0  0  0
 20 21  1  0  0  0  0
 21 22  1  0  0  0  0
 22 23  1  0  0  0  0
 20 24  1  0  0  0  0
 17 25  1  0  0  0  0
 25 26  1  0  0  0  0
 25 27  1  0  0  0  0
 27 28  2  0  0  0  0
 28 29  1  0  0  0  0
 29 30  1  0  0  0  0
 30 31  1  0  0  0  0
 31 32  1  0  0  0  0
 32 33  1  0  0  0  0
 33 34  1  0  0  0  0
 34 35  1  0  0  0  0
 35 36  1  0  0  0  0
 36 37  1  0  0  0  0
 34 38  1  0  0  0  0
 31 39  1  0  0  0  0
 39 40  1  0  0  0  0
 39 41  1  0  0  0  0
 41 42  2  0  0  0  0
 42 43  1  0  0  0  0
 43 44  1  0  0  0  0
 44 45  1  0  0  0  0
 45 46  1  0  0  0  0
 46 47  1  0  0  0  0
 47 48  1  0  0  0  0
 48 49  1  0  0  0  0
 49 50  1  0  0  0  0
 50 51  1  0  0  0  0
 48 52  1  0  0  0  0
 45 53  1  0  0  0  0
 53 54  1  0  0  0  0
 53 55  1  0  0  0  0
 55 56  2  0  0  0  0
 56 57  1  0  0  0  0
 57 58  1  0  0  0  0
 57 59  2  0  0  0  0
 59 60  1  0  0  0  0
 60 61  2  0  0  0  0
 61 62  1  0  0  0  0
 62 63  1  0  0  0  0
 61 64  1  0  0  0  0
 64 65  1  0  0  0  0
 65 66  1  0  0  0  0
 64 67  2  0  0  0  0
 67 68  1  0  0  0  0
 68 69  2  0  0  0  0
 69 70  1  0  0  0  0
 70 71  2  0  0  0  0
 71 72  1  0  0  0  0
 72 73  1  0  0  0  0
 73 74  1  0  0  0  0
 74 75  1  0  0  0  0
 75 76  1  0  0  0  0
 76 77  1  0  0  0  0
 77 78  1  0  0  0  0
 78 79  1  0  0  0  0
 79 80  1  0  0  0  0
 77 81  1  0  0  0  0
 74 82  1  0  0  0  0
 82 83  1  0  0  0  0
 82 84  1  0  0  0  0
 84 85  2  0  0  0  0
 12  1  1  0  0  0  0
 26 15  1  0  0  0  0
 40 29  1  0  0  0  0
 54 43  1  0  0  0  0
 69 58  1  0  0  0  0
 83 72  1  0  0  0  0
 10  2  1  0  0  0  0
 24 16  1  0  0  0  0
 38 30  1  0  0  0  0
 52 44  1  0  0  0  0
 68 59  1  0  0  0  0
 81 73  1  0  0  0  0
  9  5  1  0  0  0  0
 23 19  1  0  0  0  0
 37 33  1  0  0  0  0
 51 47  1  0  0  0  0
 80 76  1  0  0  0  0
  1 86  1  0  0  0  0
  2 87  1  0  0  0  0
  3 88  1  0  0  0  0
  4 89  1  0  0  0  0
  5 90  1  0  0  0  0
  6 91  1  0  0  0  0
  7 92  1  0  0  0  0
  7 93  1  0  0  0  0
  9 94  1  0  0  0  0
  9 95  1  0  0  0  0
 10 96  1  0  0  0  0
 13 97  1  0  0  0  0
 14 98  1  0  0  0  0
 16 99  1  0  0  0  0
 17100  1  0  0  0  0
 18101  1  0  0  0  0
 19102  1  0  0  0  0
 20103  1  0  0  0  0
 21104  1  0  0  0  0
 21105  1  0  0  0  0
 23106  1  0  0  0  0
 23107  1  0  0  0  0
 24108  1  0  0  0  0
 27109  1  0  0  0  0
 28110  1  0  0  0  0
 30111  1  0  0  0  0
 31112  1  0  0  0  0
 32113  1  0  0  0  0
 33114  1  0  0  0  0
 34115  1  0  0  0  0
 35116  1  0  0  0  0
 35117  1  0  0  0  0
 37118  1  0  0  0  0
 37119  1  0  0  0  0
 38120  1  0  0  0  0
 41121  1  0  0  0  0
 42122  1  0  0  0  0
 44123  1  0  0  0  0
 45124  1  0  0  0  0
 46125  1  0  0  0  0
 47126  1  0  0  0  0
 48127  1  0  0  0  0
 49128  1  0  0  0  0
 49129  1  0  0  0  0
 51130  1  0  0  0  0
 51131  1  0  0  0  0
 52132  1  0  0  0  0
 55133  1  0  0  0  0
 56134  1  0  0  0  0
 60135  1  0  0  0  0
 63136  1  0  0  0  0
 63137  1  0  0  0  0
 63138  1  0  0  0  0
 66139  1  0  0  0  0
 66140  1  0  0  0  0
 66141  1  0  0  0  0
 67142  1  0  0  0  0
 70143  1  0  0  0  0
 71144  1  0  0  0  0
 73145  1  0  0  0  0
 74146  1  0  0  0  0
 75147  1  0  0  0  0
 76148  1  0  0  0  0
 77149  1  0  0  0  0
 78150  1  0  0  0  0
 78151  1  0  0  0  0
 80152  1  0  0  0  0
 80153  1  0  0  0  0
 81154  1  0  0  0  0
 84155  1  0  0  0  0
 85156  1  0  0  0  0
 85157  1  0  0  0  0
M  END
