124

C         10.40030       -2.15820       -1.91600
C          9.05590       -2.14930       -1.59430
O          8.49660       -2.87000       -0.57900
C          9.32580       -3.66850        0.22430
C          8.16380       -1.36170       -2.35800
C          8.68230       -0.57960       -3.38300
C         10.03700       -0.59480       -3.70290
C         10.89570       -1.39660       -2.96710
O         10.40740        0.21200       -4.74340
C         11.76620        0.25560       -5.09980
C          6.74940       -1.35110       -2.06290
S          6.18750       -1.47060       -0.43290
C          5.68010       -1.20410       -2.94590
C          5.71870       -1.18670       -4.36080
C          4.56440       -1.04320       -5.07560
O          4.47890       -1.01410       -6.43290
C          5.66540       -1.13860       -7.17460
C          3.29930       -0.91480       -4.40220
O          2.23540       -0.75520       -5.23300
C          0.95700       -0.64570       -4.66000
C          3.23780       -0.97880       -3.03830
C          4.41840       -1.13860       -2.28430
C          4.52470       -1.25250       -0.89100
C          3.47960       -1.22000        0.04970
C          3.62400       -1.32690        1.39970
C          2.55320       -1.29360        2.31170
S          0.90690       -1.13600        1.77250
C          2.59760       -1.37170        3.71170
C          3.74580       -1.50240        4.51970
C          3.62110       -1.56800        5.87940
O          4.64890       -1.69110        6.76170
C          5.95680       -1.74410        6.25250
C          2.32160       -1.50860        6.49250
O          2.34280       -1.59750        7.84970
C          1.11910       -1.56780        8.53740
C          1.20000       -1.37440        5.72350
C          1.31080       -1.29920        4.31770
C          0.27100       -1.16470        3.38970
C         -1.11810       -1.03700        3.63200
C         -2.04670       -0.97230        2.65170
C         -3.46860       -0.79470        2.79530
C         -4.26430       -0.80230        1.63470
O         -3.67490       -1.03750        0.40660
C         -3.47450        0.12040       -0.38160
C         -5.64400       -0.62110        1.72930
C         -6.22970       -0.42390        2.96680
C         -5.45460       -0.40990        4.12690
C         -4.08800       -0.60000        4.03610
O         -6.14050       -0.20730        5.29140
C         -5.42010       -0.19560        6.49790
C         -6.48440       -0.66410        0.50910
C         -6.90890        0.52780       -0.08670
O         -6.50050        1.72260        0.48180
C         -7.52850        2.50390        1.04660
C         -7.66970        0.47780       -1.25410
C         -8.04510       -0.75370       -1.78280
C         -7.63300       -1.93670       -1.18680
C         -6.83280       -1.87990       -0.04680
O         -7.94600       -3.18610       -1.63400
C         -8.73440       -3.30440       -2.79210
C         -8.07040        1.70790       -1.96650
C         -7.08710        2.60060       -2.43210
O         -5.79030        2.23320       -2.22720
C         -4.77390        3.11960       -2.61640
C         -7.48960        3.75370       -3.08700
C         -8.83410        4.02630       -3.30230
C         -9.80440        3.13570       -2.87130
C         -9.40470        1.97780       -2.20420
O        -11.15240        3.29210       -3.03990
C        -11.60870        4.43580       -3.71700
H         11.09480       -2.76150       -1.35300
H         10.08450       -3.07090        0.74060
H          8.66640       -4.12630        0.96000
H          9.81660       -4.45450       -0.35940
H          8.04040        0.08900       -3.93180
H         11.95160       -1.43790       -3.18080
H         12.12890       -0.72460       -5.42760
H         12.38860        0.61490       -4.27370
H         11.83130        0.95760       -5.92970
H          6.66580       -1.32110       -4.85410
H          5.36620       -1.08130       -8.21990
H          6.15710       -2.09980       -6.99030
H          6.36700       -0.32740       -6.95250
H          0.68840       -1.54660       -4.09840
H          0.26950       -0.52360       -5.49540
H          0.88470        0.22570       -4.00040
H          2.29530       -0.91530       -2.52090
H          2.47990       -1.09810       -0.34620
H          4.61820       -1.44350        1.80910
H          4.71170       -1.54860        4.04520
H          6.21210       -0.83180        5.70250
H          6.10040       -2.61150        5.59930
H          6.60720       -1.83540        7.12100
H          1.37130       -1.66770        9.59190
H          0.59090       -0.62100        8.37990
H          0.46960       -2.39840        8.24030
H          0.22170       -1.32830        6.17220
H         -1.40680       -0.98830        4.67250
H         -1.70440       -1.06820        1.62950
H         -2.73970        0.78640        0.08780
H         -3.08830       -0.23320       -1.33670
H         -4.40390        0.67040       -0.54270
H         -7.29660       -0.29260        3.05470
H         -3.47470       -0.59520        4.92170
H         -6.15730       -0.02280        7.28070
H         -4.92100       -1.15380        6.67820
H         -4.67840        0.61010        6.51730
H         -8.29760        2.76460        0.31260
H         -7.99850        1.98400        1.88920
H         -7.05000        3.41280        1.40850
H         -8.63790       -0.75410       -2.68410
H         -6.49320       -2.80000        0.40080
H         -8.85820       -4.37380       -2.95620
H         -9.71880       -2.84340       -2.65900
H         -8.24090       -2.86010       -3.66260
H         -3.84010        2.64120       -2.32500
H         -4.77410        3.28340       -3.70000
H         -4.86070        4.08280       -2.10300
H         -6.76270        4.46350       -3.44870
H         -9.09730        4.93790       -3.81460
H        -10.16450        1.29600       -1.85480
H        -12.69390        4.34950       -3.74460
H        -11.22400        4.47820       -4.74160
H        -11.33360        5.35470       -3.18830
