
  xtb     03032216583D
 energy: -434.676653906127 gnorm: 0.000528593268 xtb: 6.4.1 (unknown)
252275  0     0  0            999 V2000
    4.2338   -0.5022    8.4556 C   0  0  0  0  0  0  0  0  0  0  0  0
    4.3167   -0.2927    7.1280 C   0  0  0  0  0  0  0  0  0  0  0  0
    3.1183   -0.6380    6.4359 C   0  0  0  0  0  0  0  0  0  0  0  0
    2.8398   -0.4891    5.0735 C   0  0  0  0  0  0  0  0  0  0  0  0
    3.8314   -0.0145    4.0982 C   0  0  0  0  0  0  0  0  0  0  0  0
    5.0390   -0.6861    3.9151 C   0  0  0  0  0  0  0  0  0  0  0  0
    5.8944   -0.3192    2.9013 C   0  0  0  0  0  0  0  0  0  0  0  0
    5.6097    0.7476    2.0435 C   0  0  0  0  0  0  0  0  0  0  0  0
    6.7877    1.0051    0.7566 S   0  0  0  0  0  0  0  0  0  0  0  0
    6.1805    2.4087   -0.2529 C   0  0  0  0  0  0  0  0  0  0  0  0
    7.0974    2.5681   -1.4499 C   0  0  0  0  0  0  0  0  0  0  0  0
    4.4401    1.4572    2.2928 C   0  0  0  0  0  0  0  0  0  0  0  0
    4.1009    2.5542    1.5705 F   0  0  0  0  0  0  0  0  0  0  0  0
    3.5567    1.0776    3.2851 C   0  0  0  0  0  0  0  0  0  0  0  0
    1.5542   -0.8106    4.6700 C   0  0  0  0  0  0  0  0  0  0  0  0
    0.5667   -1.3532    5.5266 C   0  0  0  0  0  0  0  0  0  0  0  0
    0.8757   -1.5787    6.8798 C   0  0  0  0  0  0  0  0  0  0  0  0
   -0.0335   -2.3138    7.7612 C   0  0  0  0  0  0  0  0  0  0  0  0
   -0.2623   -1.9386    9.0822 C   0  0  0  0  0  0  0  0  0  0  0  0
   -1.0298   -2.7195    9.9232 C   0  0  0  0  0  0  0  0  0  0  0  0
   -1.5885   -3.9123    9.4800 C   0  0  0  0  0  0  0  0  0  0  0  0
   -2.5552   -4.9950   10.4822 S   0  0  0  0  0  0  0  0  0  0  0  0
   -1.8965   -4.6950   12.1599 C   0  0  0  0  0  0  0  0  0  0  0  0
   -0.4336   -5.0783   12.2710 C   0  0  0  0  0  0  0  0  0  0  0  0
   -1.3884   -4.2569    8.1438 C   0  0  0  0  0  0  0  0  0  0  0  0
   -0.6337   -3.4832    7.2925 C   0  0  0  0  0  0  0  0  0  0  0  0
   -1.9299   -5.3957    7.6658 F   0  0  0  0  0  0  0  0  0  0  0  0
    2.1242   -1.1394    7.3093 C   0  0  0  0  0  0  0  0  0  0  0  0
    2.7035   -1.1360    8.9536 S   0  0  0  0  0  0  0  0  0  0  0  0
   -0.6816   -1.5031    4.8656 C   0  0  0  0  0  0  0  0  0  0  0  0
   -0.6727   -1.0849    3.5650 C   0  0  0  0  0  0  0  0  0  0  0  0
    0.9388   -0.5894    3.0613 S   0  0  0  0  0  0  0  0  0  0  0  0
   -1.7376   -0.9935    2.6275 C   0  0  0  0  0  0  0  0  0  0  0  0
   -3.1878   -1.9430    2.7630 S   0  0  0  0  0  0  0  0  0  0  0  0
   -1.7884   -0.1838    1.4907 C   0  0  0  0  0  0  0  0  0  0  0  0
   -0.9524    0.9082    1.1728 C   0  0  0  0  0  0  0  0  0  0  0  0
   -1.1821    1.6641    0.0606 C   0  0  0  0  0  0  0  0  0  0  0  0
   -0.5016    2.7953   -0.2497 O   0  0  0  0  0  0  0  0  0  0  0  0
    0.3026    3.3641    0.7599 C   0  0  0  0  0  0  0  0  0  0  0  0
   -2.2381    1.2977   -0.8471 C   0  0  0  0  0  0  0  0  0  0  0  0
   -2.3017    2.0381   -1.9860 O   0  0  0  0  0  0  0  0  0  0  0  0
   -3.2529    1.6722   -2.9516 C   0  0  0  0  0  0  0  0  0  0  0  0
   -3.1042    0.2954   -0.5168 C   0  0  0  0  0  0  0  0  0  0  0  0
   -2.9312   -0.4420    0.6799 C   0  0  0  0  0  0  0  0  0  0  0  0
   -3.8116   -1.3623    1.2561 C   0  0  0  0  0  0  0  0  0  0  0  0
   -5.1397   -1.5669    0.7400 C   0  0  0  0  0  0  0  0  0  0  0  0
   -5.3208   -1.8388   -0.5727 C   0  0  0  0  0  0  0  0  0  0  0  0
   -6.3162   -1.2888   -1.4437 C   0  0  0  0  0  0  0  0  0  0  0  0
   -6.9335   -0.0792   -1.2521 C   0  0  0  0  0  0  0  0  0  0  0  0
   -7.1017    0.6635   -2.4475 C   0  0  0  0  0  0  0  0  0  0  0  0
   -7.2150    2.0625   -2.5555 C   0  0  0  0  0  0  0  0  0  0  0  0
   -7.5124    2.9346   -1.4081 C   0  0  0  0  0  0  0  0  0  0  0  0
   -8.5563    3.8492   -1.4884 C   0  0  0  0  0  0  0  0  0  0  0  0
   -8.8538    4.6921   -0.4343 C   0  0  0  0  0  0  0  0  0  0  0  0
   -8.1123    4.6491    0.7403 C   0  0  0  0  0  0  0  0  0  0  0  0
   -8.3695    5.6547    2.1619 S   0  0  0  0  0  0  0  0  0  0  0  0
   -9.9502    6.5083    1.8346 C   0  0  0  0  0  0  0  0  0  0  0  0
  -11.1471    5.5869    1.9785 C   0  0  0  0  0  0  0  0  0  0  0  0
   -7.0472    3.7469    0.7945 C   0  0  0  0  0  0  0  0  0  0  0  0
   -6.2979    3.6868    1.9114 F   0  0  0  0  0  0  0  0  0  0  0  0
   -6.7370    2.9064   -0.2507 C   0  0  0  0  0  0  0  0  0  0  0  0
   -6.8048    2.6212   -3.7548 C   0  0  0  0  0  0  0  0  0  0  0  0
   -6.4159    1.8583   -4.8838 C   0  0  0  0  0  0  0  0  0  0  0  0
   -6.4933    0.4574   -4.8330 C   0  0  0  0  0  0  0  0  0  0  0  0
   -6.0748   -0.3872   -5.9686 C   0  0  0  0  0  0  0  0  0  0  0  0
   -7.0137   -1.0829   -6.7228 C   0  0  0  0  0  0  0  0  0  0  0  0
   -6.6155   -1.8592   -7.7908 C   0  0  0  0  0  0  0  0  0  0  0  0
   -5.2702   -1.9936   -8.1330 C   0  0  0  0  0  0  0  0  0  0  0  0
   -4.9001   -3.0579   -9.4953 S   0  0  0  0  0  0  0  0  0  0  0  0
   -3.4265   -2.3218  -10.2960 C   0  0  0  0  0  0  0  0  0  0  0  0
   -3.6842   -0.9127  -10.7903 C   0  0  0  0  0  0  0  0  0  0  0  0
   -4.3432   -1.3293   -7.3363 C   0  0  0  0  0  0  0  0  0  0  0  0
   -4.7300   -0.5209   -6.2856 C   0  0  0  0  0  0  0  0  0  0  0  0
   -3.0152   -1.4501   -7.5595 F   0  0  0  0  0  0  0  0  0  0  0  0
   -6.7509   -0.0978   -3.5937 C   0  0  0  0  0  0  0  0  0  0  0  0
   -6.2640   -1.7189   -3.1538 S   0  0  0  0  0  0  0  0  0  0  0  0
   -5.6020    2.6023   -5.7756 C   0  0  0  0  0  0  0  0  0  0  0  0
   -5.2620    3.8383   -5.2913 C   0  0  0  0  0  0  0  0  0  0  0  0
   -6.2576    4.2785   -3.9034 S   0  0  0  0  0  0  0  0  0  0  0  0
   -3.9549    4.4147   -5.4188 C   0  0  0  0  0  0  0  0  0  0  0  0
   -2.9256    3.9184   -6.1756 C   0  0  0  0  0  0  0  0  0  0  0  0
   -1.6568    4.0405   -5.5530 C   0  0  0  0  0  0  0  0  0  0  0  0
   -0.4670    3.3795   -5.9066 C   0  0  0  0  0  0  0  0  0  0  0  0
   -0.3182    2.6527   -7.1776 C   0  0  0  0  0  0  0  0  0  0  0  0
   -1.1497    1.5840   -7.5011 C   0  0  0  0  0  0  0  0  0  0  0  0
   -0.9962    0.9134   -8.6951 C   0  0  0  0  0  0  0  0  0  0  0  0
   -0.0105    1.2779   -9.6078 C   0  0  0  0  0  0  0  0  0  0  0  0
    0.1007    0.3362  -11.1047 S   0  0  0  0  0  0  0  0  0  0  0  0
    0.3641    1.6138  -12.3899 C   0  0  0  0  0  0  0  0  0  0  0  0
   -0.7630    2.6267  -12.4206 C   0  0  0  0  0  0  0  0  0  0  0  0
    0.8446    2.3143   -9.2502 C   0  0  0  0  0  0  0  0  0  0  0  0
    1.8589    2.6875  -10.0625 F   0  0  0  0  0  0  0  0  0  0  0  0
    0.6958    3.0012   -8.0614 C   0  0  0  0  0  0  0  0  0  0  0  0
    0.5164    3.3132   -4.9352 C   0  0  0  0  0  0  0  0  0  0  0  0
    0.3971    3.9327   -3.6682 C   0  0  0  0  0  0  0  0  0  0  0  0
   -0.7154    4.7413   -3.3804 C   0  0  0  0  0  0  0  0  0  0  0  0
   -0.8087    5.4468   -2.0976 C   0  0  0  0  0  0  0  0  0  0  0  0
    0.2267    6.2837   -1.6916 C   0  0  0  0  0  0  0  0  0  0  0  0
    0.1688    6.9638   -0.4897 C   0  0  0  0  0  0  0  0  0  0  0  0
   -0.9284    6.8225    0.3521 C   0  0  0  0  0  0  0  0  0  0  0  0
   -1.1096    7.5934    1.9279 S   0  0  0  0  0  0  0  0  0  0  0  0
    0.0981    8.9633    1.8920 C   0  0  0  0  0  0  0  0  0  0  0  0
   -0.2947   10.0506    0.9102 C   0  0  0  0  0  0  0  0  0  0  0  0
   -1.9491    5.9630   -0.0597 C   0  0  0  0  0  0  0  0  0  0  0  0
   -1.9077    5.2880   -1.2582 C   0  0  0  0  0  0  0  0  0  0  0  0
   -3.0113    5.7807    0.7482 F   0  0  0  0  0  0  0  0  0  0  0  0
   -1.7360    4.7320   -4.3153 C   0  0  0  0  0  0  0  0  0  0  0  0
   -3.3513    5.3358   -4.0422 S   0  0  0  0  0  0  0  0  0  0  0  0
    1.3534    3.4410   -2.7477 C   0  0  0  0  0  0  0  0  0  0  0  0
    2.1692    2.4733   -3.2570 C   0  0  0  0  0  0  0  0  0  0  0  0
    1.9006    2.2456   -4.9880 S   0  0  0  0  0  0  0  0  0  0  0  0
    2.9727    1.5602   -2.5158 C   0  0  0  0  0  0  0  0  0  0  0  0
    2.4461    1.1044   -0.9217 S   0  0  0  0  0  0  0  0  0  0  0  0
    4.0623    0.7861   -2.9104 C   0  0  0  0  0  0  0  0  0  0  0  0
    4.7968    0.8970   -4.1109 C   0  0  0  0  0  0  0  0  0  0  0  0
    5.8889    0.1017   -4.3146 C   0  0  0  0  0  0  0  0  0  0  0  0
    6.6707    0.1098   -5.4202 O   0  0  0  0  0  0  0  0  0  0  0  0
    6.3092    0.9566   -6.4837 C   0  0  0  0  0  0  0  0  0  0  0  0
    6.3194   -0.8195   -3.2912 C   0  0  0  0  0  0  0  0  0  0  0  0
    7.4659   -1.4804   -3.5868 O   0  0  0  0  0  0  0  0  0  0  0  0
    7.9918   -2.3604   -2.6248 C   0  0  0  0  0  0  0  0  0  0  0  0
    5.6004   -0.9606   -2.1377 C   0  0  0  0  0  0  0  0  0  0  0  0
    4.4379   -0.1851   -1.9333 C   0  0  0  0  0  0  0  0  0  0  0  0
    3.6041   -0.1847   -0.8116 C   0  0  0  0  0  0  0  0  0  0  0  0
    3.4975   -1.1374    0.2431 C   0  0  0  0  0  0  0  0  0  0  0  0
    3.7668   -2.4492    0.0666 C   0  0  0  0  0  0  0  0  0  0  0  0
    3.5786   -3.4921    1.0193 C   0  0  0  0  0  0  0  0  0  0  0  0
    3.4581   -4.8162    0.7037 C   0  0  0  0  0  0  0  0  0  0  0  0
    3.2261   -5.6591    1.8170 C   0  0  0  0  0  0  0  0  0  0  0  0
    3.0356   -7.0491    1.8172 C   0  0  0  0  0  0  0  0  0  0  0  0
    2.9970   -7.8235    0.5709 C   0  0  0  0  0  0  0  0  0  0  0  0
    3.8052   -8.9436    0.4033 C   0  0  0  0  0  0  0  0  0  0  0  0
    3.7703   -9.6837   -0.7623 C   0  0  0  0  0  0  0  0  0  0  0  0
    2.9117   -9.3382   -1.7993 C   0  0  0  0  0  0  0  0  0  0  0  0
    2.7761  -10.1856   -3.3384 S   0  0  0  0  0  0  0  0  0  0  0  0
    3.5737  -11.7988   -3.0287 C   0  0  0  0  0  0  0  0  0  0  0  0
    2.7683  -12.6682   -2.0821 C   0  0  0  0  0  0  0  0  0  0  0  0
    2.1106   -8.2090   -1.6199 C   0  0  0  0  0  0  0  0  0  0  0  0
    1.2706   -7.8388   -2.6077 F   0  0  0  0  0  0  0  0  0  0  0  0
    2.1434   -7.4565   -0.4677 C   0  0  0  0  0  0  0  0  0  0  0  0
    2.8879   -7.6550    3.0557 C   0  0  0  0  0  0  0  0  0  0  0  0
    2.9366   -6.9424    4.2764 C   0  0  0  0  0  0  0  0  0  0  0  0
    3.1310   -5.5496    4.2756 C   0  0  0  0  0  0  0  0  0  0  0  0
    3.3438   -4.8638    5.5589 C   0  0  0  0  0  0  0  0  0  0  0  0
    4.5498   -4.2051    5.7972 C   0  0  0  0  0  0  0  0  0  0  0  0
    4.8870   -3.8032    7.0689 C   0  0  0  0  0  0  0  0  0  0  0  0
    4.0402   -4.0216    8.1598 C   0  0  0  0  0  0  0  0  0  0  0  0
    4.7518   -3.6186    9.7245 S   0  0  0  0  0  0  0  0  0  0  0  0
    3.5082   -3.9389   11.0253 C   0  0  0  0  0  0  0  0  0  0  0  0
    3.4194   -5.4049   11.4010 C   0  0  0  0  0  0  0  0  0  0  0  0
    2.7895   -4.5619    7.8818 C   0  0  0  0  0  0  0  0  0  0  0  0
    2.4489   -4.9918    6.6131 C   0  0  0  0  0  0  0  0  0  0  0  0
    1.8580   -4.7378    8.8505 F   0  0  0  0  0  0  0  0  0  0  0  0
    3.2505   -4.9369    3.0379 C   0  0  0  0  0  0  0  0  0  0  0  0
    3.4470   -3.2237    2.7494 S   0  0  0  0  0  0  0  0  0  0  0  0
    2.8044   -7.8198    5.3950 C   0  0  0  0  0  0  0  0  0  0  0  0
    2.6281   -9.1074    5.0387 C   0  0  0  0  0  0  0  0  0  0  0  0
    2.6268   -9.3595    3.3269 S   0  0  0  0  0  0  0  0  0  0  0  0
    4.9790   -0.3256    9.2059 H   0  0  0  0  0  0  0  0  0  0  0  0
    5.1824    0.1099    6.6340 H   0  0  0  0  0  0  0  0  0  0  0  0
    5.2806   -1.5227    4.5517 H   0  0  0  0  0  0  0  0  0  0  0  0
    6.8105   -0.8658    2.7379 H   0  0  0  0  0  0  0  0  0  0  0  0
    5.1661    2.1827   -0.5714 H   0  0  0  0  0  0  0  0  0  0  0  0
    6.1851    3.3010    0.3716 H   0  0  0  0  0  0  0  0  0  0  0  0
    6.7474    3.3915   -2.0686 H   0  0  0  0  0  0  0  0  0  0  0  0
    7.1009    1.6605   -2.0498 H   0  0  0  0  0  0  0  0  0  0  0  0
    8.1155    2.7778   -1.1294 H   0  0  0  0  0  0  0  0  0  0  0  0
    2.6575    1.6592    3.4188 H   0  0  0  0  0  0  0  0  0  0  0  0
    0.1466   -1.0130    9.4563 H   0  0  0  0  0  0  0  0  0  0  0  0
   -1.1915   -2.3904   10.9373 H   0  0  0  0  0  0  0  0  0  0  0  0
   -2.5173   -5.3269   12.7947 H   0  0  0  0  0  0  0  0  0  0  0  0
   -2.0728   -3.6543   12.4291 H   0  0  0  0  0  0  0  0  0  0  0  0
   -0.0797   -4.8999   13.2848 H   0  0  0  0  0  0  0  0  0  0  0  0
   -0.3027   -6.1316   12.0338 H   0  0  0  0  0  0  0  0  0  0  0  0
    0.1726   -4.4953   11.5806 H   0  0  0  0  0  0  0  0  0  0  0  0
   -0.4811   -3.8150    6.2774 H   0  0  0  0  0  0  0  0  0  0  0  0
   -1.5795   -1.8359    5.3555 H   0  0  0  0  0  0  0  0  0  0  0  0
   -0.1654    1.1788    1.8520 H   0  0  0  0  0  0  0  0  0  0  0  0
   -0.2661    3.5022    1.6845 H   0  0  0  0  0  0  0  0  0  0  0  0
    0.6104    4.3391    0.3854 H   0  0  0  0  0  0  0  0  0  0  0  0
    1.1906    2.7577    0.9617 H   0  0  0  0  0  0  0  0  0  0  0  0
   -3.1662    0.6136   -3.2188 H   0  0  0  0  0  0  0  0  0  0  0  0
   -4.2758    1.8710   -2.6125 H   0  0  0  0  0  0  0  0  0  0  0  0
   -3.0404    2.2820   -3.8276 H   0  0  0  0  0  0  0  0  0  0  0  0
   -3.9501    0.0703   -1.1428 H   0  0  0  0  0  0  0  0  0  0  0  0
   -5.9719   -1.3116    1.3835 H   0  0  0  0  0  0  0  0  0  0  0  0
   -4.4950   -2.2988   -1.1031 H   0  0  0  0  0  0  0  0  0  0  0  0
   -7.0896    0.3372   -0.2743 H   0  0  0  0  0  0  0  0  0  0  0  0
   -9.1522    3.8954   -2.3877 H   0  0  0  0  0  0  0  0  0  0  0  0
   -9.6698    5.3873   -0.5429 H   0  0  0  0  0  0  0  0  0  0  0  0
   -9.9759    7.2937    2.5899 H   0  0  0  0  0  0  0  0  0  0  0  0
   -9.8968    6.9758    0.8523 H   0  0  0  0  0  0  0  0  0  0  0  0
  -11.1775    5.1680    2.9815 H   0  0  0  0  0  0  0  0  0  0  0  0
  -11.0980    4.7655    1.2670 H   0  0  0  0  0  0  0  0  0  0  0  0
  -12.0666    6.1432    1.8056 H   0  0  0  0  0  0  0  0  0  0  0  0
   -5.8782    2.2591   -0.1596 H   0  0  0  0  0  0  0  0  0  0  0  0
   -8.0614   -1.0005   -6.4774 H   0  0  0  0  0  0  0  0  0  0  0  0
   -7.3459   -2.3853   -8.3855 H   0  0  0  0  0  0  0  0  0  0  0  0
   -2.5849   -2.3706   -9.6090 H   0  0  0  0  0  0  0  0  0  0  0  0
   -3.2363   -2.9978  -11.1295 H   0  0  0  0  0  0  0  0  0  0  0  0
   -3.9319   -0.2473   -9.9647 H   0  0  0  0  0  0  0  0  0  0  0  0
   -4.5104   -0.9016  -11.4981 H   0  0  0  0  0  0  0  0  0  0  0  0
   -2.7903   -0.5353  -11.2836 H   0  0  0  0  0  0  0  0  0  0  0  0
   -3.9716   -0.0241   -5.6991 H   0  0  0  0  0  0  0  0  0  0  0  0
   -5.1315    2.1564   -6.6330 H   0  0  0  0  0  0  0  0  0  0  0  0
   -3.0779    3.3685   -7.0864 H   0  0  0  0  0  0  0  0  0  0  0  0
   -1.9076    1.2654   -6.8022 H   0  0  0  0  0  0  0  0  0  0  0  0
   -1.6344    0.0813   -8.9396 H   0  0  0  0  0  0  0  0  0  0  0  0
    1.3307    2.0850  -12.2267 H   0  0  0  0  0  0  0  0  0  0  0  0
    0.4018    1.0380  -13.3146 H   0  0  0  0  0  0  0  0  0  0  0  0
   -0.6036    3.3280  -13.2371 H   0  0  0  0  0  0  0  0  0  0  0  0
   -1.7203    2.1305  -12.5678 H   0  0  0  0  0  0  0  0  0  0  0  0
   -0.8049    3.1878  -11.4886 H   0  0  0  0  0  0  0  0  0  0  0  0
    1.3786    3.8050   -7.8328 H   0  0  0  0  0  0  0  0  0  0  0  0
    1.0881    6.4122   -2.3305 H   0  0  0  0  0  0  0  0  0  0  0  0
    0.9946    7.5979   -0.2094 H   0  0  0  0  0  0  0  0  0  0  0  0
    1.0878    8.5557    1.6894 H   0  0  0  0  0  0  0  0  0  0  0  0
    0.0829    9.3402    2.9146 H   0  0  0  0  0  0  0  0  0  0  0  0
   -1.2769   10.4439    1.1611 H   0  0  0  0  0  0  0  0  0  0  0  0
   -0.3301    9.6644   -0.1064 H   0  0  0  0  0  0  0  0  0  0  0  0
    0.4272   10.8643    0.9490 H   0  0  0  0  0  0  0  0  0  0  0  0
   -2.7095    4.6146   -1.5091 H   0  0  0  0  0  0  0  0  0  0  0  0
    1.3747    3.7274   -1.7143 H   0  0  0  0  0  0  0  0  0  0  0  0
    4.4847    1.6232   -4.8424 H   0  0  0  0  0  0  0  0  0  0  0  0
    6.3615    2.0109   -6.1923 H   0  0  0  0  0  0  0  0  0  0  0  0
    7.0344    0.7640   -7.2723 H   0  0  0  0  0  0  0  0  0  0  0  0
    5.3025    0.7327   -6.8503 H   0  0  0  0  0  0  0  0  0  0  0  0
    8.9118   -2.7511   -3.0561 H   0  0  0  0  0  0  0  0  0  0  0  0
    8.2196   -1.8409   -1.6880 H   0  0  0  0  0  0  0  0  0  0  0  0
    7.3062   -3.1897   -2.4210 H   0  0  0  0  0  0  0  0  0  0  0  0
    5.9248   -1.6195   -1.3504 H   0  0  0  0  0  0  0  0  0  0  0  0
    3.0686   -0.8023    1.1785 H   0  0  0  0  0  0  0  0  0  0  0  0
    4.0633   -2.7953   -0.9150 H   0  0  0  0  0  0  0  0  0  0  0  0
    3.5255   -5.1795   -0.3061 H   0  0  0  0  0  0  0  0  0  0  0  0
    4.4887   -9.2302    1.1878 H   0  0  0  0  0  0  0  0  0  0  0  0
    4.4282  -10.5319   -0.8578 H   0  0  0  0  0  0  0  0  0  0  0  0
    4.5895  -11.6259   -2.6751 H   0  0  0  0  0  0  0  0  0  0  0  0
    3.6251  -12.2491   -4.0201 H   0  0  0  0  0  0  0  0  0  0  0  0
    3.2580  -13.6322   -1.9579 H   0  0  0  0  0  0  0  0  0  0  0  0
    1.7710  -12.8333   -2.4827 H   0  0  0  0  0  0  0  0  0  0  0  0
    2.6716  -12.1985   -1.1054 H   0  0  0  0  0  0  0  0  0  0  0  0
    1.4857   -6.6064   -0.3740 H   0  0  0  0  0  0  0  0  0  0  0  0
    5.2487   -4.0673    4.9862 H   0  0  0  0  0  0  0  0  0  0  0  0
    5.8449   -3.3436    7.2602 H   0  0  0  0  0  0  0  0  0  0  0  0
    3.8749   -3.3468   11.8646 H   0  0  0  0  0  0  0  0  0  0  0  0
    2.5561   -3.5288   10.6973 H   0  0  0  0  0  0  0  0  0  0  0  0
    4.4011   -5.7847   11.6759 H   0  0  0  0  0  0  0  0  0  0  0  0
    3.0363   -5.9979   10.5753 H   0  0  0  0  0  0  0  0  0  0  0  0
    2.7475   -5.5245   12.2484 H   0  0  0  0  0  0  0  0  0  0  0  0
    1.4809   -5.4468    6.4700 H   0  0  0  0  0  0  0  0  0  0  0  0
    2.8490   -7.4907    6.4168 H   0  0  0  0  0  0  0  0  0  0  0  0
    2.4994   -9.9570    5.6805 H   0  0  0  0  0  0  0  0  0  0  0  0
  1  2  2  0  0  0  0
  2  3  1  0  0  0  0
  3  4  2  0  0  0  0
  4  5  1  0  0  0  0
  5  6  2  0  0  0  0
  6  7  1  0  0  0  0
  7  8  2  0  0  0  0
  8  9  1  0  0  0  0
  9 10  1  0  0  0  0
 10 11  1  0  0  0  0
  8 12  1  0  0  0  0
 12 13  1  0  0  0  0
 12 14  2  0  0  0  0
  4 15  1  0  0  0  0
 15 16  2  0  0  0  0
 16 17  1  0  0  0  0
 17 18  1  0  0  0  0
 18 19  2  0  0  0  0
 19 20  1  0  0  0  0
 20 21  2  0  0  0  0
 21 22  1  0  0  0  0
 22 23  1  0  0  0  0
 23 24  1  0  0  0  0
 21 25  1  0  0  0  0
 25 26  2  0  0  0  0
 25 27  1  0  0  0  0
 17 28  2  0  0  0  0
 28 29  1  0  0  0  0
 16 30  1  0  0  0  0
 30 31  2  0  0  0  0
 31 32  1  0  0  0  0
 31 33  1  0  0  0  0
 33 34  1  0  0  0  0
 33 35  2  0  0  0  0
 35 36  1  0  0  0  0
 36 37  2  0  0  0  0
 37 38  1  0  0  0  0
 38 39  1  0  0  0  0
 37 40  1  0  0  0  0
 40 41  1  0  0  0  0
 41 42  1  0  0  0  0
 40 43  2  0  0  0  0
 43 44  1  0  0  0  0
 44 45  2  0  0  0  0
 45 46  1  0  0  0  0
 46 47  2  0  0  0  0
 47 48  1  0  0  0  0
 48 49  2  0  0  0  0
 49 50  1  0  0  0  0
 50 51  2  0  0  0  0
 51 52  1  0  0  0  0
 52 53  2  0  0  0  0
 53 54  1  0  0  0  0
 54 55  2  0  0  0  0
 55 56  1  0  0  0  0
 56 57  1  0  0  0  0
 57 58  1  0  0  0  0
 55 59  1  0  0  0  0
 59 60  1  0  0  0  0
 59 61  2  0  0  0  0
 51 62  1  0  0  0  0
 62 63  2  0  0  0  0
 63 64  1  0  0  0  0
 64 65  1  0  0  0  0
 65 66  2  0  0  0  0
 66 67  1  0  0  0  0
 67 68  2  0  0  0  0
 68 69  1  0  0  0  0
 69 70  1  0  0  0  0
 70 71  1  0  0  0  0
 68 72  1  0  0  0  0
 72 73  2  0  0  0  0
 72 74  1  0  0  0  0
 64 75  2  0  0  0  0
 75 76  1  0  0  0  0
 63 77  1  0  0  0  0
 77 78  2  0  0  0  0
 78 79  1  0  0  0  0
 78 80  1  0  0  0  0
 80 81  2  0  0  0  0
 81 82  1  0  0  0  0
 82 83  2  0  0  0  0
 83 84  1  0  0  0  0
 84 85  2  0  0  0  0
 85 86  1  0  0  0  0
 86 87  2  0  0  0  0
 87 88  1  0  0  0  0
 88 89  1  0  0  0  0
 89 90  1  0  0  0  0
 87 91  1  0  0  0  0
 91 92  1  0  0  0  0
 91 93  2  0  0  0  0
 83 94  1  0  0  0  0
 94 95  2  0  0  0  0
 95 96  1  0  0  0  0
 96 97  1  0  0  0  0
 97 98  2  0  0  0  0
 98 99  1  0  0  0  0
 99100  2  0  0  0  0
100101  1  0  0  0  0
101102  1  0  0  0  0
102103  1  0  0  0  0
100104  1  0  0  0  0
104105  2  0  0  0  0
104106  1  0  0  0  0
 96107  2  0  0  0  0
107108  1  0  0  0  0
 95109  1  0  0  0  0
109110  2  0  0  0  0
110111  1  0  0  0  0
110112  1  0  0  0  0
112113  1  0  0  0  0
112114  2  0  0  0  0
114115  1  0  0  0  0
115116  2  0  0  0  0
116117  1  0  0  0  0
117118  1  0  0  0  0
116119  1  0  0  0  0
119120  1  0  0  0  0
120121  1  0  0  0  0
119122  2  0  0  0  0
122123  1  0  0  0  0
123124  2  0  0  0  0
124125  1  0  0  0  0
125126  2  0  0  0  0
126127  1  0  0  0  0
127128  2  0  0  0  0
128129  1  0  0  0  0
129130  2  0  0  0  0
130131  1  0  0  0  0
131132  2  0  0  0  0
132133  1  0  0  0  0
133134  2  0  0  0  0
134135  1  0  0  0  0
135136  1  0  0  0  0
136137  1  0  0  0  0
134138  1  0  0  0  0
138139  1  0  0  0  0
138140  2  0  0  0  0
130141  1  0  0  0  0
141142  2  0  0  0  0
142143  1  0  0  0  0
143144  1  0  0  0  0
144145  2  0  0  0  0
145146  1  0  0  0  0
146147  2  0  0  0  0
147148  1  0  0  0  0
148149  1  0  0  0  0
149150  1  0  0  0  0
147151  1  0  0  0  0
151152  2  0  0  0  0
151153  1  0  0  0  0
143154  2  0  0  0  0
154155  1  0  0  0  0
142156  1  0  0  0  0
156157  2  0  0  0  0
157158  1  0  0  0  0
 29  1  1  0  0  0  0
 45 34  1  0  0  0  0
 76 48  1  0  0  0  0
108 80  1  0  0  0  0
124113  1  0  0  0  0
155127  1  0  0  0  0
 28  3  1  0  0  0  0
 44 35  1  0  0  0  0
 75 50  1  0  0  0  0
107 82  1  0  0  0  0
123114  1  0  0  0  0
154129  1  0  0  0  0
 14  5  1  0  0  0  0
 32 15  1  0  0  0  0
 61 52  1  0  0  0  0
 79 62  1  0  0  0  0
 93 84  1  0  0  0  0
111 94  1  0  0  0  0
140131  1  0  0  0  0
158141  1  0  0  0  0
 26 18  1  0  0  0  0
 73 65  1  0  0  0  0
105 97  1  0  0  0  0
152144  1  0  0  0  0
  1159  1  0  0  0  0
  2160  1  0  0  0  0
  6161  1  0  0  0  0
  7162  1  0  0  0  0
 10163  1  0  0  0  0
 10164  1  0  0  0  0
 11165  1  0  0  0  0
 11166  1  0  0  0  0
 11167  1  0  0  0  0
 14168  1  0  0  0  0
 19169  1  0  0  0  0
 20170  1  0  0  0  0
 23171  1  0  0  0  0
 23172  1  0  0  0  0
 24173  1  0  0  0  0
 24174  1  0  0  0  0
 24175  1  0  0  0  0
 26176  1  0  0  0  0
 30177  1  0  0  0  0
 36178  1  0  0  0  0
 39179  1  0  0  0  0
 39180  1  0  0  0  0
 39181  1  0  0  0  0
 42182  1  0  0  0  0
 42183  1  0  0  0  0
 42184  1  0  0  0  0
 43185  1  0  0  0  0
 46186  1  0  0  0  0
 47187  1  0  0  0  0
 49188  1  0  0  0  0
 53189  1  0  0  0  0
 54190  1  0  0  0  0
 57191  1  0  0  0  0
 57192  1  0  0  0  0
 58193  1  0  0  0  0
 58194  1  0  0  0  0
 58195  1  0  0  0  0
 61196  1  0  0  0  0
 66197  1  0  0  0  0
 67198  1  0  0  0  0
 70199  1  0  0  0  0
 70200  1  0  0  0  0
 71201  1  0  0  0  0
 71202  1  0  0  0  0
 71203  1  0  0  0  0
 73204  1  0  0  0  0
 77205  1  0  0  0  0
 81206  1  0  0  0  0
 85207  1  0  0  0  0
 86208  1  0  0  0  0
 89209  1  0  0  0  0
 89210  1  0  0  0  0
 90211  1  0  0  0  0
 90212  1  0  0  0  0
 90213  1  0  0  0  0
 93214  1  0  0  0  0
 98215  1  0  0  0  0
 99216  1  0  0  0  0
102217  1  0  0  0  0
102218  1  0  0  0  0
103219  1  0  0  0  0
103220  1  0  0  0  0
103221  1  0  0  0  0
105222  1  0  0  0  0
109223  1  0  0  0  0
115224  1  0  0  0  0
118225  1  0  0  0  0
118226  1  0  0  0  0
118227  1  0  0  0  0
121228  1  0  0  0  0
121229  1  0  0  0  0
121230  1  0  0  0  0
122231  1  0  0  0  0
125232  1  0  0  0  0
126233  1  0  0  0  0
128234  1  0  0  0  0
132235  1  0  0  0  0
133236  1  0  0  0  0
136237  1  0  0  0  0
136238  1  0  0  0  0
137239  1  0  0  0  0
137240  1  0  0  0  0
137241  1  0  0  0  0
140242  1  0  0  0  0
145243  1  0  0  0  0
146244  1  0  0  0  0
149245  1  0  0  0  0
149246  1  0  0  0  0
150247  1  0  0  0  0
150248  1  0  0  0  0
150249  1  0  0  0  0
152250  1  0  0  0  0
156251  1  0  0  0  0
157252  1  0  0  0  0
M  END
