157

N         -2.93210        4.38430        0.61640
C         -1.61270        3.74590        0.69250
C         -1.87890        2.41670       -0.03960
N         -2.06040        2.57980       -1.47160
C         -1.25050        3.61500       -2.09460
C         -0.09680        4.08240       -1.20330
C          0.56850        5.22880       -1.95050
S         -0.76700        6.14620       -2.80000
C         -2.02720        4.88510       -2.43650
N         -0.63940        4.57340        0.04930
N         -3.04740        1.88460        0.60860
S         -4.07590        3.20380        1.14720
C         -3.65050        0.75840        0.03990
C         -4.92390        0.41370        0.22570
N         -5.49240       -0.72850       -0.31360
C         -6.52490       -1.40220        0.42170
C         -6.85880       -2.67910       -0.38850
N         -6.71940       -3.83270        0.47460
C         -7.52270       -3.75510        1.67460
C         -7.07120       -2.51740        2.49520
C         -6.46550       -2.99640        3.81230
S         -7.37080       -4.50010        4.25040
C         -7.30380       -5.01460        2.51380
N         -6.07060       -1.79860        1.74070
N         -5.91140       -2.72720       -1.46970
S         -4.45440       -1.92020       -1.05720
C         -5.87600       -3.76110       -2.35820
C         -4.73060       -4.18340       -2.90690
N         -3.53680       -3.63150       -2.41090
C         -2.62640       -3.00250       -3.34640
C         -1.30260       -2.71030       -2.55060
N         -0.21290       -3.29940       -3.29240
C         -0.12470       -2.77360       -4.64150
C         -1.43090       -3.18180       -5.39390
C         -1.06620       -4.10320       -6.55410
S          0.58300       -3.58490       -7.09710
C          1.07140       -3.38710       -5.36130
N         -2.37210       -3.83220       -4.50530
N         -1.41800       -3.35290       -1.26040
S         -2.46850       -4.65680       -1.42170
C         -1.47570       -2.61370       -0.07900
C         -0.78700       -1.49920        0.15650
N         -0.88260       -0.68480        1.29610
C         -1.81030       -0.97910        2.35530
C         -1.07690       -1.82840        3.43400
N         -1.47820       -1.36660        4.74440
C         -2.89260       -1.08560        4.87740
C         -3.26810        0.06340        3.90670
C         -3.52360        1.32370        4.72190
S         -4.37060        0.73520        6.20830
C         -3.18720       -0.63740        6.31140
N         -2.17750        0.26390        2.98910
N          0.34160       -1.64860        3.18390
S          0.56590       -0.29520        2.09560
C          1.27180       -1.96640        4.13850
C          2.60340       -1.78880        4.03490
C          3.27230       -1.33070        2.85330
S          4.51930       -0.12230        2.92520
C          3.08950       -1.75280        1.54110
C          2.28770       -2.83520        1.10930
C          2.24650       -3.16620       -0.21340
O          1.54180       -4.20670       -0.74590
C          0.87150       -5.07100        0.13510
C          3.00300       -2.40340       -1.16680
O          2.91610       -2.72410       -2.51350
C          3.67210       -3.86970       -2.86200
C          3.81410       -1.38460       -0.76640
C          3.90490       -1.04710        0.60160
C          4.75080       -0.11720        1.20390
C          5.70910        0.72280        0.57510
C          6.57800        1.50790        1.23520
N          7.46840        2.36250        0.63130
C          8.57150        2.93510        1.41810
C          9.66390        3.34370        0.39470
N          9.48750        4.65780       -0.17880
C          9.21470        5.68070        0.80690
C          8.00320        5.32420        1.68670
C          6.75840        5.48290        0.80440
S          7.08890        6.89630       -0.30500
C          8.86930        6.98860        0.11900
N          8.19320        4.01590        2.27640
N          9.57740        2.30650       -0.59850
S          7.90650        2.18500       -1.02190
C         10.54550        2.07990       -1.55720
C         11.72160        2.68510       -1.64240
H         -3.00270        5.21510        1.19450
H         -1.33390        3.52220        1.73820
H         -1.04590        1.71730        0.13010
H         -3.04150        2.74460       -1.67370
H         -0.82760        3.19340       -3.01860
H          0.62510        3.26020       -1.05090
H          1.08490        5.91260       -1.28000
H          1.26410        4.86110       -2.70410
H         -2.61810        5.21450       -1.58120
H         -2.66180        4.76440       -3.31210
H          0.08920        4.88890        0.67320
H         -2.96950        0.13520       -0.51800
H         -5.60440        1.05270        0.77580
H         -7.41320       -0.73750        0.47210
H         -7.87660       -2.59990       -0.82710
H         -6.90990       -4.68590       -0.04060
H         -8.59980       -3.65040        1.44250
H         -7.95950       -1.89370        2.70990
H         -6.56040       -2.26990        4.61580
H         -5.41620       -3.25540        3.66080
H         -6.31170       -5.42180        2.31390
H         -8.05910       -5.77740        2.34290
H         -5.75490       -0.97890        2.25170
H         -6.83360       -4.17650       -2.63620
H         -4.69080       -4.92490       -3.68960
H         -3.08890       -2.06810       -3.68730
H         -1.19260       -1.62170       -2.39370
H          0.66660       -3.19630       -2.79410
H         -0.03300       -1.67210       -4.64650
H         -1.92150       -2.28290       -5.78430
H         -1.00800       -5.14140       -6.22290
H         -1.75960       -4.02680       -7.38660
H          1.28710       -4.37440       -4.95070
H          1.95690       -2.76060       -5.31010
H         -1.96010       -4.70500       -4.17400
H         -2.13690       -3.04900        0.65510
H         -0.08190       -1.09940       -0.55740
H         -2.68830       -1.51170        1.95000
H         -1.29840       -2.90650        3.27850
H         -1.18210       -2.01530        5.46520
H         -3.50880       -1.97180        4.63420
H         -4.20370       -0.21910        3.38420
H         -4.15060        2.04300        4.20140
H         -2.57870        1.78430        5.00990
H         -3.61720       -1.42420        6.92640
H         -2.27480       -0.25930        6.77480
H         -2.40960        0.95890        2.28460
H          0.86800       -2.38900        5.04810
H          3.20740       -1.96080        4.91390
H          1.73470       -3.38730        1.84990
H          0.36590       -5.80070       -0.49500
H          0.12710       -4.53720        0.73190
H          1.57710       -5.57920        0.80180
H          3.62410       -3.95390       -3.94570
H          3.25790       -4.77200       -2.40380
H          4.71640       -3.75340       -2.55270
H          4.39240       -0.85170       -1.50510
H          5.74130        0.70180       -0.50570
H          6.58080        1.55090        2.31650
H          8.97700        2.14080        2.06500
H         10.64460        3.30700        0.88410
H          8.73540        4.62990       -0.86580
H         10.11140        5.78630        1.42890
H          7.94770        6.03930        2.51580
H          6.57650        4.59680        0.19530
H          5.86420        5.69920        1.38630
H          9.02030        7.84090        0.78030
H          9.43640        7.12610       -0.79850
H          7.41170        3.75760        2.86760
H         10.26060        1.28570       -2.23420
H         12.44060        2.36770       -2.37370
H         12.00350        3.49410       -0.99420
