
  xtb     03042213053D
 energy: -196.124513273337 gnorm: 0.000606766660 xtb: 6.4.1 (unknown)
 96107  0     0  0            999 V2000
    2.2212   -3.6457   -1.8487 C   0  0  0  0  0  0  0  0  0  0  0  0
    1.6613   -2.8452   -3.2469 S   0  0  0  0  0  0  0  0  0  0  0  0
    2.3099   -2.8071   -0.7588 C   0  0  0  0  0  0  0  0  0  0  0  0
    2.7057   -3.1435    0.5570 C   0  0  0  0  0  0  0  0  0  0  0  0
    2.6465   -2.1992    1.5397 C   0  0  0  0  0  0  0  0  0  0  0  0
    2.9205   -2.4010    2.8528 O   0  0  0  0  0  0  0  0  0  0  0  0
    3.4438   -3.6492    3.2449 C   0  0  0  0  0  0  0  0  0  0  0  0
    2.2839   -0.8396    1.2190 C   0  0  0  0  0  0  0  0  0  0  0  0
    2.3365    0.0119    2.2721 O   0  0  0  0  0  0  0  0  0  0  0  0
    2.3569    1.3974    2.0187 C   0  0  0  0  0  0  0  0  0  0  0  0
    1.9461   -0.4893   -0.0613 C   0  0  0  0  0  0  0  0  0  0  0  0
    1.9211   -1.4689   -1.0720 C   0  0  0  0  0  0  0  0  0  0  0  0
    1.5417   -1.3173   -2.4162 C   0  0  0  0  0  0  0  0  0  0  0  0
    1.0763   -0.1473   -3.0284 C   0  0  0  0  0  0  0  0  0  0  0  0
    0.5526   -0.0122   -4.2826 C   0  0  0  0  0  0  0  0  0  0  0  0
   -0.0406    1.1901   -4.6998 C   0  0  0  0  0  0  0  0  0  0  0  0
    0.1138    2.6130   -3.7184 S   0  0  0  0  0  0  0  0  0  0  0  0
   -0.9440    1.4305   -5.7505 C   0  0  0  0  0  0  0  0  0  0  0  0
   -1.2874    0.5501   -6.7932 C   0  0  0  0  0  0  0  0  0  0  0  0
   -2.2331    0.9167   -7.7135 C   0  0  0  0  0  0  0  0  0  0  0  0
   -2.6412    0.1652   -8.7663 O   0  0  0  0  0  0  0  0  0  0  0  0
   -2.0710   -1.1087   -8.9369 C   0  0  0  0  0  0  0  0  0  0  0  0
   -2.8882    2.1926   -7.6105 C   0  0  0  0  0  0  0  0  0  0  0  0
   -3.7976    2.4304   -8.5841 O   0  0  0  0  0  0  0  0  0  0  0  0
   -4.4951    3.6512   -8.5684 C   0  0  0  0  0  0  0  0  0  0  0  0
   -2.5769    3.0507   -6.5874 C   0  0  0  0  0  0  0  0  0  0  0  0
   -1.5926    2.6942   -5.6481 C   0  0  0  0  0  0  0  0  0  0  0  0
   -1.2080    3.4182   -4.5055 C   0  0  0  0  0  0  0  0  0  0  0  0
   -1.7679    4.5868   -3.9469 C   0  0  0  0  0  0  0  0  0  0  0  0
   -1.8058    4.8916   -2.6132 C   0  0  0  0  0  0  0  0  0  0  0  0
   -1.6058    4.0141   -1.5206 C   0  0  0  0  0  0  0  0  0  0  0  0
   -1.8425    2.2659   -1.5944 S   0  0  0  0  0  0  0  0  0  0  0  0
   -1.4179    2.0373    0.0894 C   0  0  0  0  0  0  0  0  0  0  0  0
   -1.1882    3.2676    0.6708 C   0  0  0  0  0  0  0  0  0  0  0  0
   -1.3136    4.3602   -0.2098 C   0  0  0  0  0  0  0  0  0  0  0  0
   -1.0295    5.5859    0.5363 C   0  0  0  0  0  0  0  0  0  0  0  0
   -1.0266    6.7425    0.1999 O   0  0  0  0  0  0  0  0  0  0  0  0
   -0.7434    5.1384    1.8349 N   0  0  0  0  0  0  0  0  0  0  0  0
   -0.8068    3.7662    1.9933 C   0  0  0  0  0  0  0  0  0  0  0  0
   -0.5798    3.1579    3.0144 O   0  0  0  0  0  0  0  0  0  0  0  0
   -1.3092    0.7470    0.6527 C   0  0  0  0  0  0  0  0  0  0  0  0
   -0.9203    0.5082    2.3446 S   0  0  0  0  0  0  0  0  0  0  0  0
   -1.0003   -1.2355    2.1909 C   0  0  0  0  0  0  0  0  0  0  0  0
   -1.3538   -1.5860    0.9090 C   0  0  0  0  0  0  0  0  0  0  0  0
   -1.4871   -0.4804    0.0395 C   0  0  0  0  0  0  0  0  0  0  0  0
   -1.7880   -0.9793   -1.3044 C   0  0  0  0  0  0  0  0  0  0  0  0
   -1.9005   -0.3967   -2.3565 O   0  0  0  0  0  0  0  0  0  0  0  0
   -1.9194   -2.3516   -1.1371 N   0  0  0  0  0  0  0  0  0  0  0  0
   -1.7807   -2.7930    0.1763 C   0  0  0  0  0  0  0  0  0  0  0  0
   -2.0763   -3.8895    0.5683 O   0  0  0  0  0  0  0  0  0  0  0  0
   -0.6896   -2.0702    3.2969 C   0  0  0  0  0  0  0  0  0  0  0  0
   -0.8465   -1.4601    4.9292 S   0  0  0  0  0  0  0  0  0  0  0  0
   -0.3745   -2.9854    5.6301 C   0  0  0  0  0  0  0  0  0  0  0  0
   -0.1215   -3.8949    4.6359 C   0  0  0  0  0  0  0  0  0  0  0  0
   -0.2730   -3.3813    3.3256 C   0  0  0  0  0  0  0  0  0  0  0  0
    0.1413   -4.4336    2.3804 C   0  0  0  0  0  0  0  0  0  0  0  0
    0.3623   -4.3999    1.1999 O   0  0  0  0  0  0  0  0  0  0  0  0
    0.3455   -5.5524    3.1887 N   0  0  0  0  0  0  0  0  0  0  0  0
    0.1957   -5.3324    4.5502 C   0  0  0  0  0  0  0  0  0  0  0  0
    0.2694   -6.1729    5.4064 O   0  0  0  0  0  0  0  0  0  0  0  0
   -0.2364   -3.2091    7.0338 C   0  0  0  0  0  0  0  0  0  0  0  0
   -1.3547   -2.5796    8.2230 S   0  0  0  0  0  0  0  0  0  0  0  0
   -0.5517   -3.3882    9.5166 C   0  0  0  0  0  0  0  0  0  0  0  0
    0.5175   -4.0896    9.0601 C   0  0  0  0  0  0  0  0  0  0  0  0
    0.7068   -3.9829    7.6557 C   0  0  0  0  0  0  0  0  0  0  0  0
    1.9525   -4.6822    7.2977 C   0  0  0  0  0  0  0  0  0  0  0  0
    2.5577   -4.7328    6.2594 O   0  0  0  0  0  0  0  0  0  0  0  0
    2.3749   -5.2457    8.4962 N   0  0  0  0  0  0  0  0  0  0  0  0
    1.5917   -4.9458    9.6054 C   0  0  0  0  0  0  0  0  0  0  0  0
    1.8018   -5.3211   10.7259 O   0  0  0  0  0  0  0  0  0  0  0  0
    2.4364   -4.6945   -1.8877 H   0  0  0  0  0  0  0  0  0  0  0  0
    3.0165   -4.1550    0.7539 H   0  0  0  0  0  0  0  0  0  0  0  0
    3.4899   -3.6309    4.3320 H   0  0  0  0  0  0  0  0  0  0  0  0
    4.4459   -3.8013    2.8313 H   0  0  0  0  0  0  0  0  0  0  0  0
    2.8007   -4.4768    2.9365 H   0  0  0  0  0  0  0  0  0  0  0  0
    1.4140    1.7573    1.5983 H   0  0  0  0  0  0  0  0  0  0  0  0
    3.1780    1.6625    1.3448 H   0  0  0  0  0  0  0  0  0  0  0  0
    2.5073    1.8688    2.9878 H   0  0  0  0  0  0  0  0  0  0  0  0
    1.6879    0.5290   -0.3036 H   0  0  0  0  0  0  0  0  0  0  0  0
    1.0863    0.7325   -2.3977 H   0  0  0  0  0  0  0  0  0  0  0  0
    0.4854   -0.8726   -4.9328 H   0  0  0  0  0  0  0  0  0  0  0  0
   -0.7907   -0.4037   -6.8518 H   0  0  0  0  0  0  0  0  0  0  0  0
   -2.2716   -1.7564   -8.0772 H   0  0  0  0  0  0  0  0  0  0  0  0
   -2.5460   -1.5267   -9.8227 H   0  0  0  0  0  0  0  0  0  0  0  0
   -0.9900   -1.0467   -9.1004 H   0  0  0  0  0  0  0  0  0  0  0  0
   -3.8146    4.5038   -8.6625 H   0  0  0  0  0  0  0  0  0  0  0  0
   -5.1576    3.6220   -9.4317 H   0  0  0  0  0  0  0  0  0  0  0  0
   -5.0915    3.7615   -7.6570 H   0  0  0  0  0  0  0  0  0  0  0  0
   -3.0664    4.0054   -6.4900 H   0  0  0  0  0  0  0  0  0  0  0  0
   -2.1932    5.3045   -4.6382 H   0  0  0  0  0  0  0  0  0  0  0  0
   -2.0600    5.9035   -2.3238 H   0  0  0  0  0  0  0  0  0  0  0  0
   -0.5106    5.7702    2.5872 H   0  0  0  0  0  0  0  0  0  0  0  0
   -2.1888   -2.9682   -1.8899 H   0  0  0  0  0  0  0  0  0  0  0  0
    0.5855   -6.4566    2.8075 H   0  0  0  0  0  0  0  0  0  0  0  0
   -0.9176   -3.2893   10.5192 H   0  0  0  0  0  0  0  0  0  0  0  0
    3.2058   -5.8170    8.5608 H   0  0  0  0  0  0  0  0  0  0  0  0
  1  2  1  0  0  0  0
  1  3  2  0  0  0  0
  3  4  1  0  0  0  0
  4  5  2  0  0  0  0
  5  6  1  0  0  0  0
  6  7  1  0  0  0  0
  5  8  1  0  0  0  0
  8  9  1  0  0  0  0
  9 10  1  0  0  0  0
  8 11  2  0  0  0  0
 11 12  1  0  0  0  0
 12 13  2  0  0  0  0
 13 14  1  0  0  0  0
 14 15  2  0  0  0  0
 15 16  1  0  0  0  0
 16 17  1  0  0  0  0
 16 18  2  0  0  0  0
 18 19  1  0  0  0  0
 19 20  2  0  0  0  0
 20 21  1  0  0  0  0
 21 22  1  0  0  0  0
 20 23  1  0  0  0  0
 23 24  1  0  0  0  0
 24 25  1  0  0  0  0
 23 26  2  0  0  0  0
 26 27  1  0  0  0  0
 27 28  2  0  0  0  0
 28 29  1  0  0  0  0
 29 30  2  0  0  0  0
 30 31  1  0  0  0  0
 31 32  1  0  0  0  0
 32 33  1  0  0  0  0
 33 34  2  0  0  0  0
 34 35  1  0  0  0  0
 35 36  1  0  0  0  0
 36 37  2  0  0  0  0
 36 38  1  0  0  0  0
 38 39  1  0  0  0  0
 39 40  2  0  0  0  0
 33 41  1  0  0  0  0
 41 42  1  0  0  0  0
 42 43  1  0  0  0  0
 43 44  2  0  0  0  0
 44 45  1  0  0  0  0
 45 46  1  0  0  0  0
 46 47  2  0  0  0  0
 46 48  1  0  0  0  0
 48 49  1  0  0  0  0
 49 50  2  0  0  0  0
 43 51  1  0  0  0  0
 51 52  1  0  0  0  0
 52 53  1  0  0  0  0
 53 54  2  0  0  0  0
 54 55  1  0  0  0  0
 55 56  1  0  0  0  0
 56 57  2  0  0  0  0
 56 58  1  0  0  0  0
 58 59  1  0  0  0  0
 59 60  2  0  0  0  0
 53 61  1  0  0  0  0
 61 62  1  0  0  0  0
 62 63  1  0  0  0  0
 63 64  2  0  0  0  0
 64 65  1  0  0  0  0
 65 66  1  0  0  0  0
 66 67  2  0  0  0  0
 66 68  1  0  0  0  0
 68 69  1  0  0  0  0
 69 70  2  0  0  0  0
 13  2  1  0  0  0  0
 28 17  1  0  0  0  0
 35 31  2  0  0  0  0
 45 41  2  0  0  0  0
 55 51  2  0  0  0  0
 65 61  2  0  0  0  0
 12  3  1  0  0  0  0
 27 18  1  0  0  0  0
 39 34  1  0  0  0  0
 49 44  1  0  0  0  0
 59 54  1  0  0  0  0
 69 64  1  0  0  0  0
  1 71  1  0  0  0  0
  4 72  1  0  0  0  0
  7 73  1  0  0  0  0
  7 74  1  0  0  0  0
  7 75  1  0  0  0  0
 10 76  1  0  0  0  0
 10 77  1  0  0  0  0
 10 78  1  0  0  0  0
 11 79  1  0  0  0  0
 14 80  1  0  0  0  0
 15 81  1  0  0  0  0
 19 82  1  0  0  0  0
 22 83  1  0  0  0  0
 22 84  1  0  0  0  0
 22 85  1  0  0  0  0
 25 86  1  0  0  0  0
 25 87  1  0  0  0  0
 25 88  1  0  0  0  0
 26 89  1  0  0  0  0
 29 90  1  0  0  0  0
 30 91  1  0  0  0  0
 38 92  1  0  0  0  0
 48 93  1  0  0  0  0
 58 94  1  0  0  0  0
 63 95  1  0  0  0  0
 68 96  1  0  0  0  0
M  END
