
  xtb     03042219003D
 energy: -525.080205092849 gnorm: 0.000331472798 xtb: 6.4.1 (unknown)
302331  0     0  0            999 V2000
    0.8543   -4.4733   12.7098 C   0  0  0  0  0  0  0  0  0  0  0  0
    2.0098   -4.8182   12.1073 C   0  0  0  0  0  0  0  0  0  0  0  0
    1.8840   -4.9356   10.6907 C   0  0  0  0  0  0  0  0  0  0  0  0
    2.8730   -5.2726    9.7552 C   0  0  0  0  0  0  0  0  0  0  0  0
    4.2364   -5.6264   10.1714 C   0  0  0  0  0  0  0  0  0  0  0  0
    5.3509   -5.0123    9.6037 C   0  0  0  0  0  0  0  0  0  0  0  0
    6.6225   -5.3511   10.0127 C   0  0  0  0  0  0  0  0  0  0  0  0
    6.8393   -6.3241   10.9874 C   0  0  0  0  0  0  0  0  0  0  0  0
    8.5208   -6.6969   11.3864 S   0  0  0  0  0  0  0  0  0  0  0  0
    8.5047   -7.0381   13.1855 C   0  0  0  0  0  0  0  0  0  0  0  0
    7.9705   -5.8657   13.9833 C   0  0  0  0  0  0  0  0  0  0  0  0
    5.7181   -6.9547   11.5180 C   0  0  0  0  0  0  0  0  0  0  0  0
    5.8414   -7.9427   12.4336 F   0  0  0  0  0  0  0  0  0  0  0  0
    4.4381   -6.6070   11.1371 C   0  0  0  0  0  0  0  0  0  0  0  0
    2.4916   -5.2780    8.4216 C   0  0  0  0  0  0  0  0  0  0  0  0
    1.1674   -5.0140    7.9895 C   0  0  0  0  0  0  0  0  0  0  0  0
    0.1778   -4.6778    8.9270 C   0  0  0  0  0  0  0  0  0  0  0  0
   -1.2038   -4.3835    8.5280 C   0  0  0  0  0  0  0  0  0  0  0  0
   -1.8384   -3.2175    8.9567 C   0  0  0  0  0  0  0  0  0  0  0  0
   -3.1311   -2.9430    8.5752 C   0  0  0  0  0  0  0  0  0  0  0  0
   -3.8592   -3.8135    7.7597 C   0  0  0  0  0  0  0  0  0  0  0  0
   -5.4772   -3.2439    7.3516 S   0  0  0  0  0  0  0  0  0  0  0  0
   -6.3613   -4.6011    6.4933 C   0  0  0  0  0  0  0  0  0  0  0  0
   -6.0857   -4.6384    5.0042 C   0  0  0  0  0  0  0  0  0  0  0  0
   -3.2216   -4.9844    7.3629 C   0  0  0  0  0  0  0  0  0  0  0  0
   -1.9194   -5.2654    7.7291 C   0  0  0  0  0  0  0  0  0  0  0  0
   -3.8456   -5.9155    6.6093 F   0  0  0  0  0  0  0  0  0  0  0  0
    0.5717   -4.6317   10.2574 C   0  0  0  0  0  0  0  0  0  0  0  0
   -0.4648   -4.2554   11.6110 S   0  0  0  0  0  0  0  0  0  0  0  0
    1.0439   -5.1096    6.5778 C   0  0  0  0  0  0  0  0  0  0  0  0
    2.2094   -5.4333    5.9519 C   0  0  0  0  0  0  0  0  0  0  0  0
    3.5389   -5.6455    7.0765 S   0  0  0  0  0  0  0  0  0  0  0  0
    2.4414   -5.5731    4.5492 C   0  0  0  0  0  0  0  0  0  0  0  0
    3.6354   -5.5268    3.8934 C   0  0  0  0  0  0  0  0  0  0  0  0
    3.5163   -5.6269    2.4832 C   0  0  0  0  0  0  0  0  0  0  0  0
    4.5252   -5.4673    1.5158 C   0  0  0  0  0  0  0  0  0  0  0  0
    5.9322   -5.2760    1.8868 C   0  0  0  0  0  0  0  0  0  0  0  0
    6.6826   -4.2427    1.3341 C   0  0  0  0  0  0  0  0  0  0  0  0
    8.0180   -4.0765    1.6457 C   0  0  0  0  0  0  0  0  0  0  0  0
    8.6545   -4.9402    2.5287 C   0  0  0  0  0  0  0  0  0  0  0  0
   10.3501   -4.8758    2.9967 S   0  0  0  0  0  0  0  0  0  0  0  0
   11.0105   -3.4126    2.1259 C   0  0  0  0  0  0  0  0  0  0  0  0
   10.6370   -2.1094    2.8080 C   0  0  0  0  0  0  0  0  0  0  0  0
    7.8870   -5.9675    3.0843 C   0  0  0  0  0  0  0  0  0  0  0  0
    8.4729   -6.8257    3.9424 F   0  0  0  0  0  0  0  0  0  0  0  0
    6.5566   -6.1447    2.7808 C   0  0  0  0  0  0  0  0  0  0  0  0
    4.1184   -5.4673    0.1892 C   0  0  0  0  0  0  0  0  0  0  0  0
    2.7748   -5.6772   -0.2036 C   0  0  0  0  0  0  0  0  0  0  0  0
    1.7638   -5.8195    0.7604 C   0  0  0  0  0  0  0  0  0  0  0  0
    0.3565   -5.8822    0.3500 C   0  0  0  0  0  0  0  0  0  0  0  0
   -0.1409   -4.9129   -0.5169 C   0  0  0  0  0  0  0  0  0  0  0  0
   -1.4508   -4.9325   -0.9485 C   0  0  0  0  0  0  0  0  0  0  0  0
   -2.3165   -5.9375   -0.5321 C   0  0  0  0  0  0  0  0  0  0  0  0
   -4.0018   -6.0739   -1.0128 S   0  0  0  0  0  0  0  0  0  0  0  0
   -4.1682   -4.9083   -2.4110 C   0  0  0  0  0  0  0  0  0  0  0  0
   -3.4606   -5.3903   -3.6620 C   0  0  0  0  0  0  0  0  0  0  0  0
   -1.8129   -6.8913    0.3570 C   0  0  0  0  0  0  0  0  0  0  0  0
   -0.5086   -6.8748    0.8032 C   0  0  0  0  0  0  0  0  0  0  0  0
   -2.6282   -7.8703    0.7933 F   0  0  0  0  0  0  0  0  0  0  0  0
    2.1634   -5.7831    2.0858 C   0  0  0  0  0  0  0  0  0  0  0  0
    1.0896   -5.7935    3.4594 S   0  0  0  0  0  0  0  0  0  0  0  0
    2.6187   -5.6387   -1.6104 C   0  0  0  0  0  0  0  0  0  0  0  0
    3.7649   -5.3319   -2.2810 C   0  0  0  0  0  0  0  0  0  0  0  0
    5.1397   -5.1824   -1.2028 S   0  0  0  0  0  0  0  0  0  0  0  0
    3.8342   -4.9123   -3.6433 C   0  0  0  0  0  0  0  0  0  0  0  0
    4.7684   -4.1050   -4.2200 C   0  0  0  0  0  0  0  0  0  0  0  0
    4.3453   -3.5380   -5.4517 C   0  0  0  0  0  0  0  0  0  0  0  0
    4.9418   -2.4614   -6.1340 C   0  0  0  0  0  0  0  0  0  0  0  0
    6.2738   -1.9981   -5.7245 C   0  0  0  0  0  0  0  0  0  0  0  0
    7.3257   -2.9102   -5.6447 C   0  0  0  0  0  0  0  0  0  0  0  0
    8.5707   -2.5118   -5.2064 C   0  0  0  0  0  0  0  0  0  0  0  0
    8.8087   -1.1949   -4.8259 C   0  0  0  0  0  0  0  0  0  0  0  0
   10.4331   -0.7551   -4.2628 S   0  0  0  0  0  0  0  0  0  0  0  0
   10.0621    0.0357   -2.6525 C   0  0  0  0  0  0  0  0  0  0  0  0
    9.4381   -0.9452   -1.6787 C   0  0  0  0  0  0  0  0  0  0  0  0
    7.7618   -0.2871   -4.9454 C   0  0  0  0  0  0  0  0  0  0  0  0
    7.9423    1.0102   -4.6207 F   0  0  0  0  0  0  0  0  0  0  0  0
    6.5085   -0.6721   -5.3783 C   0  0  0  0  0  0  0  0  0  0  0  0
    4.1758   -1.8472   -7.1124 C   0  0  0  0  0  0  0  0  0  0  0  0
    2.9020   -2.3322   -7.5062 C   0  0  0  0  0  0  0  0  0  0  0  0
    2.3164   -3.4264   -6.8491 C   0  0  0  0  0  0  0  0  0  0  0  0
    0.9263   -3.8412   -7.0776 C   0  0  0  0  0  0  0  0  0  0  0  0
   -0.1206   -2.9176   -7.0421 C   0  0  0  0  0  0  0  0  0  0  0  0
   -1.4283   -3.3298   -7.1485 C   0  0  0  0  0  0  0  0  0  0  0  0
   -1.7597   -4.6780   -7.3123 C   0  0  0  0  0  0  0  0  0  0  0  0
   -3.4792   -5.0207   -7.4399 S   0  0  0  0  0  0  0  0  0  0  0  0
   -3.6565   -6.8331   -7.1973 C   0  0  0  0  0  0  0  0  0  0  0  0
   -5.1242   -7.1409   -6.9715 C   0  0  0  0  0  0  0  0  0  0  0  0
   -0.7046   -5.5837   -7.3762 C   0  0  0  0  0  0  0  0  0  0  0  0
    0.6106   -5.1840   -7.2433 C   0  0  0  0  0  0  0  0  0  0  0  0
   -0.9173   -6.9061   -7.5756 F   0  0  0  0  0  0  0  0  0  0  0  0
    3.0569   -3.9895   -5.8223 C   0  0  0  0  0  0  0  0  0  0  0  0
    2.4326   -5.1476   -4.6755 S   0  0  0  0  0  0  0  0  0  0  0  0
    2.2801   -1.4841   -8.4513 C   0  0  0  0  0  0  0  0  0  0  0  0
    2.9681   -0.3293   -8.6919 C   0  0  0  0  0  0  0  0  0  0  0  0
    4.5410   -0.3329   -7.9113 S   0  0  0  0  0  0  0  0  0  0  0  0
    2.3387    0.8797   -9.1239 C   0  0  0  0  0  0  0  0  0  0  0  0
    2.6332    2.1476   -8.7126 C   0  0  0  0  0  0  0  0  0  0  0  0
    1.5004    3.0069   -8.6801 C   0  0  0  0  0  0  0  0  0  0  0  0
    1.4117    4.2379   -7.9994 C   0  0  0  0  0  0  0  0  0  0  0  0
    2.6364    4.9628   -7.6490 C   0  0  0  0  0  0  0  0  0  0  0  0
    3.6195    5.1465   -8.6202 C   0  0  0  0  0  0  0  0  0  0  0  0
    4.7868    5.8304   -8.3443 C   0  0  0  0  0  0  0  0  0  0  0  0
    5.0213    6.3546   -7.0776 C   0  0  0  0  0  0  0  0  0  0  0  0
    6.4630    7.2269   -6.5716 S   0  0  0  0  0  0  0  0  0  0  0  0
    7.3618    7.5609   -8.1253 C   0  0  0  0  0  0  0  0  0  0  0  0
    6.6916    8.6354   -8.9606 C   0  0  0  0  0  0  0  0  0  0  0  0
    4.0367    6.1465   -6.1090 C   0  0  0  0  0  0  0  0  0  0  0  0
    4.2402    6.6164   -4.8621 F   0  0  0  0  0  0  0  0  0  0  0  0
    2.8665    5.4724   -6.3724 C   0  0  0  0  0  0  0  0  0  0  0  0
    0.1330    4.6231   -7.6134 C   0  0  0  0  0  0  0  0  0  0  0  0
   -1.0287    3.9284   -8.0290 C   0  0  0  0  0  0  0  0  0  0  0  0
   -0.9456    2.8227   -8.8895 C   0  0  0  0  0  0  0  0  0  0  0  0
   -2.1632    2.1393   -9.3461 C   0  0  0  0  0  0  0  0  0  0  0  0
   -3.1502    2.8544  -10.0175 C   0  0  0  0  0  0  0  0  0  0  0  0
   -4.3002    2.2364  -10.4707 C   0  0  0  0  0  0  0  0  0  0  0  0
   -4.5133    0.8803  -10.2495 C   0  0  0  0  0  0  0  0  0  0  0  0
   -5.9098   -0.0470  -10.7860 S   0  0  0  0  0  0  0  0  0  0  0  0
   -7.0927    1.2118  -11.3780 C   0  0  0  0  0  0  0  0  0  0  0  0
   -7.7327    1.9848  -10.2401 C   0  0  0  0  0  0  0  0  0  0  0  0
   -3.5215    0.1795   -9.5587 C   0  0  0  0  0  0  0  0  0  0  0  0
   -2.3671    0.7809   -9.1126 C   0  0  0  0  0  0  0  0  0  0  0  0
   -3.6979   -1.1325   -9.3149 F   0  0  0  0  0  0  0  0  0  0  0  0
    0.3311    2.3476   -9.1319 C   0  0  0  0  0  0  0  0  0  0  0  0
    0.7018    0.7614   -9.7593 S   0  0  0  0  0  0  0  0  0  0  0  0
   -2.1614    4.2599   -7.2393 C   0  0  0  0  0  0  0  0  0  0  0  0
   -1.8950    5.1534   -6.2510 C   0  0  0  0  0  0  0  0  0  0  0  0
   -0.2661    5.8053   -6.3819 S   0  0  0  0  0  0  0  0  0  0  0  0
   -2.5778    5.1445   -4.9764 C   0  0  0  0  0  0  0  0  0  0  0  0
   -2.6851    3.9583   -4.3187 C   0  0  0  0  0  0  0  0  0  0  0  0
   -3.1961    4.0708   -3.0040 C   0  0  0  0  0  0  0  0  0  0  0  0
   -3.2570    3.0573   -2.0362 C   0  0  0  0  0  0  0  0  0  0  0  0
   -2.7918    1.6997   -2.3536 C   0  0  0  0  0  0  0  0  0  0  0  0
   -1.7981    1.0970   -1.5868 C   0  0  0  0  0  0  0  0  0  0  0  0
   -1.2715   -0.1304   -1.9391 C   0  0  0  0  0  0  0  0  0  0  0  0
   -1.7153   -0.7969   -3.0749 C   0  0  0  0  0  0  0  0  0  0  0  0
   -1.0846   -2.3566   -3.6283 S   0  0  0  0  0  0  0  0  0  0  0  0
    0.6685   -2.3005   -3.1227 C   0  0  0  0  0  0  0  0  0  0  0  0
    1.4563   -1.2388   -3.8631 C   0  0  0  0  0  0  0  0  0  0  0  0
   -2.7462   -0.2074   -3.8058 C   0  0  0  0  0  0  0  0  0  0  0  0
   -3.2231   -0.8379   -4.8969 F   0  0  0  0  0  0  0  0  0  0  0  0
   -3.2807    1.0167   -3.4652 C   0  0  0  0  0  0  0  0  0  0  0  0
   -3.6821    3.4401   -0.7764 C   0  0  0  0  0  0  0  0  0  0  0  0
   -4.0716    4.7659   -0.4560 C   0  0  0  0  0  0  0  0  0  0  0  0
   -3.9712    5.7849   -1.4211 C   0  0  0  0  0  0  0  0  0  0  0  0
   -4.2798    7.1826   -1.1027 C   0  0  0  0  0  0  0  0  0  0  0  0
   -5.0944    7.9415   -1.9379 C   0  0  0  0  0  0  0  0  0  0  0  0
   -5.3801    9.2623   -1.6526 C   0  0  0  0  0  0  0  0  0  0  0  0
   -4.8465    9.8796   -0.5269 C   0  0  0  0  0  0  0  0  0  0  0  0
   -5.1336   11.5460   -0.0379 S   0  0  0  0  0  0  0  0  0  0  0  0
   -5.8342   12.3349   -1.5279 C   0  0  0  0  0  0  0  0  0  0  0  0
   -4.8088   12.4869   -2.6354 C   0  0  0  0  0  0  0  0  0  0  0  0
   -4.0318    9.1058    0.3026 C   0  0  0  0  0  0  0  0  0  0  0  0
   -3.7470    7.7866    0.0354 C   0  0  0  0  0  0  0  0  0  0  0  0
   -3.4965    9.6692    1.4043 F   0  0  0  0  0  0  0  0  0  0  0  0
   -3.5220    5.4081   -2.6809 C   0  0  0  0  0  0  0  0  0  0  0  0
   -3.1561    6.4840   -4.0173 S   0  0  0  0  0  0  0  0  0  0  0  0
   -4.5182    4.8652    0.8896 C   0  0  0  0  0  0  0  0  0  0  0  0
   -4.4351    3.6948    1.5813 C   0  0  0  0  0  0  0  0  0  0  0  0
   -3.8292    2.3773    0.5935 S   0  0  0  0  0  0  0  0  0  0  0  0
   -4.7306    3.4300    2.9519 C   0  0  0  0  0  0  0  0  0  0  0  0
   -4.4468    2.2798    3.6246 C   0  0  0  0  0  0  0  0  0  0  0  0
   -4.8266    2.3072    4.9896 C   0  0  0  0  0  0  0  0  0  0  0  0
   -4.6218    1.3127    5.9589 C   0  0  0  0  0  0  0  0  0  0  0  0
   -4.0139    0.0289    5.5911 C   0  0  0  0  0  0  0  0  0  0  0  0
   -2.9063   -0.4740    6.2685 C   0  0  0  0  0  0  0  0  0  0  0  0
   -2.3092   -1.6477    5.8603 C   0  0  0  0  0  0  0  0  0  0  0  0
   -2.8049   -2.3777    4.7826 C   0  0  0  0  0  0  0  0  0  0  0  0
   -1.9869   -3.8940    4.3810 S   0  0  0  0  0  0  0  0  0  0  0  0
   -1.9923   -3.9246    2.5546 C   0  0  0  0  0  0  0  0  0  0  0  0
   -1.3128   -2.7044    1.9682 C   0  0  0  0  0  0  0  0  0  0  0  0
   -3.9351   -1.8827    4.1395 C   0  0  0  0  0  0  0  0  0  0  0  0
   -4.4930   -2.5420    3.1004 F   0  0  0  0  0  0  0  0  0  0  0  0
   -4.5256   -0.6963    4.5200 C   0  0  0  0  0  0  0  0  0  0  0  0
   -5.0177    1.6163    7.2524 C   0  0  0  0  0  0  0  0  0  0  0  0
   -5.6238    2.8469    7.6054 C   0  0  0  0  0  0  0  0  0  0  0  0
   -5.8259    3.8407    6.6362 C   0  0  0  0  0  0  0  0  0  0  0  0
   -6.4211    5.1409    6.9701 C   0  0  0  0  0  0  0  0  0  0  0  0
   -5.9056    5.9212    8.0004 C   0  0  0  0  0  0  0  0  0  0  0  0
   -6.4462    7.1570    8.2991 C   0  0  0  0  0  0  0  0  0  0  0  0
   -7.5243    7.6563    7.5769 C   0  0  0  0  0  0  0  0  0  0  0  0
   -8.3208    9.1999    7.8728 S   0  0  0  0  0  0  0  0  0  0  0  0
   -7.0889   10.1567    8.8231 C   0  0  0  0  0  0  0  0  0  0  0  0
   -5.8720   10.5122    7.9907 C   0  0  0  0  0  0  0  0  0  0  0  0
   -8.0387    6.8564    6.5550 C   0  0  0  0  0  0  0  0  0  0  0  0
   -7.5049    5.6267    6.2425 C   0  0  0  0  0  0  0  0  0  0  0  0
   -9.0960    7.2986    5.8464 F   0  0  0  0  0  0  0  0  0  0  0  0
   -5.4203    3.5426    5.3437 C   0  0  0  0  0  0  0  0  0  0  0  0
   -5.4988    4.6269    3.9756 S   0  0  0  0  0  0  0  0  0  0  0  0
   -5.9960    2.8694    8.9827 C   0  0  0  0  0  0  0  0  0  0  0  0
   -5.6765    1.7315    9.6314 C   0  0  0  0  0  0  0  0  0  0  0  0
   -4.9061    0.5508    8.6276 S   0  0  0  0  0  0  0  0  0  0  0  0
    0.6775   -4.3198   13.7565 H   0  0  0  0  0  0  0  0  0  0  0  0
    2.9335   -4.9748   12.6340 H   0  0  0  0  0  0  0  0  0  0  0  0
    5.2171   -4.2451    8.8570 H   0  0  0  0  0  0  0  0  0  0  0  0
    7.4826   -4.8638    9.5807 H   0  0  0  0  0  0  0  0  0  0  0  0
    7.9409   -7.9495   13.3709 H   0  0  0  0  0  0  0  0  0  0  0  0
    9.5557   -7.2195   13.4110 H   0  0  0  0  0  0  0  0  0  0  0  0
    8.5315   -4.9616   13.7558 H   0  0  0  0  0  0  0  0  0  0  0  0
    6.9211   -5.6873   13.7562 H   0  0  0  0  0  0  0  0  0  0  0  0
    8.0600   -6.0755   15.0473 H   0  0  0  0  0  0  0  0  0  0  0  0
    3.6049   -7.1363   11.5736 H   0  0  0  0  0  0  0  0  0  0  0  0
   -1.3048   -2.5111    9.5736 H   0  0  0  0  0  0  0  0  0  0  0  0
   -3.6131   -2.0329    8.8966 H   0  0  0  0  0  0  0  0  0  0  0  0
   -7.4104   -4.3732    6.6873 H   0  0  0  0  0  0  0  0  0  0  0  0
   -6.1087   -5.5368    6.9848 H   0  0  0  0  0  0  0  0  0  0  0  0
   -6.3696   -3.6963    4.5416 H   0  0  0  0  0  0  0  0  0  0  0  0
   -5.0343   -4.8251    4.8048 H   0  0  0  0  0  0  0  0  0  0  0  0
   -6.6641   -5.4386    4.5473 H   0  0  0  0  0  0  0  0  0  0  0  0
   -1.4852   -6.1950    7.3959 H   0  0  0  0  0  0  0  0  0  0  0  0
    0.1299   -4.9180    6.0434 H   0  0  0  0  0  0  0  0  0  0  0  0
    4.5691   -5.3781    4.4056 H   0  0  0  0  0  0  0  0  0  0  0  0
    6.2135   -3.5415    0.6612 H   0  0  0  0  0  0  0  0  0  0  0  0
    8.5570   -3.2653    1.1848 H   0  0  0  0  0  0  0  0  0  0  0  0
   12.0895   -3.5642    2.1539 H   0  0  0  0  0  0  0  0  0  0  0  0
   10.6818   -3.4528    1.0883 H   0  0  0  0  0  0  0  0  0  0  0  0
   11.0723   -1.2708    2.2674 H   0  0  0  0  0  0  0  0  0  0  0  0
   11.0157   -2.0997    3.8271 H   0  0  0  0  0  0  0  0  0  0  0  0
    9.5578   -1.9784    2.8450 H   0  0  0  0  0  0  0  0  0  0  0  0
    6.0229   -6.9729    3.2199 H   0  0  0  0  0  0  0  0  0  0  0  0
    0.5112   -4.1162   -0.8394 H   0  0  0  0  0  0  0  0  0  0  0  0
   -1.7916   -4.1573   -1.6147 H   0  0  0  0  0  0  0  0  0  0  0  0
   -3.8275   -3.9239   -2.0935 H   0  0  0  0  0  0  0  0  0  0  0  0
   -5.2458   -4.8648   -2.5702 H   0  0  0  0  0  0  0  0  0  0  0  0
   -2.3865   -5.4642   -3.5056 H   0  0  0  0  0  0  0  0  0  0  0  0
   -3.8370   -6.3702   -3.9465 H   0  0  0  0  0  0  0  0  0  0  0  0
   -3.6390   -4.6901   -4.4756 H   0  0  0  0  0  0  0  0  0  0  0  0
   -0.1724   -7.6448    1.4795 H   0  0  0  0  0  0  0  0  0  0  0  0
    1.6793   -5.7966   -2.1093 H   0  0  0  0  0  0  0  0  0  0  0  0
    5.6884   -3.8421   -3.7287 H   0  0  0  0  0  0  0  0  0  0  0  0
    7.1600   -3.9377   -5.9311 H   0  0  0  0  0  0  0  0  0  0  0  0
    9.3819   -3.2200   -5.1412 H   0  0  0  0  0  0  0  0  0  0  0  0
   11.0354    0.3755   -2.3000 H   0  0  0  0  0  0  0  0  0  0  0  0
    9.4255    0.9008   -2.8243 H   0  0  0  0  0  0  0  0  0  0  0  0
    9.2893   -0.4622   -0.7144 H   0  0  0  0  0  0  0  0  0  0  0  0
   10.0864   -1.8088   -1.5440 H   0  0  0  0  0  0  0  0  0  0  0  0
    8.4729   -1.2925   -2.0446 H   0  0  0  0  0  0  0  0  0  0  0  0
    5.7246    0.0673   -5.4273 H   0  0  0  0  0  0  0  0  0  0  0  0
    0.0905   -1.8701   -6.8881 H   0  0  0  0  0  0  0  0  0  0  0  0
   -2.2336   -2.6139   -7.0955 H   0  0  0  0  0  0  0  0  0  0  0  0
   -3.0580   -7.1119   -6.3321 H   0  0  0  0  0  0  0  0  0  0  0  0
   -3.2828   -7.3386   -8.0860 H   0  0  0  0  0  0  0  0  0  0  0  0
   -5.4963   -6.6122   -6.0969 H   0  0  0  0  0  0  0  0  0  0  0  0
   -5.2557   -8.2098   -6.8181 H   0  0  0  0  0  0  0  0  0  0  0  0
   -5.7143   -6.8366   -7.8328 H   0  0  0  0  0  0  0  0  0  0  0  0
    1.3833   -5.9355   -7.2968 H   0  0  0  0  0  0  0  0  0  0  0  0
    1.3108   -1.6819   -8.8712 H   0  0  0  0  0  0  0  0  0  0  0  0
    3.5855    2.4161   -8.2899 H   0  0  0  0  0  0  0  0  0  0  0  0
    3.4587    4.7599   -9.6156 H   0  0  0  0  0  0  0  0  0  0  0  0
    5.5175    5.9452   -9.1281 H   0  0  0  0  0  0  0  0  0  0  0  0
    7.4837    6.6235   -8.6663 H   0  0  0  0  0  0  0  0  0  0  0  0
    8.3425    7.8927   -7.7843 H   0  0  0  0  0  0  0  0  0  0  0  0
    7.2778    8.8265   -9.8575 H   0  0  0  0  0  0  0  0  0  0  0  0
    6.6161    9.5588   -8.3913 H   0  0  0  0  0  0  0  0  0  0  0  0
    5.6891    8.3345   -9.2573 H   0  0  0  0  0  0  0  0  0  0  0  0
    2.1595    5.3303   -5.5716 H   0  0  0  0  0  0  0  0  0  0  0  0
   -3.0063    3.9084  -10.2040 H   0  0  0  0  0  0  0  0  0  0  0  0
   -5.0269    2.8245  -11.0069 H   0  0  0  0  0  0  0  0  0  0  0  0
   -6.5855    1.8594  -12.0919 H   0  0  0  0  0  0  0  0  0  0  0  0
   -7.8396    0.6257  -11.9134 H   0  0  0  0  0  0  0  0  0  0  0  0
   -8.4537    2.6976  -10.6358 H   0  0  0  0  0  0  0  0  0  0  0  0
   -6.9857    2.5280   -9.6652 H   0  0  0  0  0  0  0  0  0  0  0  0
   -8.2497    1.3027   -9.5694 H   0  0  0  0  0  0  0  0  0  0  0  0
   -1.6512    0.1887   -8.5662 H   0  0  0  0  0  0  0  0  0  0  0  0
   -3.1048    3.7521   -7.3328 H   0  0  0  0  0  0  0  0  0  0  0  0
   -2.3379    3.0334   -4.7421 H   0  0  0  0  0  0  0  0  0  0  0  0
   -1.4132    1.6059   -0.7166 H   0  0  0  0  0  0  0  0  0  0  0  0
   -0.4990   -0.5644   -1.3240 H   0  0  0  0  0  0  0  0  0  0  0  0
    1.0307   -3.2979   -3.3707 H   0  0  0  0  0  0  0  0  0  0  0  0
    0.7235   -2.1611   -2.0439 H   0  0  0  0  0  0  0  0  0  0  0  0
    1.4012   -1.4050   -4.9361 H   0  0  0  0  0  0  0  0  0  0  0  0
    2.5022   -1.2826   -3.5633 H   0  0  0  0  0  0  0  0  0  0  0  0
    1.0716   -0.2445   -3.6419 H   0  0  0  0  0  0  0  0  0  0  0  0
   -4.0763    1.4288   -4.0663 H   0  0  0  0  0  0  0  0  0  0  0  0
   -5.5320    7.4866   -2.8134 H   0  0  0  0  0  0  0  0  0  0  0  0
   -6.0330    9.8062   -2.3154 H   0  0  0  0  0  0  0  0  0  0  0  0
   -6.1621   13.3097   -1.1669 H   0  0  0  0  0  0  0  0  0  0  0  0
   -6.7110   11.7710   -1.8437 H   0  0  0  0  0  0  0  0  0  0  0  0
   -5.2581   12.9912   -3.4888 H   0  0  0  0  0  0  0  0  0  0  0  0
   -3.9656   13.0783   -2.2862 H   0  0  0  0  0  0  0  0  0  0  0  0
   -4.4357   11.5181   -2.9606 H   0  0  0  0  0  0  0  0  0  0  0  0
   -3.0871    7.2474    0.6968 H   0  0  0  0  0  0  0  0  0  0  0  0
   -4.8939    5.7706    1.3314 H   0  0  0  0  0  0  0  0  0  0  0  0
   -3.9505    1.4466    3.1601 H   0  0  0  0  0  0  0  0  0  0  0  0
   -2.4908    0.0751    7.0990 H   0  0  0  0  0  0  0  0  0  0  0  0
   -1.4362   -2.0225    6.3710 H   0  0  0  0  0  0  0  0  0  0  0  0
   -1.4381   -4.8321    2.3186 H   0  0  0  0  0  0  0  0  0  0  0  0
   -3.0154   -4.0337    2.2023 H   0  0  0  0  0  0  0  0  0  0  0  0
   -0.2872   -2.6334    2.3256 H   0  0  0  0  0  0  0  0  0  0  0  0
   -1.8407   -1.7924    2.2423 H   0  0  0  0  0  0  0  0  0  0  0  0
   -1.3028   -2.7835    0.8835 H   0  0  0  0  0  0  0  0  0  0  0  0
   -5.4050   -0.3614    3.9916 H   0  0  0  0  0  0  0  0  0  0  0  0
   -5.0556    5.5651    8.5631 H   0  0  0  0  0  0  0  0  0  0  0  0
   -6.0205    7.7292    9.1075 H   0  0  0  0  0  0  0  0  0  0  0  0
   -6.8313    9.6023    9.7247 H   0  0  0  0  0  0  0  0  0  0  0  0
   -7.6363   11.0532    9.1138 H   0  0  0  0  0  0  0  0  0  0  0  0
   -6.1708   11.0802    7.1130 H   0  0  0  0  0  0  0  0  0  0  0  0
   -5.1844   11.1164    8.5795 H   0  0  0  0  0  0  0  0  0  0  0  0
   -5.3506    9.6174    7.6571 H   0  0  0  0  0  0  0  0  0  0  0  0
   -7.9465    5.0498    5.4454 H   0  0  0  0  0  0  0  0  0  0  0  0
   -6.4963    3.7012    9.4443 H   0  0  0  0  0  0  0  0  0  0  0  0
   -5.8460    1.4916   10.6629 H   0  0  0  0  0  0  0  0  0  0  0  0
  1  2  2  0  0  0  0
  2  3  1  0  0  0  0
  3  4  2  0  0  0  0
  4  5  1  0  0  0  0
  5  6  2  0  0  0  0
  6  7  1  0  0  0  0
  7  8  2  0  0  0  0
  8  9  1  0  0  0  0
  9 10  1  0  0  0  0
 10 11  1  0  0  0  0
  8 12  1  0  0  0  0
 12 13  1  0  0  0  0
 12 14  2  0  0  0  0
  4 15  1  0  0  0  0
 15 16  2  0  0  0  0
 16 17  1  0  0  0  0
 17 18  1  0  0  0  0
 18 19  2  0  0  0  0
 19 20  1  0  0  0  0
 20 21  2  0  0  0  0
 21 22  1  0  0  0  0
 22 23  1  0  0  0  0
 23 24  1  0  0  0  0
 21 25  1  0  0  0  0
 25 26  2  0  0  0  0
 25 27  1  0  0  0  0
 17 28  2  0  0  0  0
 28 29  1  0  0  0  0
 16 30  1  0  0  0  0
 30 31  2  0  0  0  0
 31 32  1  0  0  0  0
 31 33  1  0  0  0  0
 33 34  2  0  0  0  0
 34 35  1  0  0  0  0
 35 36  2  0  0  0  0
 36 37  1  0  0  0  0
 37 38  2  0  0  0  0
 38 39  1  0  0  0  0
 39 40  2  0  0  0  0
 40 41  1  0  0  0  0
 41 42  1  0  0  0  0
 42 43  1  0  0  0  0
 40 44  1  0  0  0  0
 44 45  1  0  0  0  0
 44 46  2  0  0  0  0
 36 47  1  0  0  0  0
 47 48  2  0  0  0  0
 48 49  1  0  0  0  0
 49 50  1  0  0  0  0
 50 51  2  0  0  0  0
 51 52  1  0  0  0  0
 52 53  2  0  0  0  0
 53 54  1  0  0  0  0
 54 55  1  0  0  0  0
 55 56  1  0  0  0  0
 53 57  1  0  0  0  0
 57 58  2  0  0  0  0
 57 59  1  0  0  0  0
 49 60  2  0  0  0  0
 60 61  1  0  0  0  0
 48 62  1  0  0  0  0
 62 63  2  0  0  0  0
 63 64  1  0  0  0  0
 63 65  1  0  0  0  0
 65 66  2  0  0  0  0
 66 67  1  0  0  0  0
 67 68  2  0  0  0  0
 68 69  1  0  0  0  0
 69 70  2  0  0  0  0
 70 71  1  0  0  0  0
 71 72  2  0  0  0  0
 72 73  1  0  0  0  0
 73 74  1  0  0  0  0
 74 75  1  0  0  0  0
 72 76  1  0  0  0  0
 76 77  1  0  0  0  0
 76 78  2  0  0  0  0
 68 79  1  0  0  0  0
 79 80  2  0  0  0  0
 80 81  1  0  0  0  0
 81 82  1  0  0  0  0
 82 83  2  0  0  0  0
 83 84  1  0  0  0  0
 84 85  2  0  0  0  0
 85 86  1  0  0  0  0
 86 87  1  0  0  0  0
 87 88  1  0  0  0  0
 85 89  1  0  0  0  0
 89 90  2  0  0  0  0
 89 91  1  0  0  0  0
 81 92  2  0  0  0  0
 92 93  1  0  0  0  0
 80 94  1  0  0  0  0
 94 95  2  0  0  0  0
 95 96  1  0  0  0  0
 95 97  1  0  0  0  0
 97 98  2  0  0  0  0
 98 99  1  0  0  0  0
 99100  2  0  0  0  0
100101  1  0  0  0  0
101102  2  0  0  0  0
102103  1  0  0  0  0
103104  2  0  0  0  0
104105  1  0  0  0  0
105106  1  0  0  0  0
106107  1  0  0  0  0
104108  1  0  0  0  0
108109  1  0  0  0  0
108110  2  0  0  0  0
100111  1  0  0  0  0
111112  2  0  0  0  0
112113  1  0  0  0  0
113114  1  0  0  0  0
114115  2  0  0  0  0
115116  1  0  0  0  0
116117  2  0  0  0  0
117118  1  0  0  0  0
118119  1  0  0  0  0
119120  1  0  0  0  0
117121  1  0  0  0  0
121122  2  0  0  0  0
121123  1  0  0  0  0
113124  2  0  0  0  0
124125  1  0  0  0  0
112126  1  0  0  0  0
126127  2  0  0  0  0
127128  1  0  0  0  0
127129  1  0  0  0  0
129130  2  0  0  0  0
130131  1  0  0  0  0
131132  2  0  0  0  0
132133  1  0  0  0  0
133134  2  0  0  0  0
134135  1  0  0  0  0
135136  2  0  0  0  0
136137  1  0  0  0  0
137138  1  0  0  0  0
138139  1  0  0  0  0
136140  1  0  0  0  0
140141  1  0  0  0  0
140142  2  0  0  0  0
132143  1  0  0  0  0
143144  2  0  0  0  0
144145  1  0  0  0  0
145146  1  0  0  0  0
146147  2  0  0  0  0
147148  1  0  0  0  0
148149  2  0  0  0  0
149150  1  0  0  0  0
150151  1  0  0  0  0
151152  1  0  0  0  0
149153  1  0  0  0  0
153154  2  0  0  0  0
153155  1  0  0  0  0
145156  2  0  0  0  0
156157  1  0  0  0  0
144158  1  0  0  0  0
158159  2  0  0  0  0
159160  1  0  0  0  0
159161  1  0  0  0  0
161162  2  0  0  0  0
162163  1  0  0  0  0
163164  2  0  0  0  0
164165  1  0  0  0  0
165166  2  0  0  0  0
166167  1  0  0  0  0
167168  2  0  0  0  0
168169  1  0  0  0  0
169170  1  0  0  0  0
170171  1  0  0  0  0
168172  1  0  0  0  0
172173  1  0  0  0  0
172174  2  0  0  0  0
164175  1  0  0  0  0
175176  2  0  0  0  0
176177  1  0  0  0  0
177178  1  0  0  0  0
178179  2  0  0  0  0
179180  1  0  0  0  0
180181  2  0  0  0  0
181182  1  0  0  0  0
182183  1  0  0  0  0
183184  1  0  0  0  0
181185  1  0  0  0  0
185186  2  0  0  0  0
185187  1  0  0  0  0
177188  2  0  0  0  0
188189  1  0  0  0  0
176190  1  0  0  0  0
190191  2  0  0  0  0
191192  1  0  0  0  0
 29  1  1  0  0  0  0
 61 33  1  0  0  0  0
 93 65  1  0  0  0  0
125 97  1  0  0  0  0
157129  1  0  0  0  0
189161  1  0  0  0  0
 28  3  1  0  0  0  0
 60 35  1  0  0  0  0
 92 67  1  0  0  0  0
124 99  1  0  0  0  0
156131  1  0  0  0  0
188163  1  0  0  0  0
 14  5  1  0  0  0  0
 32 15  1  0  0  0  0
 46 37  1  0  0  0  0
 64 47  1  0  0  0  0
 78 69  1  0  0  0  0
 96 79  1  0  0  0  0
110101  1  0  0  0  0
128111  1  0  0  0  0
142133  1  0  0  0  0
160143  1  0  0  0  0
174165  1  0  0  0  0
192175  1  0  0  0  0
 26 18  1  0  0  0  0
 58 50  1  0  0  0  0
 90 82  1  0  0  0  0
122114  1  0  0  0  0
154146  1  0  0  0  0
186178  1  0  0  0  0
  1193  1  0  0  0  0
  2194  1  0  0  0  0
  6195  1  0  0  0  0
  7196  1  0  0  0  0
 10197  1  0  0  0  0
 10198  1  0  0  0  0
 11199  1  0  0  0  0
 11200  1  0  0  0  0
 11201  1  0  0  0  0
 14202  1  0  0  0  0
 19203  1  0  0  0  0
 20204  1  0  0  0  0
 23205  1  0  0  0  0
 23206  1  0  0  0  0
 24207  1  0  0  0  0
 24208  1  0  0  0  0
 24209  1  0  0  0  0
 26210  1  0  0  0  0
 30211  1  0  0  0  0
 34212  1  0  0  0  0
 38213  1  0  0  0  0
 39214  1  0  0  0  0
 42215  1  0  0  0  0
 42216  1  0  0  0  0
 43217  1  0  0  0  0
 43218  1  0  0  0  0
 43219  1  0  0  0  0
 46220  1  0  0  0  0
 51221  1  0  0  0  0
 52222  1  0  0  0  0
 55223  1  0  0  0  0
 55224  1  0  0  0  0
 56225  1  0  0  0  0
 56226  1  0  0  0  0
 56227  1  0  0  0  0
 58228  1  0  0  0  0
 62229  1  0  0  0  0
 66230  1  0  0  0  0
 70231  1  0  0  0  0
 71232  1  0  0  0  0
 74233  1  0  0  0  0
 74234  1  0  0  0  0
 75235  1  0  0  0  0
 75236  1  0  0  0  0
 75237  1  0  0  0  0
 78238  1  0  0  0  0
 83239  1  0  0  0  0
 84240  1  0  0  0  0
 87241  1  0  0  0  0
 87242  1  0  0  0  0
 88243  1  0  0  0  0
 88244  1  0  0  0  0
 88245  1  0  0  0  0
 90246  1  0  0  0  0
 94247  1  0  0  0  0
 98248  1  0  0  0  0
102249  1  0  0  0  0
103250  1  0  0  0  0
106251  1  0  0  0  0
106252  1  0  0  0  0
107253  1  0  0  0  0
107254  1  0  0  0  0
107255  1  0  0  0  0
110256  1  0  0  0  0
115257  1  0  0  0  0
116258  1  0  0  0  0
119259  1  0  0  0  0
119260  1  0  0  0  0
120261  1  0  0  0  0
120262  1  0  0  0  0
120263  1  0  0  0  0
122264  1  0  0  0  0
126265  1  0  0  0  0
130266  1  0  0  0  0
134267  1  0  0  0  0
135268  1  0  0  0  0
138269  1  0  0  0  0
138270  1  0  0  0  0
139271  1  0  0  0  0
139272  1  0  0  0  0
139273  1  0  0  0  0
142274  1  0  0  0  0
147275  1  0  0  0  0
148276  1  0  0  0  0
151277  1  0  0  0  0
151278  1  0  0  0  0
152279  1  0  0  0  0
152280  1  0  0  0  0
152281  1  0  0  0  0
154282  1  0  0  0  0
158283  1  0  0  0  0
162284  1  0  0  0  0
166285  1  0  0  0  0
167286  1  0  0  0  0
170287  1  0  0  0  0
170288  1  0  0  0  0
171289  1  0  0  0  0
171290  1  0  0  0  0
171291  1  0  0  0  0
174292  1  0  0  0  0
179293  1  0  0  0  0
180294  1  0  0  0  0
183295  1  0  0  0  0
183296  1  0  0  0  0
184297  1  0  0  0  0
184298  1  0  0  0  0
184299  1  0  0  0  0
186300  1  0  0  0  0
190301  1  0  0  0  0
191302  1  0  0  0  0
M  END
