
  xtb     03042210013D
 energy: -201.813027511461 gnorm: 0.000533059488 xtb: 6.4.1 (unknown)
 92103  0     0  0            999 V2000
    5.0507    3.3397   -3.1006 C   0  0  0  0  0  0  0  0  0  0  0  0
    5.8501    2.9468   -4.5468 S   0  0  0  0  0  0  0  0  0  0  0  0
    4.9756    2.2746   -2.2232 C   0  0  0  0  0  0  0  0  0  0  0  0
    4.3843    2.2537   -0.9403 C   0  0  0  0  0  0  0  0  0  0  0  0
    4.4359    1.1099   -0.1874 C   0  0  0  0  0  0  0  0  0  0  0  0
    3.9110    0.9463    1.0359 O   0  0  0  0  0  0  0  0  0  0  0  0
    3.1470    2.0007    1.5894 C   0  0  0  0  0  0  0  0  0  0  0  0
    5.1433   -0.0463   -0.6851 C   0  0  0  0  0  0  0  0  0  0  0  0
    5.1737   -1.0842    0.1676 O   0  0  0  0  0  0  0  0  0  0  0  0
    5.8088   -2.2767   -0.2269 C   0  0  0  0  0  0  0  0  0  0  0  0
    5.7094   -0.0400   -1.9402 C   0  0  0  0  0  0  0  0  0  0  0  0
    5.5843    1.0972   -2.7561 C   0  0  0  0  0  0  0  0  0  0  0  0
    6.0370    1.2658   -4.0750 C   0  0  0  0  0  0  0  0  0  0  0  0
    6.5694    0.3726   -5.0193 C   0  0  0  0  0  0  0  0  0  0  0  0
    6.3388   -0.9741   -5.1964 C   0  0  0  0  0  0  0  0  0  0  0  0
    5.3061   -1.7734   -4.6938 C   0  0  0  0  0  0  0  0  0  0  0  0
    3.9620   -1.1407   -3.8076 S   0  0  0  0  0  0  0  0  0  0  0  0
    5.1334   -3.1689   -4.9266 C   0  0  0  0  0  0  0  0  0  0  0  0
    6.0011   -4.0245   -5.6223 C   0  0  0  0  0  0  0  0  0  0  0  0
    5.6887   -5.3569   -5.7617 C   0  0  0  0  0  0  0  0  0  0  0  0
    6.4357   -6.2715   -6.4152 O   0  0  0  0  0  0  0  0  0  0  0  0
    7.6295   -5.8565   -7.0353 C   0  0  0  0  0  0  0  0  0  0  0  0
    4.4819   -5.8787   -5.1889 C   0  0  0  0  0  0  0  0  0  0  0  0
    4.2850   -7.1928   -5.3990 O   0  0  0  0  0  0  0  0  0  0  0  0
    3.1149   -7.7965   -4.8949 C   0  0  0  0  0  0  0  0  0  0  0  0
    3.6348   -5.0454   -4.4913 C   0  0  0  0  0  0  0  0  0  0  0  0
    3.9484   -3.6887   -4.3561 C   0  0  0  0  0  0  0  0  0  0  0  0
    3.1913   -2.7069   -3.6596 C   0  0  0  0  0  0  0  0  0  0  0  0
    2.0634   -2.8478   -2.8793 C   0  0  0  0  0  0  0  0  0  0  0  0
    1.5225   -1.7982   -2.1472 C   0  0  0  0  0  0  0  0  0  0  0  0
    0.4147   -1.8886   -1.3325 C   0  0  0  0  0  0  0  0  0  0  0  0
   -0.1657   -0.8864   -0.5415 C   0  0  0  0  0  0  0  0  0  0  0  0
   -1.2947   -1.4259    0.0909 C   0  0  0  0  0  0  0  0  0  0  0  0
   -1.3958   -2.8266   -0.3214 C   0  0  0  0  0  0  0  0  0  0  0  0
   -2.1603   -3.7021   -0.0580 O   0  0  0  0  0  0  0  0  0  0  0  0
   -0.3188   -3.0336   -1.1849 O   0  0  0  0  0  0  0  0  0  0  0  0
   -1.8696   -0.4027    0.8480 C   0  0  0  0  0  0  0  0  0  0  0  0
   -1.1115    0.7288    0.7094 O   0  0  0  0  0  0  0  0  0  0  0  0
   -0.0449    0.4989   -0.1380 C   0  0  0  0  0  0  0  0  0  0  0  0
    0.7666    1.3445   -0.4126 O   0  0  0  0  0  0  0  0  0  0  0  0
   -3.0295   -0.3666    1.6148 C   0  0  0  0  0  0  0  0  0  0  0  0
   -3.6370    0.6856    2.3006 C   0  0  0  0  0  0  0  0  0  0  0  0
   -4.8402    0.1925    2.8442 C   0  0  0  0  0  0  0  0  0  0  0  0
   -4.9408   -1.2238    2.4873 C   0  0  0  0  0  0  0  0  0  0  0  0
   -5.7533   -2.0623    2.7183 O   0  0  0  0  0  0  0  0  0  0  0  0
   -3.7932   -1.4871    1.7374 O   0  0  0  0  0  0  0  0  0  0  0  0
   -5.4758    1.2563    3.4757 C   0  0  0  0  0  0  0  0  0  0  0  0
   -4.7052    2.3729    3.3629 O   0  0  0  0  0  0  0  0  0  0  0  0
   -3.5397    2.0994    2.6460 C   0  0  0  0  0  0  0  0  0  0  0  0
   -2.7101    2.9305    2.4339 O   0  0  0  0  0  0  0  0  0  0  0  0
   -6.7155    1.3263    4.1201 C   0  0  0  0  0  0  0  0  0  0  0  0
   -7.3947    2.4044    4.6743 C   0  0  0  0  0  0  0  0  0  0  0  0
   -8.6362    1.9170    5.1508 C   0  0  0  0  0  0  0  0  0  0  0  0
   -8.6800    0.4794    4.8762 C   0  0  0  0  0  0  0  0  0  0  0  0
   -9.4952   -0.3606    5.0911 O   0  0  0  0  0  0  0  0  0  0  0  0
   -7.4681    0.1992    4.2434 O   0  0  0  0  0  0  0  0  0  0  0  0
   -9.3293    2.9963    5.6704 C   0  0  0  0  0  0  0  0  0  0  0  0
   -8.5804    4.1235    5.5497 O   0  0  0  0  0  0  0  0  0  0  0  0
   -7.3543    3.8390    4.9352 C   0  0  0  0  0  0  0  0  0  0  0  0
   -6.5392    4.6830    4.7280 O   0  0  0  0  0  0  0  0  0  0  0  0
  -10.6132    3.0775    6.2457 C   0  0  0  0  0  0  0  0  0  0  0  0
  -11.3175    4.1573    6.7328 C   0  0  0  0  0  0  0  0  0  0  0  0
  -12.5852    3.6580    7.1882 C   0  0  0  0  0  0  0  0  0  0  0  0
  -12.5916    2.2164    6.9450 C   0  0  0  0  0  0  0  0  0  0  0  0
  -13.4081    1.3734    7.1514 O   0  0  0  0  0  0  0  0  0  0  0  0
  -11.3540    1.9401    6.3690 O   0  0  0  0  0  0  0  0  0  0  0  0
  -13.2840    4.7203    7.6617 C   0  0  0  0  0  0  0  0  0  0  0  0
  -12.5770    5.8543    7.5511 O   0  0  0  0  0  0  0  0  0  0  0  0
  -11.3147    5.5907    6.9704 C   0  0  0  0  0  0  0  0  0  0  0  0
  -10.5228    6.4614    6.7790 O   0  0  0  0  0  0  0  0  0  0  0  0
    4.6635    4.3292   -2.9563 H   0  0  0  0  0  0  0  0  0  0  0  0
    3.8912    3.1408   -0.5822 H   0  0  0  0  0  0  0  0  0  0  0  0
    3.7565    2.8973    1.7345 H   0  0  0  0  0  0  0  0  0  0  0  0
    2.8058    1.6361    2.5559 H   0  0  0  0  0  0  0  0  0  0  0  0
    2.2848    2.2291    0.9580 H   0  0  0  0  0  0  0  0  0  0  0  0
    5.6778   -2.9673    0.6039 H   0  0  0  0  0  0  0  0  0  0  0  0
    5.3467   -2.6981   -1.1258 H   0  0  0  0  0  0  0  0  0  0  0  0
    6.8776   -2.1229   -0.4047 H   0  0  0  0  0  0  0  0  0  0  0  0
    6.2782   -0.8816   -2.2988 H   0  0  0  0  0  0  0  0  0  0  0  0
    7.2231    0.8322   -5.7521 H   0  0  0  0  0  0  0  0  0  0  0  0
    6.9857   -1.4682   -5.9096 H   0  0  0  0  0  0  0  0  0  0  0  0
    6.9077   -3.6284   -6.0477 H   0  0  0  0  0  0  0  0  0  0  0  0
    7.4402   -5.1005   -7.8039 H   0  0  0  0  0  0  0  0  0  0  0  0
    8.3462   -5.4659   -6.3058 H   0  0  0  0  0  0  0  0  0  0  0  0
    8.0415   -6.7491   -7.5021 H   0  0  0  0  0  0  0  0  0  0  0  0
    3.1697   -8.8392   -5.2013 H   0  0  0  0  0  0  0  0  0  0  0  0
    2.2152   -7.3406   -5.3186 H   0  0  0  0  0  0  0  0  0  0  0  0
    3.0740   -7.7411   -3.8030 H   0  0  0  0  0  0  0  0  0  0  0  0
    2.7252   -5.4205   -4.0539 H   0  0  0  0  0  0  0  0  0  0  0  0
    1.5926   -3.8177   -2.8041 H   0  0  0  0  0  0  0  0  0  0  0  0
    1.9912   -0.8241   -2.1801 H   0  0  0  0  0  0  0  0  0  0  0  0
  -14.2664    4.7968    8.0902 H   0  0  0  0  0  0  0  0  0  0  0  0
  1  2  1  0  0  0  0
  1  3  2  0  0  0  0
  3  4  1  0  0  0  0
  4  5  2  0  0  0  0
  5  6  1  0  0  0  0
  6  7  1  0  0  0  0
  5  8  1  0  0  0  0
  8  9  1  0  0  0  0
  9 10  1  0  0  0  0
  8 11  2  0  0  0  0
 11 12  1  0  0  0  0
 12 13  2  0  0  0  0
 13 14  1  0  0  0  0
 14 15  2  0  0  0  0
 15 16  1  0  0  0  0
 16 17  1  0  0  0  0
 16 18  2  0  0  0  0
 18 19  1  0  0  0  0
 19 20  2  0  0  0  0
 20 21  1  0  0  0  0
 21 22  1  0  0  0  0
 20 23  1  0  0  0  0
 23 24  1  0  0  0  0
 24 25  1  0  0  0  0
 23 26  2  0  0  0  0
 26 27  1  0  0  0  0
 27 28  2  0  0  0  0
 28 29  1  0  0  0  0
 29 30  2  0  0  0  0
 30 31  1  0  0  0  0
 31 32  2  0  0  0  0
 32 33  1  0  0  0  0
 33 34  1  0  0  0  0
 34 35  2  0  0  0  0
 34 36  1  0  0  0  0
 33 37  2  0  0  0  0
 37 38  1  0  0  0  0
 38 39  1  0  0  0  0
 39 40  2  0  0  0  0
 37 41  1  0  0  0  0
 41 42  2  0  0  0  0
 42 43  1  0  0  0  0
 43 44  1  0  0  0  0
 44 45  2  0  0  0  0
 44 46  1  0  0  0  0
 43 47  2  0  0  0  0
 47 48  1  0  0  0  0
 48 49  1  0  0  0  0
 49 50  2  0  0  0  0
 47 51  1  0  0  0  0
 51 52  2  0  0  0  0
 52 53  1  0  0  0  0
 53 54  1  0  0  0  0
 54 55  2  0  0  0  0
 54 56  1  0  0  0  0
 53 57  2  0  0  0  0
 57 58  1  0  0  0  0
 58 59  1  0  0  0  0
 59 60  2  0  0  0  0
 57 61  1  0  0  0  0
 61 62  2  0  0  0  0
 62 63  1  0  0  0  0
 63 64  1  0  0  0  0
 64 65  2  0  0  0  0
 64 66  1  0  0  0  0
 63 67  2  0  0  0  0
 67 68  1  0  0  0  0
 68 69  1  0  0  0  0
 69 70  2  0  0  0  0
 13  2  1  0  0  0  0
 28 17  1  0  0  0  0
 36 31  1  0  0  0  0
 46 41  1  0  0  0  0
 56 51  1  0  0  0  0
 66 61  1  0  0  0  0
 12  3  1  0  0  0  0
 27 18  1  0  0  0  0
 39 32  1  0  0  0  0
 49 42  1  0  0  0  0
 59 52  1  0  0  0  0
 69 62  1  0  0  0  0
  1 71  1  0  0  0  0
  4 72  1  0  0  0  0
  7 73  1  0  0  0  0
  7 74  1  0  0  0  0
  7 75  1  0  0  0  0
 10 76  1  0  0  0  0
 10 77  1  0  0  0  0
 10 78  1  0  0  0  0
 11 79  1  0  0  0  0
 14 80  1  0  0  0  0
 15 81  1  0  0  0  0
 19 82  1  0  0  0  0
 22 83  1  0  0  0  0
 22 84  1  0  0  0  0
 22 85  1  0  0  0  0
 25 86  1  0  0  0  0
 25 87  1  0  0  0  0
 25 88  1  0  0  0  0
 26 89  1  0  0  0  0
 29 90  1  0  0  0  0
 30 91  1  0  0  0  0
 67 92  1  0  0  0  0
M  END
