92

C          6.85890        4.05530        2.95470
S          7.34140        2.51440        2.37420
C          5.72190        2.14840        1.83680
C          4.87650        3.19870        2.11720
C          5.53060        4.28810        2.75830
O          4.96170        5.46730        3.14630
C          3.56120        5.45080        3.29810
C          2.85060        4.96490        2.04540
S          3.13620        3.17360        1.83100
C          5.44720        0.88110        1.23370
S          6.14620       -0.55460        1.91090
C          4.67180        0.56730        0.12250
C          4.01250        1.46360       -0.74890
C          3.27310        0.98240       -1.79000
O          2.54270        1.74270       -2.64850
C          2.51250        3.13140       -2.43720
C          3.23270       -0.43040       -2.06470
O          2.47240       -0.77280       -3.13720
C          2.29680       -2.14070       -3.40940
C          3.93250       -1.30320       -1.28290
C          4.62290       -0.83520       -0.14130
C          5.33450       -1.59580        0.78300
C          5.52070       -3.00880        0.90530
C          4.62600       -4.00400        0.70390
C          3.22390       -3.92610        0.46620
S          2.24350       -2.51130        0.72340
C          0.80380       -3.34430        0.21790
C          1.07400       -4.67140       -0.07540
C          2.43660       -4.99760        0.06170
O          3.01130       -6.21260       -0.17610
C          2.22100       -7.14610       -0.87500
C          0.84250       -7.32170       -0.25800
S         -0.16060       -5.82500       -0.56380
C         -0.40490       -2.62210        0.09910
S         -1.93710       -3.32180       -0.33660
C         -2.71720       -1.76170       -0.28170
C         -1.81770       -0.76480        0.05730
C         -0.51460       -1.24900        0.26650
O          0.58440       -0.52220        0.59810
C          0.50370        0.85930        0.32960
C         -0.69850        1.49010        1.01220
S         -2.24740        0.93120        0.21390
C         -4.10370       -1.66040       -0.53500
S         -5.00980       -0.18070       -0.41320
C         -6.49300       -1.00100       -0.82230
C         -6.27380       -2.34790       -1.04830
C         -4.92810       -2.72160       -0.87710
O         -4.39300       -3.96230       -1.02620
C         -5.30960       -5.03280       -1.05290
C         -6.40920       -4.81600       -2.08030
S         -7.52860       -3.48290       -1.52400
C         -7.70610       -0.26960       -0.86320
S         -9.25430       -0.95990       -1.25040
C        -10.03290        0.55950       -1.04650
C         -9.15850        1.54790       -0.70260
C         -7.82710        1.08120       -0.58990
O         -6.72800        1.81360       -0.26810
C         -6.98270        3.06030        0.34000
C         -7.92780        3.91930       -0.48630
S         -9.61670        3.22540       -0.43150
H          7.56740        4.71740        3.40690
H          3.28900        6.48750        3.51370
H          3.27550        4.81960        4.15160
H          3.22340        5.48790        1.16370
H          1.77390        5.09360        2.12890
H          4.11090        2.52000       -0.57280
H          3.50290        3.57960       -2.56890
H          2.13490        3.37580       -1.43780
H          1.83440        3.53010       -3.19020
H          1.59440       -2.18870       -4.24000
H          1.87730       -2.66950       -2.54690
H          3.23800       -2.61770       -3.70290
H          3.97550       -2.35430       -1.51110
H          6.50730       -3.30150        1.24450
H          4.98840       -5.02280        0.76090
H          2.78470       -8.08210       -0.82840
H          2.11530       -6.84270       -1.92630
H          0.91840       -7.47730        0.81840
H          0.30900       -8.14910       -0.71930
H          0.45480        1.03150       -0.75400
H          1.43470        1.27630        0.72190
H         -0.72870        1.21050        2.06530
H         -0.68300        2.57300        0.91460
H         -5.75470       -5.17640       -0.05870
H         -4.70820       -5.90920       -1.30760
H         -5.98490       -4.53420       -3.04420
H         -7.02740       -5.70390       -2.18890
H        -11.08890        0.64890       -1.19440
H         -7.39930        2.91390        1.34640
H         -6.00230        3.53610        0.42240
H         -7.60130        3.95820       -1.52600
H         -7.99930        4.92540       -0.07960
