
  xtb     03042218453D
 energy: -389.597471299347 gnorm: 0.000434873516 xtb: 6.4.1 (unknown)
227247  0     0  0            999 V2000
    5.1237    1.0458    5.3058 C   0  0  0  0  0  0  0  0  0  0  0  0
    4.4878    2.0388    4.6542 C   0  0  0  0  0  0  0  0  0  0  0  0
    3.4184    1.5737    3.8307 C   0  0  0  0  0  0  0  0  0  0  0  0
    2.5203    2.3267    3.0559 C   0  0  0  0  0  0  0  0  0  0  0  0
    2.6279    3.7886    2.9687 C   0  0  0  0  0  0  0  0  0  0  0  0
    3.8554    4.4071    2.7439 C   0  0  0  0  0  0  0  0  0  0  0  0
    3.9724    5.7812    2.6730 C   0  0  0  0  0  0  0  0  0  0  0  0
    2.8572    6.5976    2.8153 C   0  0  0  0  0  0  0  0  0  0  0  0
    2.8472    8.3562    2.7588 S   0  0  0  0  0  0  0  0  0  0  0  0
    4.6068    8.8132    2.5865 C   0  0  0  0  0  0  0  0  0  0  0  0
    5.0946    8.7223    1.1523 C   0  0  0  0  0  0  0  0  0  0  0  0
    1.6296    5.9666    3.0237 C   0  0  0  0  0  0  0  0  0  0  0  0
    0.5219    6.7261    3.1596 F   0  0  0  0  0  0  0  0  0  0  0  0
    1.5015    4.5994    3.1085 C   0  0  0  0  0  0  0  0  0  0  0  0
    1.5200    1.6175    2.4070 C   0  0  0  0  0  0  0  0  0  0  0  0
    1.3575    0.2118    2.4960 C   0  0  0  0  0  0  0  0  0  0  0  0
    2.2555   -0.5380    3.2764 C   0  0  0  0  0  0  0  0  0  0  0  0
    2.1260   -1.9843    3.4727 C   0  0  0  0  0  0  0  0  0  0  0  0
    0.9072   -2.5694    3.8173 C   0  0  0  0  0  0  0  0  0  0  0  0
    0.8272   -3.9178    4.0800 C   0  0  0  0  0  0  0  0  0  0  0  0
    1.9478   -4.7510    4.0136 C   0  0  0  0  0  0  0  0  0  0  0  0
    1.6557   -6.4476    4.3836 S   0  0  0  0  0  0  0  0  0  0  0  0
    3.3025   -7.2238    4.6012 C   0  0  0  0  0  0  0  0  0  0  0  0
    3.1026   -8.6162    5.1663 C   0  0  0  0  0  0  0  0  0  0  0  0
    3.1508   -4.1579    3.6473 C   0  0  0  0  0  0  0  0  0  0  0  0
    3.2432   -2.8071    3.3870 C   0  0  0  0  0  0  0  0  0  0  0  0
    4.2929   -4.8751    3.5267 F   0  0  0  0  0  0  0  0  0  0  0  0
    3.2710    0.1702    3.9103 C   0  0  0  0  0  0  0  0  0  0  0  0
    4.4681   -0.5195    4.9793 S   0  0  0  0  0  0  0  0  0  0  0  0
    0.2555   -0.2398    1.7276 C   0  0  0  0  0  0  0  0  0  0  0  0
   -0.4200    0.7503    1.0644 C   0  0  0  0  0  0  0  0  0  0  0  0
    0.3145    2.3188    1.3617 S   0  0  0  0  0  0  0  0  0  0  0  0
   -1.6202    0.6421    0.3161 C   0  0  0  0  0  0  0  0  0  0  0  0
   -2.5695   -0.8202    0.4057 S   0  0  0  0  0  0  0  0  0  0  0  0
   -2.2834    1.6073   -0.4509 C   0  0  0  0  0  0  0  0  0  0  0  0
   -1.8186    2.8866   -0.8246 C   0  0  0  0  0  0  0  0  0  0  0  0
   -2.6166    3.7206   -1.5560 C   0  0  0  0  0  0  0  0  0  0  0  0
   -2.2840    4.9658   -1.9644 O   0  0  0  0  0  0  0  0  0  0  0  0
   -1.0120    5.4589   -1.6245 C   0  0  0  0  0  0  0  0  0  0  0  0
   -3.9289    3.2991   -1.9671 C   0  0  0  0  0  0  0  0  0  0  0  0
   -4.6142    4.2323   -2.6715 O   0  0  0  0  0  0  0  0  0  0  0  0
   -5.8990    3.9026   -3.1333 C   0  0  0  0  0  0  0  0  0  0  0  0
   -4.3770    2.0473   -1.6537 C   0  0  0  0  0  0  0  0  0  0  0  0
   -3.5678    1.1777   -0.8919 C   0  0  0  0  0  0  0  0  0  0  0  0
   -3.8890   -0.1261   -0.4877 C   0  0  0  0  0  0  0  0  0  0  0  0
   -5.1164   -0.7757   -0.7286 C   0  0  0  0  0  0  0  0  0  0  0  0
   -5.4402   -2.0728   -0.4882 C   0  0  0  0  0  0  0  0  0  0  0  0
   -6.7120   -2.6165   -0.8090 C   0  0  0  0  0  0  0  0  0  0  0  0
   -6.8032   -4.2629   -1.3618 S   0  0  0  0  0  0  0  0  0  0  0  0
   -7.9632   -2.0016   -0.9288 C   0  0  0  0  0  0  0  0  0  0  0  0
   -8.3453   -0.7144   -0.4874 C   0  0  0  0  0  0  0  0  0  0  0  0
   -9.6155   -0.2620   -0.7099 C   0  0  0  0  0  0  0  0  0  0  0  0
  -10.0977    0.9430   -0.3252 O   0  0  0  0  0  0  0  0  0  0  0  0
   -9.2143    1.8534    0.2781 C   0  0  0  0  0  0  0  0  0  0  0  0
  -10.5778   -1.0869   -1.3993 C   0  0  0  0  0  0  0  0  0  0  0  0
  -11.7891   -0.5048   -1.5600 O   0  0  0  0  0  0  0  0  0  0  0  0
  -12.7848   -1.2181   -2.2482 C   0  0  0  0  0  0  0  0  0  0  0  0
  -10.2394   -2.3448   -1.8066 C   0  0  0  0  0  0  0  0  0  0  0  0
   -8.9378   -2.8410   -1.5569 C   0  0  0  0  0  0  0  0  0  0  0  0
   -8.4351   -4.0819   -1.9244 C   0  0  0  0  0  0  0  0  0  0  0  0
   -9.0546   -5.0769   -2.7792 C   0  0  0  0  0  0  0  0  0  0  0  0
   -8.4484   -5.5766   -3.8659 C   0  0  0  0  0  0  0  0  0  0  0  0
   -7.1438   -5.0484   -4.2394 C   0  0  0  0  0  0  0  0  0  0  0  0
   -6.8621   -3.7407   -4.4695 C   0  0  0  0  0  0  0  0  0  0  0  0
   -5.4836   -3.4159   -4.3365 C   0  0  0  0  0  0  0  0  0  0  0  0
   -4.8877   -2.1445   -4.2944 C   0  0  0  0  0  0  0  0  0  0  0  0
   -5.6462   -0.9236   -4.5984 C   0  0  0  0  0  0  0  0  0  0  0  0
   -5.1713   -0.0170   -5.5409 C   0  0  0  0  0  0  0  0  0  0  0  0
   -5.8945    1.1105   -5.8818 C   0  0  0  0  0  0  0  0  0  0  0  0
   -7.1204    1.3778   -5.2823 C   0  0  0  0  0  0  0  0  0  0  0  0
   -8.1639    2.7600   -5.6173 S   0  0  0  0  0  0  0  0  0  0  0  0
   -7.3372    3.6336   -6.9907 C   0  0  0  0  0  0  0  0  0  0  0  0
   -7.5352    2.9379   -8.3244 C   0  0  0  0  0  0  0  0  0  0  0  0
   -7.5614    0.4829   -4.3050 C   0  0  0  0  0  0  0  0  0  0  0  0
   -8.7231    0.7363   -3.6650 F   0  0  0  0  0  0  0  0  0  0  0  0
   -6.8550   -0.6470   -3.9631 C   0  0  0  0  0  0  0  0  0  0  0  0
   -3.5552   -2.0923   -3.9111 C   0  0  0  0  0  0  0  0  0  0  0  0
   -2.8094   -3.2485   -3.5790 C   0  0  0  0  0  0  0  0  0  0  0  0
   -3.3874   -4.5222   -3.6734 C   0  0  0  0  0  0  0  0  0  0  0  0
   -2.6643   -5.7337   -3.2666 C   0  0  0  0  0  0  0  0  0  0  0  0
   -2.0993   -5.8302   -1.9963 C   0  0  0  0  0  0  0  0  0  0  0  0
   -1.4371   -6.9756   -1.6098 C   0  0  0  0  0  0  0  0  0  0  0  0
   -1.3115   -8.0637   -2.4702 C   0  0  0  0  0  0  0  0  0  0  0  0
   -0.4637   -9.4978   -1.8676 S   0  0  0  0  0  0  0  0  0  0  0  0
    0.5910   -9.9961   -3.2790 C   0  0  0  0  0  0  0  0  0  0  0  0
    1.5236   -8.8841   -3.7154 C   0  0  0  0  0  0  0  0  0  0  0  0
   -1.9122   -7.9665   -3.7211 C   0  0  0  0  0  0  0  0  0  0  0  0
   -2.5730   -6.8234   -4.1242 C   0  0  0  0  0  0  0  0  0  0  0  0
   -1.8653   -8.9990   -4.5897 F   0  0  0  0  0  0  0  0  0  0  0  0
   -4.7154   -4.5728   -4.0565 C   0  0  0  0  0  0  0  0  0  0  0  0
   -5.6961   -6.0149   -4.0340 S   0  0  0  0  0  0  0  0  0  0  0  0
   -1.5166   -2.9280   -3.1077 C   0  0  0  0  0  0  0  0  0  0  0  0
   -1.2744   -1.5873   -3.0271 C   0  0  0  0  0  0  0  0  0  0  0  0
   -2.6235   -0.6409   -3.6228 S   0  0  0  0  0  0  0  0  0  0  0  0
   -0.1105   -1.0149   -2.4279 C   0  0  0  0  0  0  0  0  0  0  0  0
    0.7861   -1.7252   -1.6838 C   0  0  0  0  0  0  0  0  0  0  0  0
    1.8071   -0.9410   -1.1050 C   0  0  0  0  0  0  0  0  0  0  0  0
    2.8418   -1.3789   -0.2589 C   0  0  0  0  0  0  0  0  0  0  0  0
    2.9777   -2.7958    0.1011 C   0  0  0  0  0  0  0  0  0  0  0  0
    1.8843   -3.5633    0.5005 C   0  0  0  0  0  0  0  0  0  0  0  0
    2.0067   -4.9172    0.7427 C   0  0  0  0  0  0  0  0  0  0  0  0
    3.2322   -5.5584    0.6024 C   0  0  0  0  0  0  0  0  0  0  0  0
    3.4808   -7.2882    0.8386 S   0  0  0  0  0  0  0  0  0  0  0  0
    1.8943   -8.0127    0.2761 C   0  0  0  0  0  0  0  0  0  0  0  0
    0.9610   -8.3856    1.4104 C   0  0  0  0  0  0  0  0  0  0  0  0
    4.3325   -4.7721    0.2638 C   0  0  0  0  0  0  0  0  0  0  0  0
    5.5438   -5.3475    0.1415 F   0  0  0  0  0  0  0  0  0  0  0  0
    4.2187   -3.4241    0.0057 C   0  0  0  0  0  0  0  0  0  0  0  0
    3.7306   -0.4044    0.1607 C   0  0  0  0  0  0  0  0  0  0  0  0
    3.6424    0.9607   -0.2136 C   0  0  0  0  0  0  0  0  0  0  0  0
    2.6062    1.3911   -1.0668 C   0  0  0  0  0  0  0  0  0  0  0  0
    2.5046    2.7854   -1.5099 C   0  0  0  0  0  0  0  0  0  0  0  0
    2.2861    3.0983   -2.8534 C   0  0  0  0  0  0  0  0  0  0  0  0
    2.2095    4.4077   -3.2690 C   0  0  0  0  0  0  0  0  0  0  0  0
    2.3550    5.4763   -2.3779 C   0  0  0  0  0  0  0  0  0  0  0  0
    2.2125    7.0756   -3.1090 S   0  0  0  0  0  0  0  0  0  0  0  0
    2.4203    8.3367   -1.7977 C   0  0  0  0  0  0  0  0  0  0  0  0
    1.1782    8.5426   -0.9540 C   0  0  0  0  0  0  0  0  0  0  0  0
    2.5838    5.1469   -1.0473 C   0  0  0  0  0  0  0  0  0  0  0  0
    2.6452    3.8381   -0.6135 C   0  0  0  0  0  0  0  0  0  0  0  0
    2.7665    6.1012   -0.1043 F   0  0  0  0  0  0  0  0  0  0  0  0
    1.7061    0.4199   -1.4850 C   0  0  0  0  0  0  0  0  0  0  0  0
    0.2995    0.6841   -2.4933 S   0  0  0  0  0  0  0  0  0  0  0  0
    4.6950    1.7226    0.3483 C   0  0  0  0  0  0  0  0  0  0  0  0
    5.5371    1.0143    1.1645 C   0  0  0  0  0  0  0  0  0  0  0  0
    5.0802   -0.6750    1.2251 S   0  0  0  0  0  0  0  0  0  0  0  0
    6.6476    1.5226    1.8881 C   0  0  0  0  0  0  0  0  0  0  0  0
    7.0989    3.1840    1.6564 S   0  0  0  0  0  0  0  0  0  0  0  0
    7.4926    0.9205    2.8243 C   0  0  0  0  0  0  0  0  0  0  0  0
    7.4503   -0.4078    3.2986 C   0  0  0  0  0  0  0  0  0  0  0  0
    8.3226   -0.8294    4.2620 C   0  0  0  0  0  0  0  0  0  0  0  0
    8.3659   -2.0720    4.7883 O   0  0  0  0  0  0  0  0  0  0  0  0
    7.4224   -3.0226    4.3484 C   0  0  0  0  0  0  0  0  0  0  0  0
    9.2881    0.0878    4.8147 C   0  0  0  0  0  0  0  0  0  0  0  0
   10.0655   -0.4448    5.7897 O   0  0  0  0  0  0  0  0  0  0  0  0
   11.0549    0.3645    6.3730 C   0  0  0  0  0  0  0  0  0  0  0  0
    9.3593    1.3714    4.3569 C   0  0  0  0  0  0  0  0  0  0  0  0
    8.4864    1.8151    3.3353 C   0  0  0  0  0  0  0  0  0  0  0  0
    8.4216    3.0858    2.7700 C   0  0  0  0  0  0  0  0  0  0  0  0
    9.2377    4.2563    2.9309 C   0  0  0  0  0  0  0  0  0  0  0  0
   10.5143    4.2963    3.3112 C   0  0  0  0  0  0  0  0  0  0  0  0
    5.9600    1.1212    5.9729 H   0  0  0  0  0  0  0  0  0  0  0  0
    4.7447    3.0762    4.7652 H   0  0  0  0  0  0  0  0  0  0  0  0
    4.7348    3.8022    2.5893 H   0  0  0  0  0  0  0  0  0  0  0  0
    4.9470    6.2032    2.4926 H   0  0  0  0  0  0  0  0  0  0  0  0
    4.6466    9.8429    2.9421 H   0  0  0  0  0  0  0  0  0  0  0  0
    5.1867    8.1897    3.2655 H   0  0  0  0  0  0  0  0  0  0  0  0
    6.1553    8.9628    1.1032 H   0  0  0  0  0  0  0  0  0  0  0  0
    4.5498    9.4274    0.5287 H   0  0  0  0  0  0  0  0  0  0  0  0
    4.9440    7.7220    0.7531 H   0  0  0  0  0  0  0  0  0  0  0  0
    0.5277    4.1789    3.3018 H   0  0  0  0  0  0  0  0  0  0  0  0
    0.0262   -1.9544    3.9181 H   0  0  0  0  0  0  0  0  0  0  0  0
   -0.1156   -4.3613    4.3624 H   0  0  0  0  0  0  0  0  0  0  0  0
    3.8724   -6.5983    5.2861 H   0  0  0  0  0  0  0  0  0  0  0  0
    3.7932   -7.2604    3.6299 H   0  0  0  0  0  0  0  0  0  0  0  0
    2.5010   -9.2208    4.4913 H   0  0  0  0  0  0  0  0  0  0  0  0
    2.5990   -8.5733    6.1297 H   0  0  0  0  0  0  0  0  0  0  0  0
    4.0689   -9.0978    5.2965 H   0  0  0  0  0  0  0  0  0  0  0  0
    4.2016   -2.4178    3.0856 H   0  0  0  0  0  0  0  0  0  0  0  0
   -0.0400   -1.2709    1.6595 H   0  0  0  0  0  0  0  0  0  0  0  0
   -0.8245    3.1903   -0.5494 H   0  0  0  0  0  0  0  0  0  0  0  0
   -0.9546    6.4510   -2.0682 H   0  0  0  0  0  0  0  0  0  0  0  0
   -0.2189    4.8282   -2.0375 H   0  0  0  0  0  0  0  0  0  0  0  0
   -0.8874    5.5335   -0.5390 H   0  0  0  0  0  0  0  0  0  0  0  0
   -6.5870    3.6943   -2.3073 H   0  0  0  0  0  0  0  0  0  0  0  0
   -5.8679    3.0369   -3.8011 H   0  0  0  0  0  0  0  0  0  0  0  0
   -6.2534    4.7745   -3.6800 H   0  0  0  0  0  0  0  0  0  0  0  0
   -5.3420    1.7065   -1.9900 H   0  0  0  0  0  0  0  0  0  0  0  0
   -5.8627   -0.1531   -1.2000 H   0  0  0  0  0  0  0  0  0  0  0  0
   -4.6786   -2.7601   -0.1424 H   0  0  0  0  0  0  0  0  0  0  0  0
   -7.6286   -0.1192    0.0528 H   0  0  0  0  0  0  0  0  0  0  0  0
   -9.7946    2.7584    0.4489 H   0  0  0  0  0  0  0  0  0  0  0  0
   -8.8370    1.4781    1.2356 H   0  0  0  0  0  0  0  0  0  0  0  0
   -8.3684    2.0834   -0.3781 H   0  0  0  0  0  0  0  0  0  0  0  0
  -13.6500   -0.5583   -2.2821 H   0  0  0  0  0  0  0  0  0  0  0  0
  -12.4713   -1.4589   -3.2693 H   0  0  0  0  0  0  0  0  0  0  0  0
  -13.0535   -2.1417   -1.7239 H   0  0  0  0  0  0  0  0  0  0  0  0
  -10.9446   -2.9871   -2.3077 H   0  0  0  0  0  0  0  0  0  0  0  0
  -10.0560   -5.3958   -2.5194 H   0  0  0  0  0  0  0  0  0  0  0  0
   -8.8900   -6.3723   -4.4470 H   0  0  0  0  0  0  0  0  0  0  0  0
   -7.6315   -3.0140   -4.6568 H   0  0  0  0  0  0  0  0  0  0  0  0
   -4.2302   -0.2060   -6.0344 H   0  0  0  0  0  0  0  0  0  0  0  0
   -5.4895    1.7800   -6.6227 H   0  0  0  0  0  0  0  0  0  0  0  0
   -6.2864    3.7622   -6.7351 H   0  0  0  0  0  0  0  0  0  0  0  0
   -7.8155    4.6131   -6.9932 H   0  0  0  0  0  0  0  0  0  0  0  0
   -7.1217    1.9319   -8.3095 H   0  0  0  0  0  0  0  0  0  0  0  0
   -8.5953    2.8671   -8.5559 H   0  0  0  0  0  0  0  0  0  0  0  0
   -7.0440    3.5047   -9.1131 H   0  0  0  0  0  0  0  0  0  0  0  0
   -7.2419   -1.2891   -3.1890 H   0  0  0  0  0  0  0  0  0  0  0  0
   -2.1989   -5.0070   -1.3053 H   0  0  0  0  0  0  0  0  0  0  0  0
   -1.0108   -7.0520   -0.6218 H   0  0  0  0  0  0  0  0  0  0  0  0
    1.1479  -10.8473   -2.8875 H   0  0  0  0  0  0  0  0  0  0  0  0
   -0.0467  -10.3346   -4.0926 H   0  0  0  0  0  0  0  0  0  0  0  0
    0.9609   -8.0286   -4.0856 H   0  0  0  0  0  0  0  0  0  0  0  0
    2.1473   -8.5552   -2.8868 H   0  0  0  0  0  0  0  0  0  0  0  0
    2.1684   -9.2421   -4.5153 H   0  0  0  0  0  0  0  0  0  0  0  0
   -3.0134   -6.7954   -5.1087 H   0  0  0  0  0  0  0  0  0  0  0  0
   -0.7975   -3.6770   -2.8342 H   0  0  0  0  0  0  0  0  0  0  0  0
    0.7186   -2.7871   -1.5482 H   0  0  0  0  0  0  0  0  0  0  0  0
    0.9252   -3.0935    0.6501 H   0  0  0  0  0  0  0  0  0  0  0  0
    1.1379   -5.4776    1.0500 H   0  0  0  0  0  0  0  0  0  0  0  0
    2.1862   -8.9070   -0.2743 H   0  0  0  0  0  0  0  0  0  0  0  0
    1.4438   -7.3028   -0.4155 H   0  0  0  0  0  0  0  0  0  0  0  0
    1.4481   -9.0913    2.0785 H   0  0  0  0  0  0  0  0  0  0  0  0
    0.0696   -8.8584    1.0019 H   0  0  0  0  0  0  0  0  0  0  0  0
    0.6667   -7.5166    1.9936 H   0  0  0  0  0  0  0  0  0  0  0  0
    5.0975   -2.8826   -0.3064 H   0  0  0  0  0  0  0  0  0  0  0  0
    2.1965    2.3072   -3.5811 H   0  0  0  0  0  0  0  0  0  0  0  0
    2.0384    4.6382   -4.3093 H   0  0  0  0  0  0  0  0  0  0  0  0
    3.2857    8.0668   -1.1994 H   0  0  0  0  0  0  0  0  0  0  0  0
    2.6534    9.2372   -2.3679 H   0  0  0  0  0  0  0  0  0  0  0  0
    1.3503    9.3530   -0.2488 H   0  0  0  0  0  0  0  0  0  0  0  0
    0.9347    7.6498   -0.3854 H   0  0  0  0  0  0  0  0  0  0  0  0
    0.3288    8.8007   -1.5822 H   0  0  0  0  0  0  0  0  0  0  0  0
    2.7816    3.6634    0.4409 H   0  0  0  0  0  0  0  0  0  0  0  0
    4.8450    2.7679    0.1477 H   0  0  0  0  0  0  0  0  0  0  0  0
    6.7191   -1.0858    2.8987 H   0  0  0  0  0  0  0  0  0  0  0  0
    6.4010   -2.7033    4.5752 H   0  0  0  0  0  0  0  0  0  0  0  0
    7.6458   -3.9344    4.8986 H   0  0  0  0  0  0  0  0  0  0  0  0
    7.5140   -3.2173    3.2758 H   0  0  0  0  0  0  0  0  0  0  0  0
   11.7817    0.7086    5.6295 H   0  0  0  0  0  0  0  0  0  0  0  0
   11.5582   -0.2664    7.1036 H   0  0  0  0  0  0  0  0  0  0  0  0
   10.6197    1.2315    6.8816 H   0  0  0  0  0  0  0  0  0  0  0  0
   10.0522    2.0748    4.7836 H   0  0  0  0  0  0  0  0  0  0  0  0
    8.7451    5.1819    2.6563 H   0  0  0  0  0  0  0  0  0  0  0  0
   11.0856    3.4105    3.5221 H   0  0  0  0  0  0  0  0  0  0  0  0
   11.0376    5.2331    3.3889 H   0  0  0  0  0  0  0  0  0  0  0  0
  1  2  2  0  0  0  0
  2  3  1  0  0  0  0
  3  4  2  0  0  0  0
  4  5  1  0  0  0  0
  5  6  2  0  0  0  0
  6  7  1  0  0  0  0
  7  8  2  0  0  0  0
  8  9  1  0  0  0  0
  9 10  1  0  0  0  0
 10 11  1  0  0  0  0
  8 12  1  0  0  0  0
 12 13  1  0  0  0  0
 12 14  2  0  0  0  0
  4 15  1  0  0  0  0
 15 16  2  0  0  0  0
 16 17  1  0  0  0  0
 17 18  1  0  0  0  0
 18 19  2  0  0  0  0
 19 20  1  0  0  0  0
 20 21  2  0  0  0  0
 21 22  1  0  0  0  0
 22 23  1  0  0  0  0
 23 24  1  0  0  0  0
 21 25  1  0  0  0  0
 25 26  2  0  0  0  0
 25 27  1  0  0  0  0
 17 28  2  0  0  0  0
 28 29  1  0  0  0  0
 16 30  1  0  0  0  0
 30 31  2  0  0  0  0
 31 32  1  0  0  0  0
 31 33  1  0  0  0  0
 33 34  1  0  0  0  0
 33 35  2  0  0  0  0
 35 36  1  0  0  0  0
 36 37  2  0  0  0  0
 37 38  1  0  0  0  0
 38 39  1  0  0  0  0
 37 40  1  0  0  0  0
 40 41  1  0  0  0  0
 41 42  1  0  0  0  0
 40 43  2  0  0  0  0
 43 44  1  0  0  0  0
 44 45  2  0  0  0  0
 45 46  1  0  0  0  0
 46 47  2  0  0  0  0
 47 48  1  0  0  0  0
 48 49  1  0  0  0  0
 48 50  2  0  0  0  0
 50 51  1  0  0  0  0
 51 52  2  0  0  0  0
 52 53  1  0  0  0  0
 53 54  1  0  0  0  0
 52 55  1  0  0  0  0
 55 56  1  0  0  0  0
 56 57  1  0  0  0  0
 55 58  2  0  0  0  0
 58 59  1  0  0  0  0
 59 60  2  0  0  0  0
 60 61  1  0  0  0  0
 61 62  2  0  0  0  0
 62 63  1  0  0  0  0
 63 64  2  0  0  0  0
 64 65  1  0  0  0  0
 65 66  2  0  0  0  0
 66 67  1  0  0  0  0
 67 68  2  0  0  0  0
 68 69  1  0  0  0  0
 69 70  2  0  0  0  0
 70 71  1  0  0  0  0
 71 72  1  0  0  0  0
 72 73  1  0  0  0  0
 70 74  1  0  0  0  0
 74 75  1  0  0  0  0
 74 76  2  0  0  0  0
 66 77  1  0  0  0  0
 77 78  2  0  0  0  0
 78 79  1  0  0  0  0
 79 80  1  0  0  0  0
 80 81  2  0  0  0  0
 81 82  1  0  0  0  0
 82 83  2  0  0  0  0
 83 84  1  0  0  0  0
 84 85  1  0  0  0  0
 85 86  1  0  0  0  0
 83 87  1  0  0  0  0
 87 88  2  0  0  0  0
 87 89  1  0  0  0  0
 79 90  2  0  0  0  0
 90 91  1  0  0  0  0
 78 92  1  0  0  0  0
 92 93  2  0  0  0  0
 93 94  1  0  0  0  0
 93 95  1  0  0  0  0
 95 96  2  0  0  0  0
 96 97  1  0  0  0  0
 97 98  2  0  0  0  0
 98 99  1  0  0  0  0
 99100  2  0  0  0  0
100101  1  0  0  0  0
101102  2  0  0  0  0
102103  1  0  0  0  0
103104  1  0  0  0  0
104105  1  0  0  0  0
102106  1  0  0  0  0
106107  1  0  0  0  0
106108  2  0  0  0  0
 98109  1  0  0  0  0
109110  2  0  0  0  0
110111  1  0  0  0  0
111112  1  0  0  0  0
112113  2  0  0  0  0
113114  1  0  0  0  0
114115  2  0  0  0  0
115116  1  0  0  0  0
116117  1  0  0  0  0
117118  1  0  0  0  0
115119  1  0  0  0  0
119120  2  0  0  0  0
119121  1  0  0  0  0
111122  2  0  0  0  0
122123  1  0  0  0  0
110124  1  0  0  0  0
124125  2  0  0  0  0
125126  1  0  0  0  0
125127  1  0  0  0  0
127128  1  0  0  0  0
127129  2  0  0  0  0
129130  1  0  0  0  0
130131  2  0  0  0  0
131132  1  0  0  0  0
132133  1  0  0  0  0
131134  1  0  0  0  0
134135  1  0  0  0  0
135136  1  0  0  0  0
134137  2  0  0  0  0
137138  1  0  0  0  0
138139  2  0  0  0  0
139140  1  0  0  0  0
140141  2  0  0  0  0
 29  1  1  0  0  0  0
 45 34  1  0  0  0  0
 60 49  1  0  0  0  0
 91 63  1  0  0  0  0
123 95  1  0  0  0  0
139128  1  0  0  0  0
 28  3  1  0  0  0  0
 44 35  1  0  0  0  0
 59 50  1  0  0  0  0
 90 65  1  0  0  0  0
122 97  1  0  0  0  0
138129  1  0  0  0  0
 14  5  1  0  0  0  0
 32 15  1  0  0  0  0
 76 67  1  0  0  0  0
 94 77  1  0  0  0  0
108 99  1  0  0  0  0
126109  1  0  0  0  0
 26 18  1  0  0  0  0
 88 80  1  0  0  0  0
120112  1  0  0  0  0
  1142  1  0  0  0  0
  2143  1  0  0  0  0
  6144  1  0  0  0  0
  7145  1  0  0  0  0
 10146  1  0  0  0  0
 10147  1  0  0  0  0
 11148  1  0  0  0  0
 11149  1  0  0  0  0
 11150  1  0  0  0  0
 14151  1  0  0  0  0
 19152  1  0  0  0  0
 20153  1  0  0  0  0
 23154  1  0  0  0  0
 23155  1  0  0  0  0
 24156  1  0  0  0  0
 24157  1  0  0  0  0
 24158  1  0  0  0  0
 26159  1  0  0  0  0
 30160  1  0  0  0  0
 36161  1  0  0  0  0
 39162  1  0  0  0  0
 39163  1  0  0  0  0
 39164  1  0  0  0  0
 42165  1  0  0  0  0
 42166  1  0  0  0  0
 42167  1  0  0  0  0
 43168  1  0  0  0  0
 46169  1  0  0  0  0
 47170  1  0  0  0  0
 51171  1  0  0  0  0
 54172  1  0  0  0  0
 54173  1  0  0  0  0
 54174  1  0  0  0  0
 57175  1  0  0  0  0
 57176  1  0  0  0  0
 57177  1  0  0  0  0
 58178  1  0  0  0  0
 61179  1  0  0  0  0
 62180  1  0  0  0  0
 64181  1  0  0  0  0
 68182  1  0  0  0  0
 69183  1  0  0  0  0
 72184  1  0  0  0  0
 72185  1  0  0  0  0
 73186  1  0  0  0  0
 73187  1  0  0  0  0
 73188  1  0  0  0  0
 76189  1  0  0  0  0
 81190  1  0  0  0  0
 82191  1  0  0  0  0
 85192  1  0  0  0  0
 85193  1  0  0  0  0
 86194  1  0  0  0  0
 86195  1  0  0  0  0
 86196  1  0  0  0  0
 88197  1  0  0  0  0
 92198  1  0  0  0  0
 96199  1  0  0  0  0
100200  1  0  0  0  0
101201  1  0  0  0  0
104202  1  0  0  0  0
104203  1  0  0  0  0
105204  1  0  0  0  0
105205  1  0  0  0  0
105206  1  0  0  0  0
108207  1  0  0  0  0
113208  1  0  0  0  0
114209  1  0  0  0  0
117210  1  0  0  0  0
117211  1  0  0  0  0
118212  1  0  0  0  0
118213  1  0  0  0  0
118214  1  0  0  0  0
120215  1  0  0  0  0
124216  1  0  0  0  0
130217  1  0  0  0  0
133218  1  0  0  0  0
133219  1  0  0  0  0
133220  1  0  0  0  0
136221  1  0  0  0  0
136222  1  0  0  0  0
136223  1  0  0  0  0
137224  1  0  0  0  0
140225  1  0  0  0  0
141226  1  0  0  0  0
141227  1  0  0  0  0
M  END
