
  xtb     03072215273D
 energy: -209.882427481783 gnorm: 0.000323977761 xtb: 6.4.1 (unknown)
128139  0     0  0            999 V2000
    3.9885   -2.7465   -1.2169 C   0  0  0  0  0  0  0  0  0  0  0  0
    4.7584   -1.6552   -0.7469 C   0  0  0  0  0  0  0  0  0  0  0  0
    6.1222   -1.5004   -0.7694 C   0  0  0  0  0  0  0  0  0  0  0  0
    6.6094   -0.0009   -0.1058 S   0  0  0  0  0  0  0  0  0  0  0  0
    4.9946    0.4475    0.2234 C   0  0  0  0  0  0  0  0  0  0  0  0
    4.0949   -0.5195   -0.1639 C   0  0  0  0  0  0  0  0  0  0  0  0
    2.6691   -0.4939   -0.0595 C   0  0  0  0  0  0  0  0  0  0  0  0
    2.0695    0.6239    0.4605 N   0  0  0  0  0  0  0  0  0  0  0  0
    1.9440   -1.5614   -0.5785 C   0  0  0  0  0  0  0  0  0  0  0  0
    2.6358   -2.6717   -1.1407 C   0  0  0  0  0  0  0  0  0  0  0  0
    0.4984   -1.5962   -0.4970 C   0  0  0  0  0  0  0  0  0  0  0  0
   -0.3006   -2.2584   -1.3510 C   0  0  0  0  0  0  0  0  0  0  0  0
   -1.7196   -2.4626   -1.2071 C   0  0  0  0  0  0  0  0  0  0  0  0
   -2.4534   -3.1826   -2.2052 C   0  0  0  0  0  0  0  0  0  0  0  0
   -2.0292   -3.6178   -3.4356 C   0  0  0  0  0  0  0  0  0  0  0  0
   -3.2699   -4.3844   -4.3242 S   0  0  0  0  0  0  0  0  0  0  0  0
   -4.3899   -4.1633   -3.0607 C   0  0  0  0  0  0  0  0  0  0  0  0
   -3.8372   -3.5103   -1.9817 C   0  0  0  0  0  0  0  0  0  0  0  0
   -4.4570   -3.2153   -0.7289 C   0  0  0  0  0  0  0  0  0  0  0  0
   -5.7018   -3.7483   -0.4586 N   0  0  0  0  0  0  0  0  0  0  0  0
   -3.7238   -2.5214    0.2210 C   0  0  0  0  0  0  0  0  0  0  0  0
   -2.4108   -2.0955   -0.0806 C   0  0  0  0  0  0  0  0  0  0  0  0
   -4.2351   -2.3036    1.5717 C   0  0  0  0  0  0  0  0  0  0  0  0
   -3.5081   -2.3580    2.6962 C   0  0  0  0  0  0  0  0  0  0  0  0
   -2.0733   -2.6187    2.7779 C   0  0  0  0  0  0  0  0  0  0  0  0
   -1.4233   -3.6651    2.0487 C   0  0  0  0  0  0  0  0  0  0  0  0
   -1.9917   -4.7198    1.3811 C   0  0  0  0  0  0  0  0  0  0  0  0
   -0.8215   -5.7297    0.6558 S   0  0  0  0  0  0  0  0  0  0  0  0
    0.4636   -4.7758    1.2503 C   0  0  0  0  0  0  0  0  0  0  0  0
    0.0136   -3.7060    1.9884 C   0  0  0  0  0  0  0  0  0  0  0  0
    0.7941   -2.7016    2.6377 C   0  0  0  0  0  0  0  0  0  0  0  0
    2.1647   -2.7138    2.4884 N   0  0  0  0  0  0  0  0  0  0  0  0
    0.1399   -1.7625    3.4215 C   0  0  0  0  0  0  0  0  0  0  0  0
   -1.2784   -1.7812    3.5098 C   0  0  0  0  0  0  0  0  0  0  0  0
    0.8833   -0.7495    4.1532 C   0  0  0  0  0  0  0  0  0  0  0  0
    0.5136    0.5312    4.3665 C   0  0  0  0  0  0  0  0  0  0  0  0
   -0.5759    1.2477    3.7837 C   0  0  0  0  0  0  0  0  0  0  0  0
   -1.2349    0.8640    2.2200 S   0  0  0  0  0  0  0  0  0  0  0  0
   -1.2269    2.3617    4.3157 C   0  0  0  0  0  0  0  0  0  0  0  0
   -0.9714    2.9894    5.5563 C   0  0  0  0  0  0  0  0  0  0  0  0
   -1.7249    4.0577    5.9498 C   0  0  0  0  0  0  0  0  0  0  0  0
   -1.5733    4.7470    7.1130 O   0  0  0  0  0  0  0  0  0  0  0  0
   -0.5584    4.3437    7.9955 C   0  0  0  0  0  0  0  0  0  0  0  0
   -2.7861    4.5476    5.1102 C   0  0  0  0  0  0  0  0  0  0  0  0
   -3.4510    5.6184    5.6219 O   0  0  0  0  0  0  0  0  0  0  0  0
   -4.5095    6.1610    4.8757 C   0  0  0  0  0  0  0  0  0  0  0  0
   -3.0524    3.9466    3.9123 C   0  0  0  0  0  0  0  0  0  0  0  0
   -2.2872    2.8384    3.4910 C   0  0  0  0  0  0  0  0  0  0  0  0
   -2.4322    2.1202    2.2960 C   0  0  0  0  0  0  0  0  0  0  0  0
   -3.5200    2.2200    1.3949 C   0  0  0  0  0  0  0  0  0  0  0  0
   -3.6624    1.7436    0.1272 C   0  0  0  0  0  0  0  0  0  0  0  0
   -2.6765    1.3024   -0.7853 C   0  0  0  0  0  0  0  0  0  0  0  0
   -1.0181    1.7940   -0.6955 S   0  0  0  0  0  0  0  0  0  0  0  0
   -2.8903    0.5897   -1.9745 C   0  0  0  0  0  0  0  0  0  0  0  0
   -4.1087    0.0236   -2.4012 C   0  0  0  0  0  0  0  0  0  0  0  0
   -4.1765   -0.6337   -3.5964 C   0  0  0  0  0  0  0  0  0  0  0  0
   -5.2894   -1.2292   -4.1072 O   0  0  0  0  0  0  0  0  0  0  0  0
   -6.4739   -1.1620   -3.3590 C   0  0  0  0  0  0  0  0  0  0  0  0
   -3.0163   -0.7249   -4.4378 C   0  0  0  0  0  0  0  0  0  0  0  0
   -3.2396   -1.3480   -5.6268 O   0  0  0  0  0  0  0  0  0  0  0  0
   -2.1680   -1.4702   -6.5255 C   0  0  0  0  0  0  0  0  0  0  0  0
   -1.8204   -0.2086   -4.0245 C   0  0  0  0  0  0  0  0  0  0  0  0
   -1.7176    0.4292   -2.7692 C   0  0  0  0  0  0  0  0  0  0  0  0
   -0.5851    1.0097   -2.1871 C   0  0  0  0  0  0  0  0  0  0  0  0
    0.7946    1.0101   -2.5063 C   0  0  0  0  0  0  0  0  0  0  0  0
    1.4523    0.1341   -3.3011 C   0  0  0  0  0  0  0  0  0  0  0  0
    2.8763    0.0908   -3.4714 C   0  0  0  0  0  0  0  0  0  0  0  0
    3.4942   -1.0820   -4.0203 C   0  0  0  0  0  0  0  0  0  0  0  0
    2.8978   -2.2281   -4.4813 C   0  0  0  0  0  0  0  0  0  0  0  0
    4.0334   -3.3944   -4.9993 S   0  0  0  0  0  0  0  0  0  0  0  0
    5.3446   -2.3762   -4.6089 C   0  0  0  0  0  0  0  0  0  0  0  0
    4.9286   -1.1681   -4.0959 C   0  0  0  0  0  0  0  0  0  0  0  0
    5.7508   -0.0840   -3.6625 C   0  0  0  0  0  0  0  0  0  0  0  0
    7.1193   -0.2113   -3.7308 N   0  0  0  0  0  0  0  0  0  0  0  0
    5.1255    1.0677   -3.2012 C   0  0  0  0  0  0  0  0  0  0  0  0
    3.7195    1.1106   -3.0922 C   0  0  0  0  0  0  0  0  0  0  0  0
    5.8586    2.2534   -2.7670 C   0  0  0  0  0  0  0  0  0  0  0  0
    6.9868    2.7267   -3.2854 C   0  0  0  0  0  0  0  0  0  0  0  0
    4.4872   -3.6092   -1.6317 H   0  0  0  0  0  0  0  0  0  0  0  0
    6.8587   -2.1886   -1.1329 H   0  0  0  0  0  0  0  0  0  0  0  0
    4.8114    1.4050    0.6688 H   0  0  0  0  0  0  0  0  0  0  0  0
    2.6186    1.2110    1.0631 H   0  0  0  0  0  0  0  0  0  0  0  0
    1.0875    0.5769    0.6770 H   0  0  0  0  0  0  0  0  0  0  0  0
    2.0405   -3.5036   -1.4861 H   0  0  0  0  0  0  0  0  0  0  0  0
    0.0504   -1.0563    0.3267 H   0  0  0  0  0  0  0  0  0  0  0  0
    0.1492   -2.7405   -2.2070 H   0  0  0  0  0  0  0  0  0  0  0  0
   -1.0600   -3.5223   -3.8814 H   0  0  0  0  0  0  0  0  0  0  0  0
   -5.3897   -4.5267   -3.1938 H   0  0  0  0  0  0  0  0  0  0  0  0
   -6.1984   -3.3583    0.3254 H   0  0  0  0  0  0  0  0  0  0  0  0
   -6.2728   -3.9911   -1.2501 H   0  0  0  0  0  0  0  0  0  0  0  0
   -1.9251   -1.4824    0.6592 H   0  0  0  0  0  0  0  0  0  0  0  0
   -5.2937   -2.0825    1.6666 H   0  0  0  0  0  0  0  0  0  0  0  0
   -3.9862   -2.0972    3.6334 H   0  0  0  0  0  0  0  0  0  0  0  0
   -3.0307   -4.9547    1.2736 H   0  0  0  0  0  0  0  0  0  0  0  0
    1.4720   -5.0743    1.0444 H   0  0  0  0  0  0  0  0  0  0  0  0
    2.6368   -1.8485    2.6952 H   0  0  0  0  0  0  0  0  0  0  0  0
    2.5118   -3.1761    1.6637 H   0  0  0  0  0  0  0  0  0  0  0  0
   -1.7455   -1.0469    4.1497 H   0  0  0  0  0  0  0  0  0  0  0  0
    1.8067   -1.0844    4.6118 H   0  0  0  0  0  0  0  0  0  0  0  0
    1.1106    1.1171    5.0566 H   0  0  0  0  0  0  0  0  0  0  0  0
   -0.1767    2.6085    6.1762 H   0  0  0  0  0  0  0  0  0  0  0  0
    0.4323    4.4275    7.5354 H   0  0  0  0  0  0  0  0  0  0  0  0
   -0.6194    5.0223    8.8448 H   0  0  0  0  0  0  0  0  0  0  0  0
   -0.7100    3.3155    8.3417 H   0  0  0  0  0  0  0  0  0  0  0  0
   -5.3077    5.4278    4.7168 H   0  0  0  0  0  0  0  0  0  0  0  0
   -4.1674    6.5381    3.9058 H   0  0  0  0  0  0  0  0  0  0  0  0
   -4.8942    6.9890    5.4689 H   0  0  0  0  0  0  0  0  0  0  0  0
   -3.8375    4.3095    3.2698 H   0  0  0  0  0  0  0  0  0  0  0  0
   -4.3937    2.6950    1.8265 H   0  0  0  0  0  0  0  0  0  0  0  0
   -4.6675    1.7546   -0.2780 H   0  0  0  0  0  0  0  0  0  0  0  0
   -4.9732    0.1177   -1.7654 H   0  0  0  0  0  0  0  0  0  0  0  0
   -6.3504   -1.6172   -2.3703 H   0  0  0  0  0  0  0  0  0  0  0  0
   -7.2161   -1.7202   -3.9280 H   0  0  0  0  0  0  0  0  0  0  0  0
   -6.8156   -0.1282   -3.2367 H   0  0  0  0  0  0  0  0  0  0  0  0
   -1.7824   -0.4912   -6.8298 H   0  0  0  0  0  0  0  0  0  0  0  0
   -2.5705   -1.9873   -7.3949 H   0  0  0  0  0  0  0  0  0  0  0  0
   -1.3509   -2.0628   -6.1012 H   0  0  0  0  0  0  0  0  0  0  0  0
   -0.9510   -0.2527   -4.6569 H   0  0  0  0  0  0  0  0  0  0  0  0
    1.3718    1.7292   -1.9410 H   0  0  0  0  0  0  0  0  0  0  0  0
    0.8935   -0.6541   -3.7783 H   0  0  0  0  0  0  0  0  0  0  0  0
    1.8562   -2.4657   -4.5483 H   0  0  0  0  0  0  0  0  0  0  0  0
    6.3402   -2.7223   -4.8037 H   0  0  0  0  0  0  0  0  0  0  0  0
    7.4668   -1.1563   -3.7498 H   0  0  0  0  0  0  0  0  0  0  0  0
    7.6345    0.4134   -3.1273 H   0  0  0  0  0  0  0  0  0  0  0  0
    3.2936    2.0203   -2.6968 H   0  0  0  0  0  0  0  0  0  0  0  0
    5.3826    2.8043   -1.9636 H   0  0  0  0  0  0  0  0  0  0  0  0
    7.4669    2.2769   -4.1376 H   0  0  0  0  0  0  0  0  0  0  0  0
    7.4435    3.6234   -2.9010 H   0  0  0  0  0  0  0  0  0  0  0  0
  1  2  1  0  0  0  0
  2  3  2  0  0  0  0
  3  4  1  0  0  0  0
  4  5  1  0  0  0  0
  5  6  2  0  0  0  0
  6  7  1  0  0  0  0
  7  8  1  0  0  0  0
  7  9  2  0  0  0  0
  9 10  1  0  0  0  0
  9 11  1  0  0  0  0
 11 12  2  0  0  0  0
 12 13  1  0  0  0  0
 13 14  1  0  0  0  0
 14 15  2  0  0  0  0
 15 16  1  0  0  0  0
 16 17  1  0  0  0  0
 17 18  2  0  0  0  0
 18 19  1  0  0  0  0
 19 20  1  0  0  0  0
 19 21  2  0  0  0  0
 21 22  1  0  0  0  0
 21 23  1  0  0  0  0
 23 24  2  0  0  0  0
 24 25  1  0  0  0  0
 25 26  1  0  0  0  0
 26 27  2  0  0  0  0
 27 28  1  0  0  0  0
 28 29  1  0  0  0  0
 29 30  2  0  0  0  0
 30 31  1  0  0  0  0
 31 32  1  0  0  0  0
 31 33  2  0  0  0  0
 33 34  1  0  0  0  0
 33 35  1  0  0  0  0
 35 36  2  0  0  0  0
 36 37  1  0  0  0  0
 37 38  1  0  0  0  0
 37 39  2  0  0  0  0
 39 40  1  0  0  0  0
 40 41  2  0  0  0  0
 41 42  1  0  0  0  0
 42 43  1  0  0  0  0
 41 44  1  0  0  0  0
 44 45  1  0  0  0  0
 45 46  1  0  0  0  0
 44 47  2  0  0  0  0
 47 48  1  0  0  0  0
 48 49  2  0  0  0  0
 49 50  1  0  0  0  0
 50 51  2  0  0  0  0
 51 52  1  0  0  0  0
 52 53  1  0  0  0  0
 52 54  2  0  0  0  0
 54 55  1  0  0  0  0
 55 56  2  0  0  0  0
 56 57  1  0  0  0  0
 57 58  1  0  0  0  0
 56 59  1  0  0  0  0
 59 60  1  0  0  0  0
 60 61  1  0  0  0  0
 59 62  2  0  0  0  0
 62 63  1  0  0  0  0
 63 64  2  0  0  0  0
 64 65  1  0  0  0  0
 65 66  2  0  0  0  0
 66 67  1  0  0  0  0
 67 68  1  0  0  0  0
 68 69  2  0  0  0  0
 69 70  1  0  0  0  0
 70 71  1  0  0  0  0
 71 72  2  0  0  0  0
 72 73  1  0  0  0  0
 73 74  1  0  0  0  0
 73 75  2  0  0  0  0
 75 76  1  0  0  0  0
 75 77  1  0  0  0  0
 77 78  2  0  0  0  0
 10  1  2  0  0  0  0
 22 13  2  0  0  0  0
 34 25  2  0  0  0  0
 49 38  1  0  0  0  0
 64 53  1  0  0  0  0
 76 67  2  0  0  0  0
  6  2  1  0  0  0  0
 18 14  1  0  0  0  0
 30 26  1  0  0  0  0
 48 39  1  0  0  0  0
 63 54  1  0  0  0  0
 72 68  1  0  0  0  0
  1 79  1  0  0  0  0
  3 80  1  0  0  0  0
  5 81  1  0  0  0  0
  8 82  1  0  0  0  0
  8 83  1  0  0  0  0
 10 84  1  0  0  0  0
 11 85  1  0  0  0  0
 12 86  1  0  0  0  0
 15 87  1  0  0  0  0
 17 88  1  0  0  0  0
 20 89  1  0  0  0  0
 20 90  1  0  0  0  0
 22 91  1  0  0  0  0
 23 92  1  0  0  0  0
 24 93  1  0  0  0  0
 27 94  1  0  0  0  0
 29 95  1  0  0  0  0
 32 96  1  0  0  0  0
 32 97  1  0  0  0  0
 34 98  1  0  0  0  0
 35 99  1  0  0  0  0
 36100  1  0  0  0  0
 40101  1  0  0  0  0
 43102  1  0  0  0  0
 43103  1  0  0  0  0
 43104  1  0  0  0  0
 46105  1  0  0  0  0
 46106  1  0  0  0  0
 46107  1  0  0  0  0
 47108  1  0  0  0  0
 50109  1  0  0  0  0
 51110  1  0  0  0  0
 55111  1  0  0  0  0
 58112  1  0  0  0  0
 58113  1  0  0  0  0
 58114  1  0  0  0  0
 61115  1  0  0  0  0
 61116  1  0  0  0  0
 61117  1  0  0  0  0
 62118  1  0  0  0  0
 65119  1  0  0  0  0
 66120  1  0  0  0  0
 69121  1  0  0  0  0
 71122  1  0  0  0  0
 74123  1  0  0  0  0
 74124  1  0  0  0  0
 76125  1  0  0  0  0
 77126  1  0  0  0  0
 78127  1  0  0  0  0
 78128  1  0  0  0  0
M  END
