
  xtb     03042211373D
 energy: -389.554266094551 gnorm: 0.000336429356 xtb: 6.4.1 (unknown)
227247  0     0  0            999 V2000
   -3.1873    3.4397   11.1646 C   0  0  0  0  0  0  0  0  0  0  0  0
   -2.3541    3.9743   10.2504 C   0  0  0  0  0  0  0  0  0  0  0  0
   -2.5402    3.4321    8.9430 C   0  0  0  0  0  0  0  0  0  0  0  0
   -1.8339    3.7373    7.7702 C   0  0  0  0  0  0  0  0  0  0  0  0
   -0.7107    4.6837    7.7749 C   0  0  0  0  0  0  0  0  0  0  0  0
    0.3477    4.5348    8.6657 C   0  0  0  0  0  0  0  0  0  0  0  0
    1.4075    5.4216    8.6724 C   0  0  0  0  0  0  0  0  0  0  0  0
    1.4453    6.4915    7.7857 C   0  0  0  0  0  0  0  0  0  0  0  0
    2.7117    7.7150    7.7104 S   0  0  0  0  0  0  0  0  0  0  0  0
    4.1106    6.9653    8.6141 C   0  0  0  0  0  0  0  0  0  0  0  0
    4.7195    5.7968    7.8628 C   0  0  0  0  0  0  0  0  0  0  0  0
    0.3740    6.6309    6.9012 C   0  0  0  0  0  0  0  0  0  0  0  0
    0.3697    7.6664    6.0394 F   0  0  0  0  0  0  0  0  0  0  0  0
   -0.6846    5.7514    6.8805 C   0  0  0  0  0  0  0  0  0  0  0  0
   -2.2460    3.0977    6.6106 C   0  0  0  0  0  0  0  0  0  0  0  0
   -3.3058    2.1588    6.5830 C   0  0  0  0  0  0  0  0  0  0  0  0
   -3.9740    1.8090    7.7665 C   0  0  0  0  0  0  0  0  0  0  0  0
   -4.9830    0.7443    7.7797 C   0  0  0  0  0  0  0  0  0  0  0  0
   -6.2215    0.9120    8.3897 C   0  0  0  0  0  0  0  0  0  0  0  0
   -7.1505   -0.1106    8.4144 C   0  0  0  0  0  0  0  0  0  0  0  0
   -6.8694   -1.3459    7.8418 C   0  0  0  0  0  0  0  0  0  0  0  0
   -7.9569   -2.7302    7.8004 S   0  0  0  0  0  0  0  0  0  0  0  0
   -9.2453   -2.3224    9.0275 C   0  0  0  0  0  0  0  0  0  0  0  0
   -8.7206   -2.3660   10.4502 C   0  0  0  0  0  0  0  0  0  0  0  0
   -5.6253   -1.4969    7.2262 C   0  0  0  0  0  0  0  0  0  0  0  0
   -4.6949   -0.4850    7.1870 C   0  0  0  0  0  0  0  0  0  0  0  0
   -5.3119   -2.6789    6.6540 F   0  0  0  0  0  0  0  0  0  0  0  0
   -3.5865    2.4794    8.9182 C   0  0  0  0  0  0  0  0  0  0  0  0
   -4.2616    2.2493   10.5116 S   0  0  0  0  0  0  0  0  0  0  0  0
   -3.5522    1.6808    5.2702 C   0  0  0  0  0  0  0  0  0  0  0  0
   -2.6868    2.1695    4.3405 C   0  0  0  0  0  0  0  0  0  0  0  0
   -1.5214    3.2815    5.0322 S   0  0  0  0  0  0  0  0  0  0  0  0
   -2.6502    1.8454    2.9500 C   0  0  0  0  0  0  0  0  0  0  0  0
   -1.6046    1.9466    2.0856 C   0  0  0  0  0  0  0  0  0  0  0  0
   -1.8881    1.4333    0.7934 C   0  0  0  0  0  0  0  0  0  0  0  0
   -1.0184    1.3511   -0.3040 C   0  0  0  0  0  0  0  0  0  0  0  0
    0.3235    1.9543   -0.2474 C   0  0  0  0  0  0  0  0  0  0  0  0
    1.3107    1.5013    0.6171 C   0  0  0  0  0  0  0  0  0  0  0  0
    2.5485    2.1158    0.6705 C   0  0  0  0  0  0  0  0  0  0  0  0
    2.8200    3.2365   -0.1048 C   0  0  0  0  0  0  0  0  0  0  0  0
    4.3292    4.1452   -0.0919 S   0  0  0  0  0  0  0  0  0  0  0  0
    5.4873    3.0214    0.7725 C   0  0  0  0  0  0  0  0  0  0  0  0
    6.8690    3.6470    0.7539 C   0  0  0  0  0  0  0  0  0  0  0  0
    1.8034    3.7011   -0.9411 C   0  0  0  0  0  0  0  0  0  0  0  0
    2.0085    4.8199   -1.6651 F   0  0  0  0  0  0  0  0  0  0  0  0
    0.5881    3.0651   -1.0438 C   0  0  0  0  0  0  0  0  0  0  0  0
   -1.5114    0.7356   -1.4419 C   0  0  0  0  0  0  0  0  0  0  0  0
   -2.8587    0.3184   -1.5640 C   0  0  0  0  0  0  0  0  0  0  0  0
   -3.7607    0.4960   -0.5020 C   0  0  0  0  0  0  0  0  0  0  0  0
   -5.1891    0.2231   -0.6854 C   0  0  0  0  0  0  0  0  0  0  0  0
   -5.8432    0.7335   -1.8057 C   0  0  0  0  0  0  0  0  0  0  0  0
   -7.1886    0.5090   -2.0136 C   0  0  0  0  0  0  0  0  0  0  0  0
   -7.9289   -0.2548   -1.1181 C   0  0  0  0  0  0  0  0  0  0  0  0
   -9.6445   -0.6224   -1.3047 S   0  0  0  0  0  0  0  0  0  0  0  0
   -9.8920   -0.5287   -3.1139 C   0  0  0  0  0  0  0  0  0  0  0  0
   -9.0823   -1.5725   -3.8594 C   0  0  0  0  0  0  0  0  0  0  0  0
   -7.2708   -0.7341    0.0141 C   0  0  0  0  0  0  0  0  0  0  0  0
   -5.9321   -0.5020    0.2408 C   0  0  0  0  0  0  0  0  0  0  0  0
   -7.9617   -1.4535    0.9190 F   0  0  0  0  0  0  0  0  0  0  0  0
   -3.2262    0.9797    0.6827 C   0  0  0  0  0  0  0  0  0  0  0  0
   -4.0791    1.1634    2.1922 S   0  0  0  0  0  0  0  0  0  0  0  0
   -3.0994   -0.3336   -2.7988 C   0  0  0  0  0  0  0  0  0  0  0  0
   -1.9957   -0.4337   -3.5914 C   0  0  0  0  0  0  0  0  0  0  0  0
   -0.5874    0.3238   -2.8631 S   0  0  0  0  0  0  0  0  0  0  0  0
   -1.9293   -1.0827   -4.8643 C   0  0  0  0  0  0  0  0  0  0  0  0
   -0.6527   -2.1845   -5.2577 S   0  0  0  0  0  0  0  0  0  0  0  0
   -2.8667   -1.0293   -5.8914 C   0  0  0  0  0  0  0  0  0  0  0  0
   -4.0527   -0.2654   -5.9452 C   0  0  0  0  0  0  0  0  0  0  0  0
   -4.8964   -0.3546   -7.0188 C   0  0  0  0  0  0  0  0  0  0  0  0
   -6.0919    0.3084   -7.0879 O   0  0  0  0  0  0  0  0  0  0  0  0
   -6.4929    1.0821   -5.9854 C   0  0  0  0  0  0  0  0  0  0  0  0
   -4.5561   -1.1984   -8.1339 C   0  0  0  0  0  0  0  0  0  0  0  0
   -5.3133   -1.3820   -9.2509 O   0  0  0  0  0  0  0  0  0  0  0  0
   -6.2946   -0.4479   -9.6430 C   0  0  0  0  0  0  0  0  0  0  0  0
   -3.3987   -1.9330   -8.0984 C   0  0  0  0  0  0  0  0  0  0  0  0
   -2.5313   -1.8761   -6.9916 C   0  0  0  0  0  0  0  0  0  0  0  0
   -1.3691   -2.6132   -6.7731 C   0  0  0  0  0  0  0  0  0  0  0  0
   -0.7732   -3.5910   -7.6355 C   0  0  0  0  0  0  0  0  0  0  0  0
   -0.2054   -4.7572   -7.2629 C   0  0  0  0  0  0  0  0  0  0  0  0
   -0.2692   -5.4189   -5.9930 C   0  0  0  0  0  0  0  0  0  0  0  0
    1.0539   -6.4592   -5.5538 S   0  0  0  0  0  0  0  0  0  0  0  0
   -1.2887   -5.5196   -5.0478 C   0  0  0  0  0  0  0  0  0  0  0  0
   -2.5664   -4.9107   -5.0659 C   0  0  0  0  0  0  0  0  0  0  0  0
   -3.4312   -5.1009   -4.0283 C   0  0  0  0  0  0  0  0  0  0  0  0
   -4.6735   -4.5636   -3.9299 O   0  0  0  0  0  0  0  0  0  0  0  0
   -5.1513   -3.7770   -4.9913 C   0  0  0  0  0  0  0  0  0  0  0  0
   -3.0617   -5.9233   -2.8989 C   0  0  0  0  0  0  0  0  0  0  0  0
   -3.9900   -5.9519   -1.9112 O   0  0  0  0  0  0  0  0  0  0  0  0
   -3.6742   -6.6277   -0.7206 C   0  0  0  0  0  0  0  0  0  0  0  0
   -1.8726   -6.5891   -2.8984 C   0  0  0  0  0  0  0  0  0  0  0  0
   -0.9732   -6.4243   -3.9821 C   0  0  0  0  0  0  0  0  0  0  0  0
    0.2658   -7.0219   -4.1204 C   0  0  0  0  0  0  0  0  0  0  0  0
    0.9309   -8.0138   -3.2890 C   0  0  0  0  0  0  0  0  0  0  0  0
    2.1171   -7.7931   -2.7116 C   0  0  0  0  0  0  0  0  0  0  0  0
    2.6637   -6.4537   -2.6624 C   0  0  0  0  0  0  0  0  0  0  0  0
    1.9545   -5.3481   -2.3194 C   0  0  0  0  0  0  0  0  0  0  0  0
    2.6853   -4.1374   -2.4187 C   0  0  0  0  0  0  0  0  0  0  0  0
    2.2430   -2.8390   -2.1151 C   0  0  0  0  0  0  0  0  0  0  0  0
    0.9124   -2.6382   -1.5266 C   0  0  0  0  0  0  0  0  0  0  0  0
   -0.2410   -3.1823   -2.0912 C   0  0  0  0  0  0  0  0  0  0  0  0
   -1.4502   -3.0984   -1.4378 C   0  0  0  0  0  0  0  0  0  0  0  0
   -1.5639   -2.4910   -0.1860 C   0  0  0  0  0  0  0  0  0  0  0  0
   -3.1536   -2.5531    0.5720 S   0  0  0  0  0  0  0  0  0  0  0  0
   -2.8265   -2.4109    2.3775 C   0  0  0  0  0  0  0  0  0  0  0  0
   -4.0409   -2.9065    3.1379 C   0  0  0  0  0  0  0  0  0  0  0  0
   -0.4197   -1.8945    0.3320 C   0  0  0  0  0  0  0  0  0  0  0  0
   -0.4477   -1.2385    1.5186 F   0  0  0  0  0  0  0  0  0  0  0  0
    0.7968   -1.9633   -0.3168 C   0  0  0  0  0  0  0  0  0  0  0  0
    3.1496   -1.8125   -2.3259 C   0  0  0  0  0  0  0  0  0  0  0  0
    4.4767   -2.0403   -2.7696 C   0  0  0  0  0  0  0  0  0  0  0  0
    4.9392   -3.3467   -2.9987 C   0  0  0  0  0  0  0  0  0  0  0  0
    6.3389   -3.6103   -3.3501 C   0  0  0  0  0  0  0  0  0  0  0  0
    6.6801   -4.4110   -4.4378 C   0  0  0  0  0  0  0  0  0  0  0  0
    8.0023   -4.6757   -4.7273 C   0  0  0  0  0  0  0  0  0  0  0  0
    9.0310   -4.1565   -3.9466 C   0  0  0  0  0  0  0  0  0  0  0  0
   10.7036   -4.5252   -4.4046 S   0  0  0  0  0  0  0  0  0  0  0  0
   11.4382   -5.0592   -2.8137 C   0  0  0  0  0  0  0  0  0  0  0  0
   10.7094   -6.2530   -2.2301 C   0  0  0  0  0  0  0  0  0  0  0  0
    8.6777   -3.3396   -2.8783 C   0  0  0  0  0  0  0  0  0  0  0  0
    7.3601   -3.0719   -2.5719 C   0  0  0  0  0  0  0  0  0  0  0  0
    9.6293   -2.7768   -2.0941 F   0  0  0  0  0  0  0  0  0  0  0  0
    4.0135   -4.3675   -2.8487 C   0  0  0  0  0  0  0  0  0  0  0  0
    4.3184   -6.0718   -3.0844 S   0  0  0  0  0  0  0  0  0  0  0  0
    5.1773   -0.8301   -2.9939 C   0  0  0  0  0  0  0  0  0  0  0  0
    4.4387    0.2899   -2.7420 C   0  0  0  0  0  0  0  0  0  0  0  0
    2.8239   -0.1050   -2.1656 S   0  0  0  0  0  0  0  0  0  0  0  0
    4.8207    1.6481   -2.9356 C   0  0  0  0  0  0  0  0  0  0  0  0
    3.6530    2.8150   -3.4553 S   0  0  0  0  0  0  0  0  0  0  0  0
    6.0865    2.2264   -2.8316 C   0  0  0  0  0  0  0  0  0  0  0  0
    7.2863    1.6227   -2.4041 C   0  0  0  0  0  0  0  0  0  0  0  0
    8.4550    2.3352   -2.3485 C   0  0  0  0  0  0  0  0  0  0  0  0
    9.6395    1.7970   -1.9310 O   0  0  0  0  0  0  0  0  0  0  0  0
    9.7004    0.4138   -1.6835 C   0  0  0  0  0  0  0  0  0  0  0  0
    8.4630    3.7238   -2.7220 C   0  0  0  0  0  0  0  0  0  0  0  0
    9.5439    4.5528   -2.6833 O   0  0  0  0  0  0  0  0  0  0  0  0
   10.8627    4.0534   -2.6746 C   0  0  0  0  0  0  0  0  0  0  0  0
    7.2927    4.3278   -3.1078 C   0  0  0  0  0  0  0  0  0  0  0  0
    6.0825    3.6135   -3.1697 C   0  0  0  0  0  0  0  0  0  0  0  0
    4.8209    4.0823   -3.5434 C   0  0  0  0  0  0  0  0  0  0  0  0
    4.4714    5.4042   -3.9610 C   0  0  0  0  0  0  0  0  0  0  0  0
    3.2634    5.7772   -4.3831 C   0  0  0  0  0  0  0  0  0  0  0  0
   -3.2566    3.6705   12.2097 H   0  0  0  0  0  0  0  0  0  0  0  0
   -1.6337    4.7401   10.4736 H   0  0  0  0  0  0  0  0  0  0  0  0
    0.3513    3.7019    9.3531 H   0  0  0  0  0  0  0  0  0  0  0  0
    2.2039    5.2739    9.3838 H   0  0  0  0  0  0  0  0  0  0  0  0
    4.8239    7.7850    8.7000 H   0  0  0  0  0  0  0  0  0  0  0  0
    3.7778    6.6913    9.6144 H   0  0  0  0  0  0  0  0  0  0  0  0
    5.5716    5.4046    8.4148 H   0  0  0  0  0  0  0  0  0  0  0  0
    3.9935    4.9976    7.7283 H   0  0  0  0  0  0  0  0  0  0  0  0
    5.0585    6.1196    6.8813 H   0  0  0  0  0  0  0  0  0  0  0  0
   -1.4887    5.9142    6.1806 H   0  0  0  0  0  0  0  0  0  0  0  0
   -6.4743    1.8623    8.8341 H   0  0  0  0  0  0  0  0  0  0  0  0
   -8.1049    0.0693    8.8814 H   0  0  0  0  0  0  0  0  0  0  0  0
   -9.6798   -1.3570    8.7714 H   0  0  0  0  0  0  0  0  0  0  0  0
   -9.9993   -3.0935    8.8687 H   0  0  0  0  0  0  0  0  0  0  0  0
   -8.3229   -3.3535   10.6722 H   0  0  0  0  0  0  0  0  0  0  0  0
   -7.9272   -1.6364   10.5979 H   0  0  0  0  0  0  0  0  0  0  0  0
   -9.5266   -2.1500   11.1490 H   0  0  0  0  0  0  0  0  0  0  0  0
   -3.7386   -0.6669    6.7220 H   0  0  0  0  0  0  0  0  0  0  0  0
   -4.3473    1.0010    5.0209 H   0  0  0  0  0  0  0  0  0  0  0  0
   -0.6472    2.3466    2.3679 H   0  0  0  0  0  0  0  0  0  0  0  0
    1.1119    0.6568    1.2574 H   0  0  0  0  0  0  0  0  0  0  0  0
    3.2976    1.7239    1.3391 H   0  0  0  0  0  0  0  0  0  0  0  0
    5.1388    2.8887    1.7969 H   0  0  0  0  0  0  0  0  0  0  0  0
    5.4772    2.0688    0.2418 H   0  0  0  0  0  0  0  0  0  0  0  0
    7.5830    2.9843    1.2390 H   0  0  0  0  0  0  0  0  0  0  0  0
    6.8608    4.5979    1.2815 H   0  0  0  0  0  0  0  0  0  0  0  0
    7.1929    3.8238   -0.2688 H   0  0  0  0  0  0  0  0  0  0  0  0
   -0.1579    3.4558   -1.7181 H   0  0  0  0  0  0  0  0  0  0  0  0
   -5.2933    1.3422   -2.5084 H   0  0  0  0  0  0  0  0  0  0  0  0
   -7.6676    0.9470   -2.8754 H   0  0  0  0  0  0  0  0  0  0  0  0
  -10.9604   -0.7072   -3.2328 H   0  0  0  0  0  0  0  0  0  0  0  0
   -9.6721    0.4844   -3.4496 H   0  0  0  0  0  0  0  0  0  0  0  0
   -9.2748   -1.4996   -4.9283 H   0  0  0  0  0  0  0  0  0  0  0  0
   -9.3552   -2.5696   -3.5220 H   0  0  0  0  0  0  0  0  0  0  0  0
   -8.0166   -1.4340   -3.6862 H   0  0  0  0  0  0  0  0  0  0  0  0
   -5.4709   -0.9202    1.1194 H   0  0  0  0  0  0  0  0  0  0  0  0
   -4.0381   -0.7975   -3.0422 H   0  0  0  0  0  0  0  0  0  0  0  0
   -4.2748    0.3798   -5.1124 H   0  0  0  0  0  0  0  0  0  0  0  0
   -5.8151    1.9245   -5.8140 H   0  0  0  0  0  0  0  0  0  0  0  0
   -7.4808    1.4626   -6.2415 H   0  0  0  0  0  0  0  0  0  0  0  0
   -6.5569    0.4754   -5.0765 H   0  0  0  0  0  0  0  0  0  0  0  0
   -6.5430   -0.7135  -10.6709 H   0  0  0  0  0  0  0  0  0  0  0  0
   -5.9139    0.5752   -9.6152 H   0  0  0  0  0  0  0  0  0  0  0  0
   -7.1915   -0.5167   -9.0238 H   0  0  0  0  0  0  0  0  0  0  0  0
   -3.1676   -2.5643   -8.9409 H   0  0  0  0  0  0  0  0  0  0  0  0
   -0.7706   -3.3365   -8.6885 H   0  0  0  0  0  0  0  0  0  0  0  0
    0.3539   -5.2999   -8.0159 H   0  0  0  0  0  0  0  0  0  0  0  0
   -2.8425   -4.3093   -5.9138 H   0  0  0  0  0  0  0  0  0  0  0  0
   -6.1650   -3.4936   -4.7118 H   0  0  0  0  0  0  0  0  0  0  0  0
   -4.5451   -2.8762   -5.1323 H   0  0  0  0  0  0  0  0  0  0  0  0
   -5.1787   -4.3376   -5.9312 H   0  0  0  0  0  0  0  0  0  0  0  0
   -3.5605   -7.7045   -0.8851 H   0  0  0  0  0  0  0  0  0  0  0  0
   -4.5142   -6.4505   -0.0513 H   0  0  0  0  0  0  0  0  0  0  0  0
   -2.7587   -6.2311   -0.2689 H   0  0  0  0  0  0  0  0  0  0  0  0
   -1.5823   -7.2390   -2.0888 H   0  0  0  0  0  0  0  0  0  0  0  0
    0.4511   -8.9818   -3.2107 H   0  0  0  0  0  0  0  0  0  0  0  0
    2.6698   -8.5885   -2.2324 H   0  0  0  0  0  0  0  0  0  0  0  0
    0.9358   -5.4001   -1.9826 H   0  0  0  0  0  0  0  0  0  0  0  0
   -0.1894   -3.6745   -3.0491 H   0  0  0  0  0  0  0  0  0  0  0  0
   -2.3373   -3.5273   -1.8773 H   0  0  0  0  0  0  0  0  0  0  0  0
   -2.6136   -1.3687    2.6100 H   0  0  0  0  0  0  0  0  0  0  0  0
   -1.9520   -3.0226    2.5947 H   0  0  0  0  0  0  0  0  0  0  0  0
   -4.9098   -2.2853    2.9344 H   0  0  0  0  0  0  0  0  0  0  0  0
   -3.8451   -2.8791    4.2073 H   0  0  0  0  0  0  0  0  0  0  0  0
   -4.2791   -3.9293    2.8556 H   0  0  0  0  0  0  0  0  0  0  0  0
    1.6597   -1.5095    0.1448 H   0  0  0  0  0  0  0  0  0  0  0  0
    5.9029   -4.8213   -5.0632 H   0  0  0  0  0  0  0  0  0  0  0  0
    8.2637   -5.2972   -5.5694 H   0  0  0  0  0  0  0  0  0  0  0  0
   12.4637   -5.3141   -3.0797 H   0  0  0  0  0  0  0  0  0  0  0  0
   11.4492   -4.2137   -2.1293 H   0  0  0  0  0  0  0  0  0  0  0  0
    9.6803   -5.9964   -1.9837 H   0  0  0  0  0  0  0  0  0  0  0  0
   10.6978   -7.0771   -2.9400 H   0  0  0  0  0  0  0  0  0  0  0  0
   11.2103   -6.5809   -1.3213 H   0  0  0  0  0  0  0  0  0  0  0  0
    7.1355   -2.4553   -1.7149 H   0  0  0  0  0  0  0  0  0  0  0  0
    6.1619   -0.7981   -3.4228 H   0  0  0  0  0  0  0  0  0  0  0  0
    7.2597    0.5914   -2.0972 H   0  0  0  0  0  0  0  0  0  0  0  0
   10.7431    0.2003   -1.4554 H   0  0  0  0  0  0  0  0  0  0  0  0
    9.0810    0.1264   -0.8284 H   0  0  0  0  0  0  0  0  0  0  0  0
    9.3996   -0.1626   -2.5626 H   0  0  0  0  0  0  0  0  0  0  0  0
   11.1280    3.6221   -1.7071 H   0  0  0  0  0  0  0  0  0  0  0  0
   11.0191    3.3083   -3.4577 H   0  0  0  0  0  0  0  0  0  0  0  0
   11.4935    4.9208   -2.8703 H   0  0  0  0  0  0  0  0  0  0  0  0
    7.3281    5.3749   -3.3590 H   0  0  0  0  0  0  0  0  0  0  0  0
    5.2764    6.1248   -3.9183 H   0  0  0  0  0  0  0  0  0  0  0  0
    3.0571    6.7907   -4.6761 H   0  0  0  0  0  0  0  0  0  0  0  0
    2.4446    5.0795   -4.4316 H   0  0  0  0  0  0  0  0  0  0  0  0
  1  2  2  0  0  0  0
  2  3  1  0  0  0  0
  3  4  2  0  0  0  0
  4  5  1  0  0  0  0
  5  6  2  0  0  0  0
  6  7  1  0  0  0  0
  7  8  2  0  0  0  0
  8  9  1  0  0  0  0
  9 10  1  0  0  0  0
 10 11  1  0  0  0  0
  8 12  1  0  0  0  0
 12 13  1  0  0  0  0
 12 14  2  0  0  0  0
  4 15  1  0  0  0  0
 15 16  2  0  0  0  0
 16 17  1  0  0  0  0
 17 18  1  0  0  0  0
 18 19  2  0  0  0  0
 19 20  1  0  0  0  0
 20 21  2  0  0  0  0
 21 22  1  0  0  0  0
 22 23  1  0  0  0  0
 23 24  1  0  0  0  0
 21 25  1  0  0  0  0
 25 26  2  0  0  0  0
 25 27  1  0  0  0  0
 17 28  2  0  0  0  0
 28 29  1  0  0  0  0
 16 30  1  0  0  0  0
 30 31  2  0  0  0  0
 31 32  1  0  0  0  0
 31 33  1  0  0  0  0
 33 34  2  0  0  0  0
 34 35  1  0  0  0  0
 35 36  2  0  0  0  0
 36 37  1  0  0  0  0
 37 38  2  0  0  0  0
 38 39  1  0  0  0  0
 39 40  2  0  0  0  0
 40 41  1  0  0  0  0
 41 42  1  0  0  0  0
 42 43  1  0  0  0  0
 40 44  1  0  0  0  0
 44 45  1  0  0  0  0
 44 46  2  0  0  0  0
 36 47  1  0  0  0  0
 47 48  2  0  0  0  0
 48 49  1  0  0  0  0
 49 50  1  0  0  0  0
 50 51  2  0  0  0  0
 51 52  1  0  0  0  0
 52 53  2  0  0  0  0
 53 54  1  0  0  0  0
 54 55  1  0  0  0  0
 55 56  1  0  0  0  0
 53 57  1  0  0  0  0
 57 58  2  0  0  0  0
 57 59  1  0  0  0  0
 49 60  2  0  0  0  0
 60 61  1  0  0  0  0
 48 62  1  0  0  0  0
 62 63  2  0  0  0  0
 63 64  1  0  0  0  0
 63 65  1  0  0  0  0
 65 66  1  0  0  0  0
 65 67  2  0  0  0  0
 67 68  1  0  0  0  0
 68 69  2  0  0  0  0
 69 70  1  0  0  0  0
 70 71  1  0  0  0  0
 69 72  1  0  0  0  0
 72 73  1  0  0  0  0
 73 74  1  0  0  0  0
 72 75  2  0  0  0  0
 75 76  1  0  0  0  0
 76 77  2  0  0  0  0
 77 78  1  0  0  0  0
 78 79  2  0  0  0  0
 79 80  1  0  0  0  0
 80 81  1  0  0  0  0
 80 82  2  0  0  0  0
 82 83  1  0  0  0  0
 83 84  2  0  0  0  0
 84 85  1  0  0  0  0
 85 86  1  0  0  0  0
 84 87  1  0  0  0  0
 87 88  1  0  0  0  0
 88 89  1  0  0  0  0
 87 90  2  0  0  0  0
 90 91  1  0  0  0  0
 91 92  2  0  0  0  0
 92 93  1  0  0  0  0
 93 94  2  0  0  0  0
 94 95  1  0  0  0  0
 95 96  2  0  0  0  0
 96 97  1  0  0  0  0
 97 98  2  0  0  0  0
 98 99  1  0  0  0  0
 99100  2  0  0  0  0
100101  1  0  0  0  0
101102  2  0  0  0  0
102103  1  0  0  0  0
103104  1  0  0  0  0
104105  1  0  0  0  0
102106  1  0  0  0  0
106107  1  0  0  0  0
106108  2  0  0  0  0
 98109  1  0  0  0  0
109110  2  0  0  0  0
110111  1  0  0  0  0
111112  1  0  0  0  0
112113  2  0  0  0  0
113114  1  0  0  0  0
114115  2  0  0  0  0
115116  1  0  0  0  0
116117  1  0  0  0  0
117118  1  0  0  0  0
115119  1  0  0  0  0
119120  2  0  0  0  0
119121  1  0  0  0  0
111122  2  0  0  0  0
122123  1  0  0  0  0
110124  1  0  0  0  0
124125  2  0  0  0  0
125126  1  0  0  0  0
125127  1  0  0  0  0
127128  1  0  0  0  0
127129  2  0  0  0  0
129130  1  0  0  0  0
130131  2  0  0  0  0
131132  1  0  0  0  0
132133  1  0  0  0  0
131134  1  0  0  0  0
134135  1  0  0  0  0
135136  1  0  0  0  0
134137  2  0  0  0  0
137138  1  0  0  0  0
138139  2  0  0  0  0
139140  1  0  0  0  0
140141  2  0  0  0  0
 29  1  1  0  0  0  0
 61 33  1  0  0  0  0
 77 66  1  0  0  0  0
 92 81  1  0  0  0  0
123 95  1  0  0  0  0
139128  1  0  0  0  0
 28  3  1  0  0  0  0
 60 35  1  0  0  0  0
 76 67  1  0  0  0  0
 91 82  1  0  0  0  0
122 97  1  0  0  0  0
138129  1  0  0  0  0
 14  5  1  0  0  0  0
 32 15  1  0  0  0  0
 46 37  1  0  0  0  0
 64 47  1  0  0  0  0
108 99  1  0  0  0  0
126109  1  0  0  0  0
 26 18  1  0  0  0  0
 58 50  1  0  0  0  0
120112  1  0  0  0  0
  1142  1  0  0  0  0
  2143  1  0  0  0  0
  6144  1  0  0  0  0
  7145  1  0  0  0  0
 10146  1  0  0  0  0
 10147  1  0  0  0  0
 11148  1  0  0  0  0
 11149  1  0  0  0  0
 11150  1  0  0  0  0
 14151  1  0  0  0  0
 19152  1  0  0  0  0
 20153  1  0  0  0  0
 23154  1  0  0  0  0
 23155  1  0  0  0  0
 24156  1  0  0  0  0
 24157  1  0  0  0  0
 24158  1  0  0  0  0
 26159  1  0  0  0  0
 30160  1  0  0  0  0
 34161  1  0  0  0  0
 38162  1  0  0  0  0
 39163  1  0  0  0  0
 42164  1  0  0  0  0
 42165  1  0  0  0  0
 43166  1  0  0  0  0
 43167  1  0  0  0  0
 43168  1  0  0  0  0
 46169  1  0  0  0  0
 51170  1  0  0  0  0
 52171  1  0  0  0  0
 55172  1  0  0  0  0
 55173  1  0  0  0  0
 56174  1  0  0  0  0
 56175  1  0  0  0  0
 56176  1  0  0  0  0
 58177  1  0  0  0  0
 62178  1  0  0  0  0
 68179  1  0  0  0  0
 71180  1  0  0  0  0
 71181  1  0  0  0  0
 71182  1  0  0  0  0
 74183  1  0  0  0  0
 74184  1  0  0  0  0
 74185  1  0  0  0  0
 75186  1  0  0  0  0
 78187  1  0  0  0  0
 79188  1  0  0  0  0
 83189  1  0  0  0  0
 86190  1  0  0  0  0
 86191  1  0  0  0  0
 86192  1  0  0  0  0
 89193  1  0  0  0  0
 89194  1  0  0  0  0
 89195  1  0  0  0  0
 90196  1  0  0  0  0
 93197  1  0  0  0  0
 94198  1  0  0  0  0
 96199  1  0  0  0  0
100200  1  0  0  0  0
101201  1  0  0  0  0
104202  1  0  0  0  0
104203  1  0  0  0  0
105204  1  0  0  0  0
105205  1  0  0  0  0
105206  1  0  0  0  0
108207  1  0  0  0  0
113208  1  0  0  0  0
114209  1  0  0  0  0
117210  1  0  0  0  0
117211  1  0  0  0  0
118212  1  0  0  0  0
118213  1  0  0  0  0
118214  1  0  0  0  0
120215  1  0  0  0  0
124216  1  0  0  0  0
130217  1  0  0  0  0
133218  1  0  0  0  0
133219  1  0  0  0  0
133220  1  0  0  0  0
136221  1  0  0  0  0
136222  1  0  0  0  0
136223  1  0  0  0  0
137224  1  0  0  0  0
140225  1  0  0  0  0
141226  1  0  0  0  0
141227  1  0  0  0  0
M  END
