
  xtb     03032220443D
 energy: -217.690825116584 gnorm: 0.000172705423 xtb: 6.4.1 (unknown)
128143  0     0  0            999 V2000
    5.2291    0.0550    0.8414 C   0  0  0  0  0  0  0  0  0  0  0  0
    4.8614    1.6472    1.3469 S   0  0  0  0  0  0  0  0  0  0  0  0
    4.3742   -0.3896   -0.1381 C   0  0  0  0  0  0  0  0  0  0  0  0
    4.3502   -1.6606   -0.7663 C   0  0  0  0  0  0  0  0  0  0  0  0
    3.3857   -1.9383   -1.6864 C   0  0  0  0  0  0  0  0  0  0  0  0
    3.2488   -3.1092   -2.3595 O   0  0  0  0  0  0  0  0  0  0  0  0
    4.2079   -4.1119   -2.1403 C   0  0  0  0  0  0  0  0  0  0  0  0
    2.3794   -0.9541   -2.0165 C   0  0  0  0  0  0  0  0  0  0  0  0
    1.4560   -1.3941   -2.9080 O   0  0  0  0  0  0  0  0  0  0  0  0
    0.3981   -0.5351   -3.2456 C   0  0  0  0  0  0  0  0  0  0  0  0
    2.4014    0.2838   -1.4448 C   0  0  0  0  0  0  0  0  0  0  0  0
    3.4074    0.6026   -0.5022 C   0  0  0  0  0  0  0  0  0  0  0  0
    3.5425    1.7789    0.2252 C   0  0  0  0  0  0  0  0  0  0  0  0
    2.7939    2.9924    0.0842 C   0  0  0  0  0  0  0  0  0  0  0  0
    2.4428    3.8523    1.0647 C   0  0  0  0  0  0  0  0  0  0  0  0
    2.4930    3.6274    2.4760 C   0  0  0  0  0  0  0  0  0  0  0  0
    2.6780    4.9874    3.5410 S   0  0  0  0  0  0  0  0  0  0  0  0
    2.2751    2.4637    3.2152 C   0  0  0  0  0  0  0  0  0  0  0  0
    1.9359    1.1773    2.7353 C   0  0  0  0  0  0  0  0  0  0  0  0
    1.7326    0.1471    3.6065 C   0  0  0  0  0  0  0  0  0  0  0  0
    1.3896   -1.1193    3.2571 O   0  0  0  0  0  0  0  0  0  0  0  0
    1.2156   -1.4088    1.8927 C   0  0  0  0  0  0  0  0  0  0  0  0
    1.8871    0.3510    5.0246 C   0  0  0  0  0  0  0  0  0  0  0  0
    1.7004   -0.7643    5.7781 O   0  0  0  0  0  0  0  0  0  0  0  0
    1.7685   -0.6332    7.1747 C   0  0  0  0  0  0  0  0  0  0  0  0
    2.1707    1.5926    5.5101 C   0  0  0  0  0  0  0  0  0  0  0  0
    2.3059    2.6871    4.6234 C   0  0  0  0  0  0  0  0  0  0  0  0
    2.4545    4.0282    4.9671 C   0  0  0  0  0  0  0  0  0  0  0  0
    2.3958    4.6396    6.2657 C   0  0  0  0  0  0  0  0  0  0  0  0
    1.5173    4.3201    7.2401 C   0  0  0  0  0  0  0  0  0  0  0  0
    0.3840    3.4476    7.1043 C   0  0  0  0  0  0  0  0  0  0  0  0
   -0.1719    2.6344    8.0731 C   0  0  0  0  0  0  0  0  0  0  0  0
   -1.2250    1.8585    7.5841 C   0  0  0  0  0  0  0  0  0  0  0  0
   -1.4931    2.1183    6.2437 C   0  0  0  0  0  0  0  0  0  0  0  0
   -0.4741    3.3222    5.5794 S   0  0  0  0  0  0  0  0  0  0  0  0
   -2.4842    1.2250    5.7856 C   0  0  0  0  0  0  0  0  0  0  0  0
   -2.8648    0.3844    6.8294 C   0  0  0  0  0  0  0  0  0  0  0  0
   -2.1160    0.7529    8.0809 C   0  0  0  0  0  0  0  0  0  0  0  0
   -3.7741   -0.5895    6.4259 C   0  0  0  0  0  0  0  0  0  0  0  0
   -4.0847   -0.5031    5.0777 C   0  0  0  0  0  0  0  0  0  0  0  0
   -3.2453    0.8356    4.3037 S   0  0  0  0  0  0  0  0  0  0  0  0
   -4.8820   -1.3842    4.3023 C   0  0  0  0  0  0  0  0  0  0  0  0
   -5.0564   -1.2221    2.9682 C   0  0  0  0  0  0  0  0  0  0  0  0
   -5.6866   -2.1066    2.0598 C   0  0  0  0  0  0  0  0  0  0  0  0
   -6.2751   -3.3484    2.2454 C   0  0  0  0  0  0  0  0  0  0  0  0
   -6.6481   -3.9437    1.0448 C   0  0  0  0  0  0  0  0  0  0  0  0
   -6.3558   -3.1518   -0.0664 C   0  0  0  0  0  0  0  0  0  0  0  0
   -5.6308   -1.6609    0.3599 S   0  0  0  0  0  0  0  0  0  0  0  0
   -6.6727   -3.8643   -1.2416 C   0  0  0  0  0  0  0  0  0  0  0  0
   -7.1674   -5.1199   -0.8984 C   0  0  0  0  0  0  0  0  0  0  0  0
   -7.2276   -5.2571    0.5974 C   0  0  0  0  0  0  0  0  0  0  0  0
   -7.4169   -5.9134   -2.0155 C   0  0  0  0  0  0  0  0  0  0  0  0
   -7.0864   -5.2883   -3.2065 C   0  0  0  0  0  0  0  0  0  0  0  0
   -6.5189   -3.6495   -2.9355 S   0  0  0  0  0  0  0  0  0  0  0  0
   -7.2654   -5.8436   -4.5119 C   0  0  0  0  0  0  0  0  0  0  0  0
   -6.7285   -5.4501   -5.6878 C   0  0  0  0  0  0  0  0  0  0  0  0
   -5.6980   -4.4731   -5.8840 C   0  0  0  0  0  0  0  0  0  0  0  0
   -4.5946   -4.2061   -5.1008 C   0  0  0  0  0  0  0  0  0  0  0  0
   -3.8348   -3.1470   -5.5876 C   0  0  0  0  0  0  0  0  0  0  0  0
   -4.3361   -2.6184   -6.7749 C   0  0  0  0  0  0  0  0  0  0  0  0
   -5.7482   -3.4392   -7.3048 S   0  0  0  0  0  0  0  0  0  0  0  0
   -3.5486   -1.5026   -7.1482 C   0  0  0  0  0  0  0  0  0  0  0  0
   -2.5567   -1.3066   -6.1873 C   0  0  0  0  0  0  0  0  0  0  0  0
   -2.6409   -2.3654   -5.1275 C   0  0  0  0  0  0  0  0  0  0  0  0
   -1.7757   -0.1827   -6.4304 C   0  0  0  0  0  0  0  0  0  0  0  0
   -2.1402    0.4830   -7.5853 C   0  0  0  0  0  0  0  0  0  0  0  0
   -3.4988   -0.3101   -8.3781 S   0  0  0  0  0  0  0  0  0  0  0  0
   -1.6997    1.7212   -8.1368 C   0  0  0  0  0  0  0  0  0  0  0  0
   -0.6869    2.5319   -7.7597 C   0  0  0  0  0  0  0  0  0  0  0  0
    0.3799    2.3291   -6.8196 C   0  0  0  0  0  0  0  0  0  0  0  0
    0.8970    3.3034   -5.9904 C   0  0  0  0  0  0  0  0  0  0  0  0
    1.9794    2.8541   -5.2354 C   0  0  0  0  0  0  0  0  0  0  0  0
    2.3287    1.5388   -5.5242 C   0  0  0  0  0  0  0  0  0  0  0  0
    1.3025    0.8363   -6.7128 S   0  0  0  0  0  0  0  0  0  0  0  0
    3.4413    1.1705   -4.7238 C   0  0  0  0  0  0  0  0  0  0  0  0
    3.7880    2.2461   -3.9107 C   0  0  0  0  0  0  0  0  0  0  0  0
    2.8841    3.4145   -4.1775 C   0  0  0  0  0  0  0  0  0  0  0  0
    4.8773    1.9686   -3.0869 C   0  0  0  0  0  0  0  0  0  0  0  0
    5.3679    0.6932   -3.2737 C   0  0  0  0  0  0  0  0  0  0  0  0
    4.4628   -0.1865   -4.4878 S   0  0  0  0  0  0  0  0  0  0  0  0
    6.4803    0.0995   -2.5933 C   0  0  0  0  0  0  0  0  0  0  0  0
    6.9590   -1.1204   -2.8281 C   0  0  0  0  0  0  0  0  0  0  0  0
    6.0462   -0.4697    1.2938 H   0  0  0  0  0  0  0  0  0  0  0  0
    5.1032   -2.3800   -0.4910 H   0  0  0  0  0  0  0  0  0  0  0  0
    5.2160   -3.7627   -2.3862 H   0  0  0  0  0  0  0  0  0  0  0  0
    3.9356   -4.9311   -2.8038 H   0  0  0  0  0  0  0  0  0  0  0  0
    4.1919   -4.4640   -1.1031 H   0  0  0  0  0  0  0  0  0  0  0  0
   -0.2111   -0.2844   -2.3699 H   0  0  0  0  0  0  0  0  0  0  0  0
   -0.2061   -1.0867   -3.9628 H   0  0  0  0  0  0  0  0  0  0  0  0
    0.7600    0.3899   -3.7065 H   0  0  0  0  0  0  0  0  0  0  0  0
    1.6617    1.0300   -1.6847 H   0  0  0  0  0  0  0  0  0  0  0  0
    2.5290    3.2461   -0.9353 H   0  0  0  0  0  0  0  0  0  0  0  0
    2.0500    4.8187    0.7722 H   0  0  0  0  0  0  0  0  0  0  0  0
    1.8153    1.0349    1.6765 H   0  0  0  0  0  0  0  0  0  0  0  0
    2.1366   -1.2472    1.3223 H   0  0  0  0  0  0  0  0  0  0  0  0
    0.9436   -2.4620    1.8476 H   0  0  0  0  0  0  0  0  0  0  0  0
    0.4117   -0.8084    1.4540 H   0  0  0  0  0  0  0  0  0  0  0  0
    2.7686   -0.3297    7.5029 H   0  0  0  0  0  0  0  0  0  0  0  0
    1.5419   -1.6201    7.5753 H   0  0  0  0  0  0  0  0  0  0  0  0
    1.0346    0.0912    7.5448 H   0  0  0  0  0  0  0  0  0  0  0  0
    2.2809    1.7742    6.5659 H   0  0  0  0  0  0  0  0  0  0  0  0
    3.1116    5.4300    6.4542 H   0  0  0  0  0  0  0  0  0  0  0  0
    1.6465    4.7624    8.2202 H   0  0  0  0  0  0  0  0  0  0  0  0
    0.2153    2.5843    9.0763 H   0  0  0  0  0  0  0  0  0  0  0  0
   -2.7899    1.0994    8.8679 H   0  0  0  0  0  0  0  0  0  0  0  0
   -1.5463   -0.0903    8.4773 H   0  0  0  0  0  0  0  0  0  0  0  0
   -4.1884   -1.3489    7.0652 H   0  0  0  0  0  0  0  0  0  0  0  0
   -5.3116   -2.2296    4.8211 H   0  0  0  0  0  0  0  0  0  0  0  0
   -4.6195   -0.3427    2.5098 H   0  0  0  0  0  0  0  0  0  0  0  0
   -6.3992   -3.7931    3.2161 H   0  0  0  0  0  0  0  0  0  0  0  0
   -6.6384   -6.1044    0.9538 H   0  0  0  0  0  0  0  0  0  0  0  0
   -8.2521   -5.3905    0.9519 H   0  0  0  0  0  0  0  0  0  0  0  0
   -7.7926   -6.9210   -1.9814 H   0  0  0  0  0  0  0  0  0  0  0  0
   -7.9591   -6.6758   -4.5368 H   0  0  0  0  0  0  0  0  0  0  0  0
   -7.1131   -5.9036   -6.5927 H   0  0  0  0  0  0  0  0  0  0  0  0
   -4.3543   -4.7757   -4.2216 H   0  0  0  0  0  0  0  0  0  0  0  0
   -2.7990   -1.9430   -4.1329 H   0  0  0  0  0  0  0  0  0  0  0  0
   -1.7379   -2.9792   -5.0931 H   0  0  0  0  0  0  0  0  0  0  0  0
   -0.9983    0.1645   -5.7786 H   0  0  0  0  0  0  0  0  0  0  0  0
   -2.3355    2.0871   -8.9340 H   0  0  0  0  0  0  0  0  0  0  0  0
   -0.6628    3.5140   -8.2198 H   0  0  0  0  0  0  0  0  0  0  0  0
    0.4707    4.2889   -5.9256 H   0  0  0  0  0  0  0  0  0  0  0  0
    3.4409    4.2833   -4.5348 H   0  0  0  0  0  0  0  0  0  0  0  0
    2.3283    3.7225   -3.2888 H   0  0  0  0  0  0  0  0  0  0  0  0
    5.3030    2.6562   -2.3778 H   0  0  0  0  0  0  0  0  0  0  0  0
    6.9347    0.7282   -1.8381 H   0  0  0  0  0  0  0  0  0  0  0  0
    6.5228   -1.7570   -3.5806 H   0  0  0  0  0  0  0  0  0  0  0  0
    7.7999   -1.5132   -2.2848 H   0  0  0  0  0  0  0  0  0  0  0  0
  1  2  1  0  0  0  0
  1  3  2  0  0  0  0
  3  4  1  0  0  0  0
  4  5  2  0  0  0  0
  5  6  1  0  0  0  0
  6  7  1  0  0  0  0
  5  8  1  0  0  0  0
  8  9  1  0  0  0  0
  9 10  1  0  0  0  0
  8 11  2  0  0  0  0
 11 12  1  0  0  0  0
 12 13  2  0  0  0  0
 13 14  1  0  0  0  0
 14 15  2  0  0  0  0
 15 16  1  0  0  0  0
 16 17  1  0  0  0  0
 16 18  2  0  0  0  0
 18 19  1  0  0  0  0
 19 20  2  0  0  0  0
 20 21  1  0  0  0  0
 21 22  1  0  0  0  0
 20 23  1  0  0  0  0
 23 24  1  0  0  0  0
 24 25  1  0  0  0  0
 23 26  2  0  0  0  0
 26 27  1  0  0  0  0
 27 28  2  0  0  0  0
 28 29  1  0  0  0  0
 29 30  2  0  0  0  0
 30 31  1  0  0  0  0
 31 32  2  0  0  0  0
 32 33  1  0  0  0  0
 33 34  2  0  0  0  0
 34 35  1  0  0  0  0
 34 36  1  0  0  0  0
 36 37  2  0  0  0  0
 37 38  1  0  0  0  0
 37 39  1  0  0  0  0
 39 40  2  0  0  0  0
 40 41  1  0  0  0  0
 40 42  1  0  0  0  0
 42 43  2  0  0  0  0
 43 44  1  0  0  0  0
 44 45  2  0  0  0  0
 45 46  1  0  0  0  0
 46 47  2  0  0  0  0
 47 48  1  0  0  0  0
 47 49  1  0  0  0  0
 49 50  2  0  0  0  0
 50 51  1  0  0  0  0
 50 52  1  0  0  0  0
 52 53  2  0  0  0  0
 53 54  1  0  0  0  0
 53 55  1  0  0  0  0
 55 56  2  0  0  0  0
 56 57  1  0  0  0  0
 57 58  2  0  0  0  0
 58 59  1  0  0  0  0
 59 60  2  0  0  0  0
 60 61  1  0  0  0  0
 60 62  1  0  0  0  0
 62 63  2  0  0  0  0
 63 64  1  0  0  0  0
 63 65  1  0  0  0  0
 65 66  2  0  0  0  0
 66 67  1  0  0  0  0
 66 68  1  0  0  0  0
 68 69  2  0  0  0  0
 69 70  1  0  0  0  0
 70 71  2  0  0  0  0
 71 72  1  0  0  0  0
 72 73  2  0  0  0  0
 73 74  1  0  0  0  0
 73 75  1  0  0  0  0
 75 76  2  0  0  0  0
 76 77  1  0  0  0  0
 76 78  1  0  0  0  0
 78 79  2  0  0  0  0
 79 80  1  0  0  0  0
 79 81  1  0  0  0  0
 81 82  2  0  0  0  0
 13  2  1  0  0  0  0
 28 17  1  0  0  0  0
 35 31  1  0  0  0  0
 41 36  1  0  0  0  0
 48 44  1  0  0  0  0
 54 49  1  0  0  0  0
 61 57  1  0  0  0  0
 67 62  1  0  0  0  0
 74 70  1  0  0  0  0
 80 75  1  0  0  0  0
 12  3  1  0  0  0  0
 27 18  1  0  0  0  0
 38 33  1  0  0  0  0
 51 46  1  0  0  0  0
 64 59  1  0  0  0  0
 77 72  1  0  0  0  0
  1 83  1  0  0  0  0
  4 84  1  0  0  0  0
  7 85  1  0  0  0  0
  7 86  1  0  0  0  0
  7 87  1  0  0  0  0
 10 88  1  0  0  0  0
 10 89  1  0  0  0  0
 10 90  1  0  0  0  0
 11 91  1  0  0  0  0
 14 92  1  0  0  0  0
 15 93  1  0  0  0  0
 19 94  1  0  0  0  0
 22 95  1  0  0  0  0
 22 96  1  0  0  0  0
 22 97  1  0  0  0  0
 25 98  1  0  0  0  0
 25 99  1  0  0  0  0
 25100  1  0  0  0  0
 26101  1  0  0  0  0
 29102  1  0  0  0  0
 30103  1  0  0  0  0
 32104  1  0  0  0  0
 38105  1  0  0  0  0
 38106  1  0  0  0  0
 39107  1  0  0  0  0
 42108  1  0  0  0  0
 43109  1  0  0  0  0
 45110  1  0  0  0  0
 51111  1  0  0  0  0
 51112  1  0  0  0  0
 52113  1  0  0  0  0
 55114  1  0  0  0  0
 56115  1  0  0  0  0
 58116  1  0  0  0  0
 64117  1  0  0  0  0
 64118  1  0  0  0  0
 65119  1  0  0  0  0
 68120  1  0  0  0  0
 69121  1  0  0  0  0
 71122  1  0  0  0  0
 77123  1  0  0  0  0
 77124  1  0  0  0  0
 78125  1  0  0  0  0
 81126  1  0  0  0  0
 82127  1  0  0  0  0
 82128  1  0  0  0  0
M  END
