
  xtb     03042214483D
 energy: -479.938668503501 gnorm: 0.000223580418 xtb: 6.4.1 (unknown)
277303  0     0  0            999 V2000
   -2.8994  -15.5712    7.8329 C   0  0  0  0  0  0  0  0  0  0  0  0
   -3.8187  -14.5849    7.8511 C   0  0  0  0  0  0  0  0  0  0  0  0
   -3.5774  -13.5848    6.8634 C   0  0  0  0  0  0  0  0  0  0  0  0
   -4.3157  -12.4216    6.6090 C   0  0  0  0  0  0  0  0  0  0  0  0
   -5.4649  -11.9866    7.4141 C   0  0  0  0  0  0  0  0  0  0  0  0
   -5.3702  -11.8417    8.7967 C   0  0  0  0  0  0  0  0  0  0  0  0
   -6.4029  -11.2744    9.5131 C   0  0  0  0  0  0  0  0  0  0  0  0
   -7.5722  -10.8454    8.8872 C   0  0  0  0  0  0  0  0  0  0  0  0
   -8.8130  -10.0895    9.8952 S   0  0  0  0  0  0  0  0  0  0  0  0
   -9.4571   -8.7237    8.8550 C   0  0  0  0  0  0  0  0  0  0  0  0
   -8.3638   -7.7841    8.3879 C   0  0  0  0  0  0  0  0  0  0  0  0
   -7.6821  -11.0681    7.5182 C   0  0  0  0  0  0  0  0  0  0  0  0
   -8.8125  -10.7437    6.8516 F   0  0  0  0  0  0  0  0  0  0  0  0
   -6.6476  -11.6105    6.7849 C   0  0  0  0  0  0  0  0  0  0  0  0
   -3.8754  -11.6246    5.5629 C   0  0  0  0  0  0  0  0  0  0  0  0
   -2.7249  -11.9137    4.7923 C   0  0  0  0  0  0  0  0  0  0  0  0
   -1.9679  -13.0641    5.0658 C   0  0  0  0  0  0  0  0  0  0  0  0
   -0.7382  -13.3273    4.3099 C   0  0  0  0  0  0  0  0  0  0  0  0
    0.2201  -12.3251    4.1731 C   0  0  0  0  0  0  0  0  0  0  0  0
    1.3508  -12.5159    3.4058 C   0  0  0  0  0  0  0  0  0  0  0  0
    1.5599  -13.7154    2.7339 C   0  0  0  0  0  0  0  0  0  0  0  0
    2.9344  -14.0485    1.6837 S   0  0  0  0  0  0  0  0  0  0  0  0
    3.5256  -12.3843    1.2098 C   0  0  0  0  0  0  0  0  0  0  0  0
    2.5152  -11.6243    0.3723 C   0  0  0  0  0  0  0  0  0  0  0  0
    0.6184  -14.7288    2.9224 C   0  0  0  0  0  0  0  0  0  0  0  0
   -0.5105  -14.5544    3.6927 C   0  0  0  0  0  0  0  0  0  0  0  0
    0.8036  -15.9163    2.3135 F   0  0  0  0  0  0  0  0  0  0  0  0
   -2.4324  -13.8855    6.0836 C   0  0  0  0  0  0  0  0  0  0  0  0
   -1.6819  -15.3660    6.6205 S   0  0  0  0  0  0  0  0  0  0  0  0
   -2.4941  -10.9266    3.7980 C   0  0  0  0  0  0  0  0  0  0  0  0
   -3.3913   -9.9040    3.8302 C   0  0  0  0  0  0  0  0  0  0  0  0
   -4.6038  -10.1164    5.0793 S   0  0  0  0  0  0  0  0  0  0  0  0
   -3.4246   -8.7219    3.0366 C   0  0  0  0  0  0  0  0  0  0  0  0
   -4.3178   -7.7005    3.1477 C   0  0  0  0  0  0  0  0  0  0  0  0
   -4.0495   -6.6140    2.2810 C   0  0  0  0  0  0  0  0  0  0  0  0
   -4.7864   -5.4264    2.1493 C   0  0  0  0  0  0  0  0  0  0  0  0
   -5.9463   -5.1941    3.0197 C   0  0  0  0  0  0  0  0  0  0  0  0
   -5.8148   -5.3266    4.4023 C   0  0  0  0  0  0  0  0  0  0  0  0
   -6.9144   -5.2277    5.2262 C   0  0  0  0  0  0  0  0  0  0  0  0
   -8.1830   -4.9862    4.7056 C   0  0  0  0  0  0  0  0  0  0  0  0
   -9.5398   -4.9255    5.8426 S   0  0  0  0  0  0  0  0  0  0  0  0
  -10.8185   -5.9374    5.0074 C   0  0  0  0  0  0  0  0  0  0  0  0
  -10.3293   -7.3401    4.7074 C   0  0  0  0  0  0  0  0  0  0  0  0
   -8.2878   -4.7808    3.3334 C   0  0  0  0  0  0  0  0  0  0  0  0
   -9.4796   -4.4860    2.7728 F   0  0  0  0  0  0  0  0  0  0  0  0
   -7.1962   -4.8907    2.4937 C   0  0  0  0  0  0  0  0  0  0  0  0
   -4.3424   -4.5259    1.1966 C   0  0  0  0  0  0  0  0  0  0  0  0
   -3.1937   -4.7501    0.3943 C   0  0  0  0  0  0  0  0  0  0  0  0
   -2.4736   -5.9525    0.5074 C   0  0  0  0  0  0  0  0  0  0  0  0
   -1.3526   -6.2872   -0.3791 C   0  0  0  0  0  0  0  0  0  0  0  0
   -1.4854   -6.1747   -1.7629 C   0  0  0  0  0  0  0  0  0  0  0  0
   -0.4703   -6.5826   -2.6018 C   0  0  0  0  0  0  0  0  0  0  0  0
    0.7126   -7.1239   -2.1016 C   0  0  0  0  0  0  0  0  0  0  0  0
    1.9012   -7.7153   -3.2719 S   0  0  0  0  0  0  0  0  0  0  0  0
    3.4997   -7.1280   -2.5973 C   0  0  0  0  0  0  0  0  0  0  0  0
    3.5271   -5.6199   -2.4643 C   0  0  0  0  0  0  0  0  0  0  0  0
    0.8314   -7.2291   -0.7194 C   0  0  0  0  0  0  0  0  0  0  0  0
   -0.1687   -6.8089    0.1333 C   0  0  0  0  0  0  0  0  0  0  0  0
    1.9391   -7.7663   -0.1585 F   0  0  0  0  0  0  0  0  0  0  0  0
   -2.9145   -6.8508    1.4687 C   0  0  0  0  0  0  0  0  0  0  0  0
   -2.2044   -8.4085    1.8196 S   0  0  0  0  0  0  0  0  0  0  0  0
   -2.8872   -3.6213   -0.4077 C   0  0  0  0  0  0  0  0  0  0  0  0
   -3.7635   -2.5871   -0.2542 C   0  0  0  0  0  0  0  0  0  0  0  0
   -5.0450   -2.9646    0.8805 S   0  0  0  0  0  0  0  0  0  0  0  0
   -3.6953   -1.2842   -0.8390 C   0  0  0  0  0  0  0  0  0  0  0  0
   -2.6005   -0.6832   -1.3882 C   0  0  0  0  0  0  0  0  0  0  0  0
   -2.8330    0.6538   -1.7964 C   0  0  0  0  0  0  0  0  0  0  0  0
   -1.9088    1.5658   -2.3369 C   0  0  0  0  0  0  0  0  0  0  0  0
   -0.5297    1.1499   -2.6214 C   0  0  0  0  0  0  0  0  0  0  0  0
    0.5620    1.8570   -2.1239 C   0  0  0  0  0  0  0  0  0  0  0  0
    1.8485    1.4104   -2.3505 C   0  0  0  0  0  0  0  0  0  0  0  0
    2.0891    0.2588   -3.0893 C   0  0  0  0  0  0  0  0  0  0  0  0
    3.7596   -0.3001   -3.3261 S   0  0  0  0  0  0  0  0  0  0  0  0
    3.6170   -1.9818   -2.6176 C   0  0  0  0  0  0  0  0  0  0  0  0
    3.3367   -1.9336   -1.1295 C   0  0  0  0  0  0  0  0  0  0  0  0
    0.9930   -0.4098   -3.6244 C   0  0  0  0  0  0  0  0  0  0  0  0
    1.1657   -1.5092   -4.3899 F   0  0  0  0  0  0  0  0  0  0  0  0
   -0.2989    0.0101   -3.3874 C   0  0  0  0  0  0  0  0  0  0  0  0
   -2.3619    2.8549   -2.5505 C   0  0  0  0  0  0  0  0  0  0  0  0
   -3.6971    3.2605   -2.3048 C   0  0  0  0  0  0  0  0  0  0  0  0
   -4.6262    2.3436   -1.7889 C   0  0  0  0  0  0  0  0  0  0  0  0
   -6.0124    2.7366   -1.5108 C   0  0  0  0  0  0  0  0  0  0  0  0
   -6.5790    2.5220   -0.2560 C   0  0  0  0  0  0  0  0  0  0  0  0
   -7.8887    2.8760   -0.0118 C   0  0  0  0  0  0  0  0  0  0  0  0
   -8.6796    3.4585   -1.0001 C   0  0  0  0  0  0  0  0  0  0  0  0
  -10.3355    3.9037   -0.5631 S   0  0  0  0  0  0  0  0  0  0  0  0
  -11.3183    3.4216   -2.0314 C   0  0  0  0  0  0  0  0  0  0  0  0
  -11.1599    1.9511   -2.3613 C   0  0  0  0  0  0  0  0  0  0  0  0
   -8.0891    3.6958   -2.2375 C   0  0  0  0  0  0  0  0  0  0  0  0
   -6.7836    3.3348   -2.5016 C   0  0  0  0  0  0  0  0  0  0  0  0
   -8.7802    4.2945   -3.2336 F   0  0  0  0  0  0  0  0  0  0  0  0
   -4.1596    1.0664   -1.5223 C   0  0  0  0  0  0  0  0  0  0  0  0
   -5.0908   -0.2244   -0.8147 S   0  0  0  0  0  0  0  0  0  0  0  0
   -3.8777    4.6472   -2.5239 C   0  0  0  0  0  0  0  0  0  0  0  0
   -2.7457    5.3033   -2.9203 C   0  0  0  0  0  0  0  0  0  0  0  0
   -1.3970    4.1897   -3.1217 S   0  0  0  0  0  0  0  0  0  0  0  0
   -2.5557    6.7123   -2.9560 C   0  0  0  0  0  0  0  0  0  0  0  0
   -3.7377    7.7240   -2.1616 S   0  0  0  0  0  0  0  0  0  0  0  0
   -1.4380    7.4640   -3.3147 C   0  0  0  0  0  0  0  0  0  0  0  0
   -0.2454    7.0193   -3.9253 C   0  0  0  0  0  0  0  0  0  0  0  0
    0.7746    7.8974   -4.1551 C   0  0  0  0  0  0  0  0  0  0  0  0
    1.9901    7.5634   -4.6567 O   0  0  0  0  0  0  0  0  0  0  0  0
    2.2443    6.2073   -4.9361 C   0  0  0  0  0  0  0  0  0  0  0  0
    0.6072    9.3047   -3.8837 C   0  0  0  0  0  0  0  0  0  0  0  0
    1.6442   10.0762   -4.2905 O   0  0  0  0  0  0  0  0  0  0  0  0
    1.5665   11.4667   -4.0880 C   0  0  0  0  0  0  0  0  0  0  0  0
   -0.5287    9.7511   -3.2745 C   0  0  0  0  0  0  0  0  0  0  0  0
   -1.5445    8.8325   -2.9154 C   0  0  0  0  0  0  0  0  0  0  0  0
   -2.6994    9.1084   -2.1961 C   0  0  0  0  0  0  0  0  0  0  0  0
   -2.9504   10.2566   -1.3425 C   0  0  0  0  0  0  0  0  0  0  0  0
   -2.0662   10.6339   -0.4067 C   0  0  0  0  0  0  0  0  0  0  0  0
   -0.8599    9.8475   -0.1908 C   0  0  0  0  0  0  0  0  0  0  0  0
   -0.8078    8.5142    0.0560 C   0  0  0  0  0  0  0  0  0  0  0  0
    0.4565    7.9145   -0.2097 C   0  0  0  0  0  0  0  0  0  0  0  0
    0.8002    6.5474   -0.2635 C   0  0  0  0  0  0  0  0  0  0  0  0
   -0.0895    5.4682    0.1878 C   0  0  0  0  0  0  0  0  0  0  0  0
   -1.4654    5.4752   -0.0419 C   0  0  0  0  0  0  0  0  0  0  0  0
   -2.2712    4.4498    0.3940 C   0  0  0  0  0  0  0  0  0  0  0  0
   -1.7545    3.3357    1.0580 C   0  0  0  0  0  0  0  0  0  0  0  0
   -2.9535    2.1388    1.5356 S   0  0  0  0  0  0  0  0  0  0  0  0
   -2.0435    0.6709    2.1515 C   0  0  0  0  0  0  0  0  0  0  0  0
   -3.0615   -0.3365    2.6497 C   0  0  0  0  0  0  0  0  0  0  0  0
   -0.3815    3.3311    1.2799 C   0  0  0  0  0  0  0  0  0  0  0  0
    0.2275    2.3058    1.9220 F   0  0  0  0  0  0  0  0  0  0  0  0
    0.4311    4.3713    0.8719 C   0  0  0  0  0  0  0  0  0  0  0  0
    2.0543    6.2566   -0.7977 C   0  0  0  0  0  0  0  0  0  0  0  0
    2.9717    7.2491   -1.2134 C   0  0  0  0  0  0  0  0  0  0  0  0
    2.6561    8.6101   -1.0944 C   0  0  0  0  0  0  0  0  0  0  0  0
    3.5808    9.6401   -1.5789 C   0  0  0  0  0  0  0  0  0  0  0  0
    4.1291    9.5414   -2.8579 C   0  0  0  0  0  0  0  0  0  0  0  0
    5.0254   10.4852   -3.3071 C   0  0  0  0  0  0  0  0  0  0  0  0
    5.4047   11.5636   -2.5113 C   0  0  0  0  0  0  0  0  0  0  0  0
    6.5556   12.7190   -3.2010 S   0  0  0  0  0  0  0  0  0  0  0  0
    7.6973   13.0710   -1.8139 C   0  0  0  0  0  0  0  0  0  0  0  0
    8.3236   11.8102   -1.2538 C   0  0  0  0  0  0  0  0  0  0  0  0
    4.8096   11.6768   -1.2591 C   0  0  0  0  0  0  0  0  0  0  0  0
    3.9203   10.7312   -0.7870 C   0  0  0  0  0  0  0  0  0  0  0  0
    5.0910   12.7249   -0.4537 F   0  0  0  0  0  0  0  0  0  0  0  0
    1.4000    8.9015   -0.5957 C   0  0  0  0  0  0  0  0  0  0  0  0
    0.7211   10.5071   -0.5472 S   0  0  0  0  0  0  0  0  0  0  0  0
    4.1591    6.6982   -1.7501 C   0  0  0  0  0  0  0  0  0  0  0  0
    4.1536    5.3376   -1.8205 C   0  0  0  0  0  0  0  0  0  0  0  0
    2.6810    4.6618   -1.1577 S   0  0  0  0  0  0  0  0  0  0  0  0
    5.2140    4.5509   -2.3710 C   0  0  0  0  0  0  0  0  0  0  0  0
    6.2050    5.0481   -3.1655 C   0  0  0  0  0  0  0  0  0  0  0  0
    7.1903    4.0948   -3.5169 C   0  0  0  0  0  0  0  0  0  0  0  0
    8.3371    4.3033   -4.2994 C   0  0  0  0  0  0  0  0  0  0  0  0
    8.6939    5.6414   -4.7862 C   0  0  0  0  0  0  0  0  0  0  0  0
    9.0648    5.8605   -6.1114 C   0  0  0  0  0  0  0  0  0  0  0  0
    9.4046    7.1246   -6.5475 C   0  0  0  0  0  0  0  0  0  0  0  0
    9.3928    8.2166   -5.6842 C   0  0  0  0  0  0  0  0  0  0  0  0
    9.9264    9.7895   -6.3045 S   0  0  0  0  0  0  0  0  0  0  0  0
    8.5845   10.9158   -5.7710 C   0  0  0  0  0  0  0  0  0  0  0  0
    7.2924   10.6313   -6.5096 C   0  0  0  0  0  0  0  0  0  0  0  0
    9.0414    7.9806   -4.3590 C   0  0  0  0  0  0  0  0  0  0  0  0
    9.0458    8.9872   -3.4560 F   0  0  0  0  0  0  0  0  0  0  0  0
    8.6895    6.7250   -3.9101 C   0  0  0  0  0  0  0  0  0  0  0  0
    9.1300    3.1904   -4.5401 C   0  0  0  0  0  0  0  0  0  0  0  0
    8.8387    1.9083   -4.0145 C   0  0  0  0  0  0  0  0  0  0  0  0
    7.6955    1.7047   -3.2248 C   0  0  0  0  0  0  0  0  0  0  0  0
    7.3972    0.3788   -2.6707 C   0  0  0  0  0  0  0  0  0  0  0  0
    7.3932   -0.7506   -3.4886 C   0  0  0  0  0  0  0  0  0  0  0  0
    7.1765   -2.0018   -2.9561 C   0  0  0  0  0  0  0  0  0  0  0  0
    6.9411   -2.1790   -1.5924 C   0  0  0  0  0  0  0  0  0  0  0  0
    6.6300   -3.8291   -1.0416 S   0  0  0  0  0  0  0  0  0  0  0  0
    7.2679   -3.8686    0.6796 C   0  0  0  0  0  0  0  0  0  0  0  0
    7.5497   -5.3085    1.0607 C   0  0  0  0  0  0  0  0  0  0  0  0
    6.9020   -1.0391   -0.7971 C   0  0  0  0  0  0  0  0  0  0  0  0
    7.1363    0.2187   -1.3151 C   0  0  0  0  0  0  0  0  0  0  0  0
    6.6336   -1.1263    0.5264 F   0  0  0  0  0  0  0  0  0  0  0  0
    6.8964    2.8138   -2.9878 C   0  0  0  0  0  0  0  0  0  0  0  0
    5.4241    2.8432   -2.0512 S   0  0  0  0  0  0  0  0  0  0  0  0
    9.8637    0.9683   -4.3378 C   0  0  0  0  0  0  0  0  0  0  0  0
   10.8576    1.5044   -5.0735 C   0  0  0  0  0  0  0  0  0  0  0  0
   10.6318    3.1825   -5.4283 S   0  0  0  0  0  0  0  0  0  0  0  0
   -2.8501  -16.4375    8.4634 H   0  0  0  0  0  0  0  0  0  0  0  0
   -4.6541  -14.5548    8.5270 H   0  0  0  0  0  0  0  0  0  0  0  0
   -4.4616  -12.1309    9.3027 H   0  0  0  0  0  0  0  0  0  0  0  0
   -6.3141  -11.1316   10.5789 H   0  0  0  0  0  0  0  0  0  0  0  0
  -10.1506   -8.2145    9.5242 H   0  0  0  0  0  0  0  0  0  0  0  0
  -10.0164   -9.1491    8.0242 H   0  0  0  0  0  0  0  0  0  0  0  0
   -7.6845   -8.2844    7.6992 H   0  0  0  0  0  0  0  0  0  0  0  0
   -8.8079   -6.9314    7.8770 H   0  0  0  0  0  0  0  0  0  0  0  0
   -7.7883   -7.4189    9.2361 H   0  0  0  0  0  0  0  0  0  0  0  0
   -6.7843  -11.7505    5.7239 H   0  0  0  0  0  0  0  0  0  0  0  0
    0.0854  -11.3868    4.6901 H   0  0  0  0  0  0  0  0  0  0  0  0
    2.0724  -11.7185    3.3333 H   0  0  0  0  0  0  0  0  0  0  0  0
    3.8098  -11.8430    2.1115 H   0  0  0  0  0  0  0  0  0  0  0  0
    4.4276  -12.5941    0.6350 H   0  0  0  0  0  0  0  0  0  0  0  0
    1.5875  -11.4709    0.9199 H   0  0  0  0  0  0  0  0  0  0  0  0
    2.9172  -10.6505    0.0999 H   0  0  0  0  0  0  0  0  0  0  0  0
    2.2892  -12.1752   -0.5375 H   0  0  0  0  0  0  0  0  0  0  0  0
   -1.2186  -15.3633    3.7773 H   0  0  0  0  0  0  0  0  0  0  0  0
   -1.6964  -10.9740    3.0784 H   0  0  0  0  0  0  0  0  0  0  0  0
   -5.1489   -7.7319    3.8290 H   0  0  0  0  0  0  0  0  0  0  0  0
   -4.8411   -5.5133    4.8288 H   0  0  0  0  0  0  0  0  0  0  0  0
   -6.8128   -5.3529    6.2930 H   0  0  0  0  0  0  0  0  0  0  0  0
  -11.6377   -5.9503    5.7262 H   0  0  0  0  0  0  0  0  0  0  0  0
  -11.1437   -5.4180    4.1085 H   0  0  0  0  0  0  0  0  0  0  0  0
   -9.9923   -7.8355    5.6152 H   0  0  0  0  0  0  0  0  0  0  0  0
  -11.1386   -7.9231    4.2729 H   0  0  0  0  0  0  0  0  0  0  0  0
   -9.5026   -7.3202    3.9993 H   0  0  0  0  0  0  0  0  0  0  0  0
   -7.3387   -4.7556    1.4328 H   0  0  0  0  0  0  0  0  0  0  0  0
   -2.4032   -5.7898   -2.1806 H   0  0  0  0  0  0  0  0  0  0  0  0
   -0.5816   -6.5033   -3.6720 H   0  0  0  0  0  0  0  0  0  0  0  0
    3.6915   -7.6266   -1.6500 H   0  0  0  0  0  0  0  0  0  0  0  0
    4.2259   -7.4722   -3.3331 H   0  0  0  0  0  0  0  0  0  0  0  0
    2.7821   -5.2840   -1.7448 H   0  0  0  0  0  0  0  0  0  0  0  0
    4.5083   -5.2962   -2.1236 H   0  0  0  0  0  0  0  0  0  0  0  0
    3.3171   -5.1504   -3.4226 H   0  0  0  0  0  0  0  0  0  0  0  0
   -0.0132   -6.9017    1.1967 H   0  0  0  0  0  0  0  0  0  0  0  0
   -2.0342   -3.5781   -1.0599 H   0  0  0  0  0  0  0  0  0  0  0  0
   -1.6420   -1.1647   -1.4575 H   0  0  0  0  0  0  0  0  0  0  0  0
    0.4032    2.7419   -1.5268 H   0  0  0  0  0  0  0  0  0  0  0  0
    2.6911    1.9431   -1.9394 H   0  0  0  0  0  0  0  0  0  0  0  0
    4.5803   -2.4437   -2.8238 H   0  0  0  0  0  0  0  0  0  0  0  0
    2.8443   -2.5219   -3.1593 H   0  0  0  0  0  0  0  0  0  0  0  0
    2.3645   -1.4845   -0.9313 H   0  0  0  0  0  0  0  0  0  0  0  0
    3.3470   -2.9418   -0.7210 H   0  0  0  0  0  0  0  0  0  0  0  0
    4.0932   -1.3427   -0.6190 H   0  0  0  0  0  0  0  0  0  0  0  0
   -1.1182   -0.5397   -3.8249 H   0  0  0  0  0  0  0  0  0  0  0  0
   -5.9821    2.0908    0.5328 H   0  0  0  0  0  0  0  0  0  0  0  0
   -8.3278    2.7060    0.9587 H   0  0  0  0  0  0  0  0  0  0  0  0
  -11.0435    4.0601   -2.8681 H   0  0  0  0  0  0  0  0  0  0  0  0
  -12.3412    3.6499   -1.7320 H   0  0  0  0  0  0  0  0  0  0  0  0
  -10.1358    1.7269   -2.6544 H   0  0  0  0  0  0  0  0  0  0  0  0
  -11.4141    1.3368   -1.5002 H   0  0  0  0  0  0  0  0  0  0  0  0
  -11.8189    1.6881   -3.1864 H   0  0  0  0  0  0  0  0  0  0  0  0
   -6.3805    3.5181   -3.4860 H   0  0  0  0  0  0  0  0  0  0  0  0
   -4.8041    5.1599   -2.3341 H   0  0  0  0  0  0  0  0  0  0  0  0
   -0.1538    5.9838   -4.2012 H   0  0  0  0  0  0  0  0  0  0  0  0
    3.2846    6.1593   -5.2543 H   0  0  0  0  0  0  0  0  0  0  0  0
    1.6023    5.8360   -5.7405 H   0  0  0  0  0  0  0  0  0  0  0  0
    2.1056    5.5804   -4.0496 H   0  0  0  0  0  0  0  0  0  0  0  0
    2.4926   11.8731   -4.4905 H   0  0  0  0  0  0  0  0  0  0  0  0
    0.7143   11.9005   -4.6204 H   0  0  0  0  0  0  0  0  0  0  0  0
    1.4971   11.7137   -3.0246 H   0  0  0  0  0  0  0  0  0  0  0  0
   -0.6847   10.7956   -3.0608 H   0  0  0  0  0  0  0  0  0  0  0  0
   -3.8914   10.7783   -1.4517 H   0  0  0  0  0  0  0  0  0  0  0  0
   -2.2160   11.5327    0.1737 H   0  0  0  0  0  0  0  0  0  0  0  0
   -1.6767    7.9780    0.3863 H   0  0  0  0  0  0  0  0  0  0  0  0
   -1.9107    6.2769   -0.6003 H   0  0  0  0  0  0  0  0  0  0  0  0
   -3.3353    4.4863    0.2182 H   0  0  0  0  0  0  0  0  0  0  0  0
   -1.3839    0.9833    2.9575 H   0  0  0  0  0  0  0  0  0  0  0  0
   -1.4591    0.2747    1.3209 H   0  0  0  0  0  0  0  0  0  0  0  0
   -3.7880   -0.5657    1.8747 H   0  0  0  0  0  0  0  0  0  0  0  0
   -2.5584   -1.2562    2.9400 H   0  0  0  0  0  0  0  0  0  0  0  0
   -3.5968    0.0568    3.5107 H   0  0  0  0  0  0  0  0  0  0  0  0
    1.4776    4.3105    1.1256 H   0  0  0  0  0  0  0  0  0  0  0  0
    3.8215    8.7418   -3.5122 H   0  0  0  0  0  0  0  0  0  0  0  0
    5.4531   10.4017   -4.2930 H   0  0  0  0  0  0  0  0  0  0  0  0
    8.4489   13.7166   -2.2684 H   0  0  0  0  0  0  0  0  0  0  0  0
    7.1602   13.6326   -1.0522 H   0  0  0  0  0  0  0  0  0  0  0  0
    8.8224   11.2422   -2.0358 H   0  0  0  0  0  0  0  0  0  0  0  0
    9.0568   12.0752   -0.4947 H   0  0  0  0  0  0  0  0  0  0  0  0
    7.5701   11.1731   -0.7942 H   0  0  0  0  0  0  0  0  0  0  0  0
    3.5074   10.8545    0.2024 H   0  0  0  0  0  0  0  0  0  0  0  0
    4.9955    7.2998   -2.0514 H   0  0  0  0  0  0  0  0  0  0  0  0
    6.2195    6.0627   -3.5169 H   0  0  0  0  0  0  0  0  0  0  0  0
    9.0651    5.0381   -6.8096 H   0  0  0  0  0  0  0  0  0  0  0  0
    9.6882    7.2886   -7.5752 H   0  0  0  0  0  0  0  0  0  0  0  0
    8.4608   10.8425   -4.6939 H   0  0  0  0  0  0  0  0  0  0  0  0
    8.9637   11.9074   -6.0149 H   0  0  0  0  0  0  0  0  0  0  0  0
    6.9234    9.6335   -6.2748 H   0  0  0  0  0  0  0  0  0  0  0  0
    6.5421   11.3650   -6.2204 H   0  0  0  0  0  0  0  0  0  0  0  0
    7.4457   10.6957   -7.5846 H   0  0  0  0  0  0  0  0  0  0  0  0
    8.4568    6.5934   -2.8645 H   0  0  0  0  0  0  0  0  0  0  0  0
    7.5485   -0.6409   -4.5505 H   0  0  0  0  0  0  0  0  0  0  0  0
    7.1847   -2.8750   -3.5909 H   0  0  0  0  0  0  0  0  0  0  0  0
    6.5183   -3.4271    1.3344 H   0  0  0  0  0  0  0  0  0  0  0  0
    8.1766   -3.2687    0.6990 H   0  0  0  0  0  0  0  0  0  0  0  0
    8.2872   -5.7453    0.3909 H   0  0  0  0  0  0  0  0  0  0  0  0
    6.6400   -5.9025    1.0063 H   0  0  0  0  0  0  0  0  0  0  0  0
    7.9325   -5.3495    2.0780 H   0  0  0  0  0  0  0  0  0  0  0  0
    7.1186    1.0635   -0.6445 H   0  0  0  0  0  0  0  0  0  0  0  0
    9.8529   -0.0550   -4.0095 H   0  0  0  0  0  0  0  0  0  0  0  0
   11.7381    1.0180   -5.4455 H   0  0  0  0  0  0  0  0  0  0  0  0
  1  2  2  0  0  0  0
  2  3  1  0  0  0  0
  3  4  2  0  0  0  0
  4  5  1  0  0  0  0
  5  6  2  0  0  0  0
  6  7  1  0  0  0  0
  7  8  2  0  0  0  0
  8  9  1  0  0  0  0
  9 10  1  0  0  0  0
 10 11  1  0  0  0  0
  8 12  1  0  0  0  0
 12 13  1  0  0  0  0
 12 14  2  0  0  0  0
  4 15  1  0  0  0  0
 15 16  2  0  0  0  0
 16 17  1  0  0  0  0
 17 18  1  0  0  0  0
 18 19  2  0  0  0  0
 19 20  1  0  0  0  0
 20 21  2  0  0  0  0
 21 22  1  0  0  0  0
 22 23  1  0  0  0  0
 23 24  1  0  0  0  0
 21 25  1  0  0  0  0
 25 26  2  0  0  0  0
 25 27  1  0  0  0  0
 17 28  2  0  0  0  0
 28 29  1  0  0  0  0
 16 30  1  0  0  0  0
 30 31  2  0  0  0  0
 31 32  1  0  0  0  0
 31 33  1  0  0  0  0
 33 34  2  0  0  0  0
 34 35  1  0  0  0  0
 35 36  2  0  0  0  0
 36 37  1  0  0  0  0
 37 38  2  0  0  0  0
 38 39  1  0  0  0  0
 39 40  2  0  0  0  0
 40 41  1  0  0  0  0
 41 42  1  0  0  0  0
 42 43  1  0  0  0  0
 40 44  1  0  0  0  0
 44 45  1  0  0  0  0
 44 46  2  0  0  0  0
 36 47  1  0  0  0  0
 47 48  2  0  0  0  0
 48 49  1  0  0  0  0
 49 50  1  0  0  0  0
 50 51  2  0  0  0  0
 51 52  1  0  0  0  0
 52 53  2  0  0  0  0
 53 54  1  0  0  0  0
 54 55  1  0  0  0  0
 55 56  1  0  0  0  0
 53 57  1  0  0  0  0
 57 58  2  0  0  0  0
 57 59  1  0  0  0  0
 49 60  2  0  0  0  0
 60 61  1  0  0  0  0
 48 62  1  0  0  0  0
 62 63  2  0  0  0  0
 63 64  1  0  0  0  0
 63 65  1  0  0  0  0
 65 66  2  0  0  0  0
 66 67  1  0  0  0  0
 67 68  2  0  0  0  0
 68 69  1  0  0  0  0
 69 70  2  0  0  0  0
 70 71  1  0  0  0  0
 71 72  2  0  0  0  0
 72 73  1  0  0  0  0
 73 74  1  0  0  0  0
 74 75  1  0  0  0  0
 72 76  1  0  0  0  0
 76 77  1  0  0  0  0
 76 78  2  0  0  0  0
 68 79  1  0  0  0  0
 79 80  2  0  0  0  0
 80 81  1  0  0  0  0
 81 82  1  0  0  0  0
 82 83  2  0  0  0  0
 83 84  1  0  0  0  0
 84 85  2  0  0  0  0
 85 86  1  0  0  0  0
 86 87  1  0  0  0  0
 87 88  1  0  0  0  0
 85 89  1  0  0  0  0
 89 90  2  0  0  0  0
 89 91  1  0  0  0  0
 81 92  2  0  0  0  0
 92 93  1  0  0  0  0
 80 94  1  0  0  0  0
 94 95  2  0  0  0  0
 95 96  1  0  0  0  0
 95 97  1  0  0  0  0
 97 98  1  0  0  0  0
 97 99  2  0  0  0  0
 99100  1  0  0  0  0
100101  2  0  0  0  0
101102  1  0  0  0  0
102103  1  0  0  0  0
101104  1  0  0  0  0
104105  1  0  0  0  0
105106  1  0  0  0  0
104107  2  0  0  0  0
107108  1  0  0  0  0
108109  2  0  0  0  0
109110  1  0  0  0  0
110111  2  0  0  0  0
111112  1  0  0  0  0
112113  2  0  0  0  0
113114  1  0  0  0  0
114115  2  0  0  0  0
115116  1  0  0  0  0
116117  2  0  0  0  0
117118  1  0  0  0  0
118119  2  0  0  0  0
119120  1  0  0  0  0
120121  1  0  0  0  0
121122  1  0  0  0  0
119123  1  0  0  0  0
123124  1  0  0  0  0
123125  2  0  0  0  0
115126  1  0  0  0  0
126127  2  0  0  0  0
127128  1  0  0  0  0
128129  1  0  0  0  0
129130  2  0  0  0  0
130131  1  0  0  0  0
131132  2  0  0  0  0
132133  1  0  0  0  0
133134  1  0  0  0  0
134135  1  0  0  0  0
132136  1  0  0  0  0
136137  2  0  0  0  0
136138  1  0  0  0  0
128139  2  0  0  0  0
139140  1  0  0  0  0
127141  1  0  0  0  0
141142  2  0  0  0  0
142143  1  0  0  0  0
142144  1  0  0  0  0
144145  2  0  0  0  0
145146  1  0  0  0  0
146147  2  0  0  0  0
147148  1  0  0  0  0
148149  2  0  0  0  0
149150  1  0  0  0  0
150151  2  0  0  0  0
151152  1  0  0  0  0
152153  1  0  0  0  0
153154  1  0  0  0  0
151155  1  0  0  0  0
155156  1  0  0  0  0
155157  2  0  0  0  0
147158  1  0  0  0  0
158159  2  0  0  0  0
159160  1  0  0  0  0
160161  1  0  0  0  0
161162  2  0  0  0  0
162163  1  0  0  0  0
163164  2  0  0  0  0
164165  1  0  0  0  0
165166  1  0  0  0  0
166167  1  0  0  0  0
164168  1  0  0  0  0
168169  2  0  0  0  0
168170  1  0  0  0  0
160171  2  0  0  0  0
171172  1  0  0  0  0
159173  1  0  0  0  0
173174  2  0  0  0  0
174175  1  0  0  0  0
 29  1  1  0  0  0  0
 61 33  1  0  0  0  0
 93 65  1  0  0  0  0
109 98  1  0  0  0  0
140112  1  0  0  0  0
172144  1  0  0  0  0
 28  3  1  0  0  0  0
 60 35  1  0  0  0  0
 92 67  1  0  0  0  0
108 99  1  0  0  0  0
139114  1  0  0  0  0
171146  1  0  0  0  0
 14  5  1  0  0  0  0
 32 15  1  0  0  0  0
 46 37  1  0  0  0  0
 64 47  1  0  0  0  0
 78 69  1  0  0  0  0
 96 79  1  0  0  0  0
125116  1  0  0  0  0
143126  1  0  0  0  0
157148  1  0  0  0  0
175158  1  0  0  0  0
 26 18  1  0  0  0  0
 58 50  1  0  0  0  0
 90 82  1  0  0  0  0
137129  1  0  0  0  0
169161  1  0  0  0  0
  1176  1  0  0  0  0
  2177  1  0  0  0  0
  6178  1  0  0  0  0
  7179  1  0  0  0  0
 10180  1  0  0  0  0
 10181  1  0  0  0  0
 11182  1  0  0  0  0
 11183  1  0  0  0  0
 11184  1  0  0  0  0
 14185  1  0  0  0  0
 19186  1  0  0  0  0
 20187  1  0  0  0  0
 23188  1  0  0  0  0
 23189  1  0  0  0  0
 24190  1  0  0  0  0
 24191  1  0  0  0  0
 24192  1  0  0  0  0
 26193  1  0  0  0  0
 30194  1  0  0  0  0
 34195  1  0  0  0  0
 38196  1  0  0  0  0
 39197  1  0  0  0  0
 42198  1  0  0  0  0
 42199  1  0  0  0  0
 43200  1  0  0  0  0
 43201  1  0  0  0  0
 43202  1  0  0  0  0
 46203  1  0  0  0  0
 51204  1  0  0  0  0
 52205  1  0  0  0  0
 55206  1  0  0  0  0
 55207  1  0  0  0  0
 56208  1  0  0  0  0
 56209  1  0  0  0  0
 56210  1  0  0  0  0
 58211  1  0  0  0  0
 62212  1  0  0  0  0
 66213  1  0  0  0  0
 70214  1  0  0  0  0
 71215  1  0  0  0  0
 74216  1  0  0  0  0
 74217  1  0  0  0  0
 75218  1  0  0  0  0
 75219  1  0  0  0  0
 75220  1  0  0  0  0
 78221  1  0  0  0  0
 83222  1  0  0  0  0
 84223  1  0  0  0  0
 87224  1  0  0  0  0
 87225  1  0  0  0  0
 88226  1  0  0  0  0
 88227  1  0  0  0  0
 88228  1  0  0  0  0
 90229  1  0  0  0  0
 94230  1  0  0  0  0
100231  1  0  0  0  0
103232  1  0  0  0  0
103233  1  0  0  0  0
103234  1  0  0  0  0
106235  1  0  0  0  0
106236  1  0  0  0  0
106237  1  0  0  0  0
107238  1  0  0  0  0
110239  1  0  0  0  0
111240  1  0  0  0  0
113241  1  0  0  0  0
117242  1  0  0  0  0
118243  1  0  0  0  0
121244  1  0  0  0  0
121245  1  0  0  0  0
122246  1  0  0  0  0
122247  1  0  0  0  0
122248  1  0  0  0  0
125249  1  0  0  0  0
130250  1  0  0  0  0
131251  1  0  0  0  0
134252  1  0  0  0  0
134253  1  0  0  0  0
135254  1  0  0  0  0
135255  1  0  0  0  0
135256  1  0  0  0  0
137257  1  0  0  0  0
141258  1  0  0  0  0
145259  1  0  0  0  0
149260  1  0  0  0  0
150261  1  0  0  0  0
153262  1  0  0  0  0
153263  1  0  0  0  0
154264  1  0  0  0  0
154265  1  0  0  0  0
154266  1  0  0  0  0
157267  1  0  0  0  0
162268  1  0  0  0  0
163269  1  0  0  0  0
166270  1  0  0  0  0
166271  1  0  0  0  0
167272  1  0  0  0  0
167273  1  0  0  0  0
167274  1  0  0  0  0
169275  1  0  0  0  0
173276  1  0  0  0  0
174277  1  0  0  0  0
M  END
