252

C          1.15510       -1.21740       14.32400
C          2.14370       -0.96260       13.44350
C          1.67190       -0.81660       12.10520
C          2.42310       -0.60140       10.93900
C          3.87570       -0.39240       10.97800
C          4.72910       -1.11260       10.14890
C          6.09470       -0.89940       10.16370
C          6.65520        0.05080       11.00930
S          8.36830        0.43250       11.13050
C          9.13640       -0.64290        9.86230
C         10.62780       -0.36580        9.83280
C          5.78650        0.76680       11.83660
F          6.29810        1.69850       12.66700
C          4.42660        0.56100       11.83330
C          1.71890       -0.57030        9.74650
C          0.31290       -0.71300        9.66550
C         -0.43630       -0.94930       10.82970
C         -1.88130       -1.19200       10.76740
C         -2.40100       -2.12400        9.87230
C         -3.75600       -2.38510        9.81910
C         -4.64370       -1.72210       10.65810
S         -6.39220       -1.93940       10.67520
C         -6.66490       -3.46220        9.70450
C         -6.19780       -4.70610       10.43660
C         -4.10950       -0.78470       11.54420
C         -2.76080       -0.51880       11.61270
F         -4.94280       -0.11100       12.36210
C          0.26860       -0.98450       12.02550
S         -0.41460       -1.29950       13.60050
C         -0.15920       -0.55390        8.34070
C          0.82410       -0.34010        7.41460
S          2.41230       -0.30560        8.16770
C          0.63280       -0.17300        6.01820
S         -0.96940        0.13870        5.43300
C          1.52560       -0.28610        4.94890
C          2.91180       -0.52530        5.00580
C          3.66220       -0.63870        3.86590
O          5.00740       -0.88650        3.88420
C          5.64980       -1.02820        5.12730
C          3.03860       -0.47180        2.58500
O          3.65990       -0.50560        1.37450
C          4.97300       -0.99070        1.21730
C          1.68970       -0.22180        2.51980
C          0.89130       -0.16950        3.67490
C         -0.49240        0.02960        3.77110
C         -1.48170        0.07150        2.75120
C         -1.32700       -0.56330        1.56670
C         -2.18160       -0.51640        0.43320
C         -3.26960        0.25590        0.13050
C         -3.70230        0.12280       -1.21220
C         -4.69470        0.85310       -1.89330
C         -5.47290        1.90850       -1.23630
C         -6.85310        1.99950       -1.41400
C         -7.57570        3.00840       -0.81430
C         -6.95720        3.96550       -0.01230
S         -7.97790        5.26130        0.63160
C         -7.33390        5.55690        2.31900
C         -7.37160        4.30270        3.16790
C         -5.57810        3.87110        0.14850
F         -4.90620        4.77270        0.89600
C         -4.84270        2.86730       -0.44780
C         -4.83620        0.59390       -3.24660
C         -4.02670       -0.32040       -3.97240
C         -3.06470       -1.08390       -3.28810
C         -2.11710       -2.00330       -3.92810
C         -1.77030       -3.20260       -3.29830
C         -0.73070       -3.97410       -3.76180
C         -0.00840       -3.62280       -4.90420
S          1.40870       -4.62240       -5.22840
C          1.98230       -4.27580       -6.92920
C          1.04530       -4.82100       -7.98650
C         -0.44210       -2.49290       -5.58730
C         -1.45040       -1.68130       -5.10450
F          0.11070       -2.12600       -6.76630
C         -2.94370       -0.84020       -1.92470
S         -1.72030       -1.53680       -0.91030
C         -4.23920       -0.21130       -5.36600
C         -5.09940        0.79210       -5.72840
S         -5.87440        1.49990       -4.31740
C         -5.13080        1.44170       -6.99280
S         -3.79590        1.14140       -8.07920
C         -5.83890        2.57080       -7.40410
C         -6.97320        3.14070       -6.78990
C         -7.48630        4.31550       -7.26050
O         -8.54290        4.97480       -6.73020
C         -9.12060        4.46260       -5.55400
C         -6.90510        4.95610       -8.41560
O         -7.53110        6.09950       -8.78710
C         -7.04280        6.79410       -9.90720
C         -5.81970        4.40780       -9.03620
C         -5.25630        3.20730       -8.54500
C         -4.09010        2.58840       -8.98690
C         -3.19470        3.02900      -10.02130
C         -1.85090        2.92900      -10.01310
C         -1.06560        2.46620       -8.89440
C         -1.25820        2.73170       -7.57350
C         -0.43650        1.97550       -6.69440
C         -0.48990        1.89510       -5.28440
C         -1.41130        2.72730       -4.50300
C         -1.01030        3.34310       -3.31480
C         -1.85350        4.19970       -2.64330
C         -3.12360        4.52540       -3.12990
S         -4.01790        5.72080       -2.19350
C         -5.74890        5.74000       -2.79260
C         -5.97000        6.72100       -3.92730
C         -3.51330        3.89730       -4.30550
F         -4.70130        4.16930       -4.89610
C         -2.69950        2.99200       -4.95360
C          0.37980        0.98600       -4.68890
C          1.33440        0.24750       -5.42760
C          1.44180        0.38350       -6.82320
C          2.48330       -0.35350       -7.54610
C          3.79210       -0.35070       -7.06490
C          4.78210       -1.10720       -7.65980
C          4.50280       -1.89400       -8.77170
S          5.64230       -2.96180       -9.58290
C          7.25910       -2.55280       -8.84090
C          7.79400       -1.21620       -9.31810
C          3.19670       -1.85940       -9.26500
C          2.19950       -1.11100       -8.68080
F          2.88830       -2.61390      -10.34110
C          0.49590        1.19380       -7.42780
S          0.28860        1.38590       -9.14810
C          2.02210       -0.68910       -4.62250
C          1.63650       -0.69400       -3.31430
S          0.39310        0.50060       -3.00500
C          2.17840       -1.58140       -2.33210
C          3.27910       -2.36400       -2.53160
C          3.57780       -3.22160       -1.44860
C          4.64040       -4.13340       -1.35900
C          5.53520       -4.35210       -2.50240
C          6.91980       -4.27660       -2.37270
C          7.73990       -4.47310       -3.46530
C          7.20980       -4.75240       -4.72100
S          8.31780       -4.96600       -6.08940
C          7.70570       -6.52140       -6.86100
C          7.14150       -6.30300       -8.24990
C          5.82510       -4.81200       -4.83860
F          5.25460       -5.04670       -6.04100
C          4.99240       -4.63020       -3.75490
C          4.76020       -4.82610       -0.16530
C          3.84230       -4.68370        0.90440
C          2.77110       -3.77920        0.80830
C          1.80140       -3.64150        1.90100
C          2.21460       -3.49540        3.22560
C          1.29450       -3.39990        4.24440
C         -0.07870       -3.45600        3.99790
S         -1.11900       -3.38590        5.41850
C         -2.77600       -2.89850        4.79680
C         -3.62890       -2.48620        5.98010
C         -0.47710       -3.60930        2.67430
C          0.43680       -3.68630        1.64140
F         -1.78410       -3.70970        2.34010
C          2.66980       -3.05730       -0.37460
S          1.47740       -1.84430       -0.75480
C          4.13900       -5.59560        1.96340
C          5.22510       -6.35520        1.71970
S          5.96780       -6.03520        0.18880
H          1.23790       -1.36760       15.38270
H          3.18150       -0.89620       13.71530
H          4.32290       -1.86760        9.49330
H          6.72030       -1.48480        9.51000
H          8.93890       -1.68030       10.13330
H          8.67750       -0.40970        8.90120
H         10.81590        0.67680        9.58760
H         11.10670       -0.99360        9.08440
H         11.07290       -0.57630       10.80240
H          3.80110        1.16020       12.47620
H         -1.73430       -2.67010        9.22180
H         -4.11550       -3.11370        9.11170
H         -6.19040       -3.34580        8.73090
H         -7.74540       -3.48090        9.56200
H         -6.40880       -5.59000        9.83740
H         -5.12880       -4.66680       10.63460
H         -6.71770       -4.79800       11.38710
H         -2.40810        0.22280       12.31160
H         -1.20000       -0.59120        8.07490
H          3.37650       -0.61450        5.97140
H          6.69690       -1.21340        4.89110
H          5.24910       -1.87540        5.69340
H          5.56740       -0.11910        5.73090
H          5.71130       -0.32510        1.66880
H          5.08700       -1.99500        1.63250
H          5.13140       -1.03090        0.13900
H          1.26840       -0.04670        1.54520
H         -2.40290        0.59060        2.98140
H         -0.44980       -1.17800        1.42960
H         -3.73160        0.91540        0.84160
H         -7.36530        1.25940       -2.00930
H         -8.64330        3.07410       -0.95570
H         -6.33120        5.97240        2.24720
H         -8.00760        6.31880        2.71130
H         -7.05460        4.53760        4.18190
H         -6.70330        3.54280        2.76690
H         -8.37950        3.89370        3.20180
H         -3.77050        2.87490       -0.32980
H         -2.32610       -3.53570       -2.43610
H         -0.44470       -4.87270       -3.23720
H          2.94800       -4.77930       -6.97070
H          2.13940       -3.20480       -7.02990
H          0.90030       -5.89090       -7.85260
H          0.07630       -4.32950       -7.94220
H          1.47390       -4.64570       -8.97080
H         -1.66010       -0.77200       -5.64460
H         -3.72820       -0.80520       -6.10110
H         -7.41330        2.63910       -5.94570
H         -9.58740        3.48760       -5.72810
H         -9.88540        5.18120       -5.26410
H         -8.38060        4.37010       -4.75260
H         -7.68730        7.66430      -10.01830
H         -6.00980        7.12460       -9.75630
H         -7.09880        6.18320      -10.81440
H         -5.36800        4.87410       -9.89610
H         -3.66760        3.48980      -10.88020
H         -1.29980        3.19880      -10.90410
H         -1.97340        3.46550       -7.25290
H         -0.01850        3.17070       -2.92680
H         -1.52900        4.67120       -1.72810
H         -6.03060        4.72190       -3.05250
H         -6.31500        6.04500       -1.91140
H         -7.02920        6.76150       -4.17290
H         -5.64230        7.71570       -3.63310
H         -5.42470        6.42310       -4.81840
H         -3.09410        2.49580       -5.82180
H          4.04180        0.26240       -6.21150
H          5.77330       -1.08910       -7.23670
H          7.17340       -2.61050       -7.75690
H          7.90510       -3.36430       -9.17410
H          7.90280       -1.22130      -10.40020
H          7.12510       -0.40230       -9.04690
H          8.76860       -1.03000       -8.87070
H          1.20170       -1.16260       -9.08410
H          2.73860       -1.38110       -5.02340
H          3.88200       -2.31940       -3.41860
H          7.35510       -4.05280       -1.41090
H          8.81210       -4.41200       -3.36310
H          8.57430       -7.17990       -6.89170
H          6.96480       -6.94210       -6.18470
H          6.30300       -5.61240       -8.22700
H          6.79530       -7.25240       -8.65360
H          7.90560       -5.90440       -8.91330
H          3.92500       -4.71400       -3.89480
H          3.26730       -3.43330        3.45370
H          1.62100       -3.28320        5.26630
H         -2.63600       -2.07260        4.10100
H         -3.21310       -3.75070        4.27940
H         -4.61860       -2.19600        5.63460
H         -3.18030       -1.64430        6.50250
H         -3.72850       -3.31550        6.67680
H          0.06240       -3.81490        0.63740
H          3.54170       -5.68600        2.85220
H          5.65610       -7.10990        2.34820
