
  xtb     03042219183D
 energy: -191.815560850277 gnorm: 0.000221454338 xtb: 6.4.1 (unknown)
116127  0     0  0            999 V2000
    9.8770   -5.1539    2.7081 C   0  0  0  0  0  0  0  0  0  0  0  0
    8.5686   -5.3250    3.8184 S   0  0  0  0  0  0  0  0  0  0  0  0
    7.4256   -4.6196    2.6965 C   0  0  0  0  0  0  0  0  0  0  0  0
    8.0544   -4.3015    1.5080 C   0  0  0  0  0  0  0  0  0  0  0  0
    7.6011   -3.8207    0.2414 C   0  0  0  0  0  0  0  0  0  0  0  0
    8.5549   -3.6829   -0.7011 C   0  0  0  0  0  0  0  0  0  0  0  0
    8.3587   -3.1910   -2.0949 C   0  0  0  0  0  0  0  0  0  0  0  0
    8.9824   -1.8086   -2.2888 C   0  0  0  0  0  0  0  0  0  0  0  0
   10.3016   -4.1747   -0.0821 Se  0  0  0  0  0  2  0  0  0  0  0  0
    9.4542   -4.6010    1.5430 C   0  0  0  0  0  0  0  0  0  0  0  0
    6.0597   -4.4392    3.0612 C   0  0  0  0  0  0  0  0  0  0  0  0
    5.2093   -5.6515    3.9695 S   0  0  0  0  0  0  0  0  0  0  0  0
    5.2126   -3.3774    2.7509 C   0  0  0  0  0  0  0  0  0  0  0  0
    5.5399   -2.1968    2.0473 C   0  0  0  0  0  0  0  0  0  0  0  0
    4.5803   -1.2551    1.8167 C   0  0  0  0  0  0  0  0  0  0  0  0
    4.7522   -0.1286    1.0774 O   0  0  0  0  0  0  0  0  0  0  0  0
    5.9747    0.0318    0.4010 C   0  0  0  0  0  0  0  0  0  0  0  0
    3.2727   -1.3886    2.4076 C   0  0  0  0  0  0  0  0  0  0  0  0
    2.4657   -0.3163    2.2138 O   0  0  0  0  0  0  0  0  0  0  0  0
    1.2367   -0.2710    2.8981 C   0  0  0  0  0  0  0  0  0  0  0  0
    2.9489   -2.5116    3.1130 C   0  0  0  0  0  0  0  0  0  0  0  0
    3.8832   -3.5661    3.2332 C   0  0  0  0  0  0  0  0  0  0  0  0
    3.6903   -4.8058    3.8443 C   0  0  0  0  0  0  0  0  0  0  0  0
    2.4970   -5.4731    4.2501 C   0  0  0  0  0  0  0  0  0  0  0  0
    1.2632   -5.3648    3.6911 C   0  0  0  0  0  0  0  0  0  0  0  0
    0.9214   -4.6538    2.5046 C   0  0  0  0  0  0  0  0  0  0  0  0
   -0.5993   -3.8065    2.4249 S   0  0  0  0  0  0  0  0  0  0  0  0
    1.6823   -4.3834    1.3647 C   0  0  0  0  0  0  0  0  0  0  0  0
    2.8879   -5.0064    0.9721 C   0  0  0  0  0  0  0  0  0  0  0  0
    3.5864   -4.5149   -0.0919 C   0  0  0  0  0  0  0  0  0  0  0  0
    4.7502   -5.0247   -0.5736 O   0  0  0  0  0  0  0  0  0  0  0  0
    5.2199   -6.2364   -0.0334 C   0  0  0  0  0  0  0  0  0  0  0  0
    3.1098   -3.3545   -0.7982 C   0  0  0  0  0  0  0  0  0  0  0  0
    3.9807   -2.8596   -1.7172 O   0  0  0  0  0  0  0  0  0  0  0  0
    3.6337   -1.6623   -2.3713 C   0  0  0  0  0  0  0  0  0  0  0  0
    1.8660   -2.8526   -0.5345 C   0  0  0  0  0  0  0  0  0  0  0  0
    1.1080   -3.3864    0.5277 C   0  0  0  0  0  0  0  0  0  0  0  0
   -0.1615   -2.9740    0.9569 C   0  0  0  0  0  0  0  0  0  0  0  0
   -0.9907   -2.0075    0.3631 C   0  0  0  0  0  0  0  0  0  0  0  0
   -2.1568   -1.5383    0.8832 C   0  0  0  0  0  0  0  0  0  0  0  0
   -2.9615   -0.5640    0.2589 C   0  0  0  0  0  0  0  0  0  0  0  0
   -4.3777    0.0501    1.0910 S   0  0  0  0  0  0  0  0  0  0  0  0
   -4.7959    1.1240   -0.2212 C   0  0  0  0  0  0  0  0  0  0  0  0
   -3.8796    0.9973   -1.2604 C   0  0  0  0  0  0  0  0  0  0  0  0
   -3.7753    1.6170   -2.5412 C   0  0  0  0  0  0  0  0  0  0  0  0
   -2.7235    1.2255   -3.2877 C   0  0  0  0  0  0  0  0  0  0  0  0
   -2.3381    1.6715   -4.6589 C   0  0  0  0  0  0  0  0  0  0  0  0
   -3.3125    2.6724   -5.2673 C   0  0  0  0  0  0  0  0  0  0  0  0
   -1.6407   -0.0688   -2.3973 Se  0  0  0  0  0  2  0  0  0  0  0  0
   -2.8566    0.0589   -0.9726 C   0  0  0  0  0  0  0  0  0  0  0  0
   -5.9184    1.9640   -0.1063 C   0  0  0  0  0  0  0  0  0  0  0  0
   -6.4243    3.0333   -1.3973 S   0  0  0  0  0  0  0  0  0  0  0  0
   -7.7657    3.6652   -0.4730 C   0  0  0  0  0  0  0  0  0  0  0  0
   -7.8150    3.0694    0.7787 C   0  0  0  0  0  0  0  0  0  0  0  0
   -8.6709    3.2202    1.9099 C   0  0  0  0  0  0  0  0  0  0  0  0
   -8.3610    2.4437    2.9707 C   0  0  0  0  0  0  0  0  0  0  0  0
   -9.0610    2.3973    4.2870 C   0  0  0  0  0  0  0  0  0  0  0  0
   -8.1293    2.8082    5.4262 C   0  0  0  0  0  0  0  0  0  0  0  0
   -6.8364    1.3339    2.6610 Se  0  0  0  0  0  2  0  0  0  0  0  0
   -6.7763    2.1183    0.9656 C   0  0  0  0  0  0  0  0  0  0  0  0
   -8.5826    4.6488   -1.0722 C   0  0  0  0  0  0  0  0  0  0  0  0
   -9.9750    5.3571   -0.2814 S   0  0  0  0  0  0  0  0  0  0  0  0
  -10.3255    6.3658   -1.6332 C   0  0  0  0  0  0  0  0  0  0  0  0
   -9.4323    6.1846   -2.6503 C   0  0  0  0  0  0  0  0  0  0  0  0
   -9.2722    6.7590   -3.9523 C   0  0  0  0  0  0  0  0  0  0  0  0
   -8.2244    6.2936   -4.6597 C   0  0  0  0  0  0  0  0  0  0  0  0
   -7.7965    6.7212   -6.0238 C   0  0  0  0  0  0  0  0  0  0  0  0
   -7.5638    5.5275   -6.9458 C   0  0  0  0  0  0  0  0  0  0  0  0
   -7.2220    4.9589   -3.7162 Se  0  0  0  0  0  2  0  0  0  0  0  0
   -8.4448    5.2069   -2.3245 C   0  0  0  0  0  0  0  0  0  0  0  0
   10.8583   -5.4763    2.9921 H   0  0  0  0  0  0  0  0  0  0  0  0
    6.5635   -3.6277    0.0317 H   0  0  0  0  0  0  0  0  0  0  0  0
    8.8201   -3.8901   -2.7985 H   0  0  0  0  0  0  0  0  0  0  0  0
    7.2866   -3.1544   -2.3015 H   0  0  0  0  0  0  0  0  0  0  0  0
    8.8513   -1.4716   -3.3141 H   0  0  0  0  0  0  0  0  0  0  0  0
   10.0492   -1.8484   -2.0695 H   0  0  0  0  0  0  0  0  0  0  0  0
    8.5213   -1.0838   -1.6207 H   0  0  0  0  0  0  0  0  0  0  0  0
    6.5531   -2.0593    1.7126 H   0  0  0  0  0  0  0  0  0  0  0  0
    6.1816   -0.8219   -0.2533 H   0  0  0  0  0  0  0  0  0  0  0  0
    5.8644    0.9344   -0.1984 H   0  0  0  0  0  0  0  0  0  0  0  0
    6.8086    0.1622    1.0987 H   0  0  0  0  0  0  0  0  0  0  0  0
    1.3819   -0.3346    3.9813 H   0  0  0  0  0  0  0  0  0  0  0  0
    0.7960    0.6922    2.6467 H   0  0  0  0  0  0  0  0  0  0  0  0
    0.5624   -1.0684    2.5753 H   0  0  0  0  0  0  0  0  0  0  0  0
    1.9930   -2.6114    3.5976 H   0  0  0  0  0  0  0  0  0  0  0  0
    2.6115   -6.1643    5.0761 H   0  0  0  0  0  0  0  0  0  0  0  0
    0.4345   -5.8256    4.2145 H   0  0  0  0  0  0  0  0  0  0  0  0
    3.2311   -5.8648    1.5235 H   0  0  0  0  0  0  0  0  0  0  0  0
    4.4832   -7.0366   -0.1542 H   0  0  0  0  0  0  0  0  0  0  0  0
    5.4752   -6.1361    1.0254 H   0  0  0  0  0  0  0  0  0  0  0  0
    6.1193   -6.4793   -0.5966 H   0  0  0  0  0  0  0  0  0  0  0  0
    3.4348   -0.8611   -1.6521 H   0  0  0  0  0  0  0  0  0  0  0  0
    4.4955   -1.3993   -2.9833 H   0  0  0  0  0  0  0  0  0  0  0  0
    2.7603   -1.7947   -3.0179 H   0  0  0  0  0  0  0  0  0  0  0  0
    1.4614   -2.0331   -1.1050 H   0  0  0  0  0  0  0  0  0  0  0  0
   -0.6383   -1.6024   -0.5793 H   0  0  0  0  0  0  0  0  0  0  0  0
   -2.5028   -1.9124    1.8377 H   0  0  0  0  0  0  0  0  0  0  0  0
   -4.4944    2.3406   -2.8811 H   0  0  0  0  0  0  0  0  0  0  0  0
   -1.3364    2.1142   -4.6161 H   0  0  0  0  0  0  0  0  0  0  0  0
   -2.2671    0.7903   -5.3065 H   0  0  0  0  0  0  0  0  0  0  0  0
   -2.9805    2.9504   -6.2650 H   0  0  0  0  0  0  0  0  0  0  0  0
   -3.3699    3.5728   -4.6600 H   0  0  0  0  0  0  0  0  0  0  0  0
   -4.3082    2.2415   -5.3429 H   0  0  0  0  0  0  0  0  0  0  0  0
   -9.5010    3.9060    1.9132 H   0  0  0  0  0  0  0  0  0  0  0  0
   -9.9263    3.0626    4.2515 H   0  0  0  0  0  0  0  0  0  0  0  0
   -9.4205    1.3800    4.4708 H   0  0  0  0  0  0  0  0  0  0  0  0
   -7.7750    3.8257    5.2776 H   0  0  0  0  0  0  0  0  0  0  0  0
   -7.2656    2.1432    5.4576 H   0  0  0  0  0  0  0  0  0  0  0  0
   -8.6460    2.7527    6.3810 H   0  0  0  0  0  0  0  0  0  0  0  0
  -11.1668    7.0274   -1.5870 H   0  0  0  0  0  0  0  0  0  0  0  0
   -9.9473    7.5111   -4.3255 H   0  0  0  0  0  0  0  0  0  0  0  0
   -6.8674    7.2951   -5.9431 H   0  0  0  0  0  0  0  0  0  0  0  0
   -8.5612    7.3790   -6.4435 H   0  0  0  0  0  0  0  0  0  0  0  0
   -6.7888    4.8818   -6.5290 H   0  0  0  0  0  0  0  0  0  0  0  0
   -7.2450    5.8607   -7.9302 H   0  0  0  0  0  0  0  0  0  0  0  0
   -8.4766    4.9453   -7.0510 H   0  0  0  0  0  0  0  0  0  0  0  0
  1  2  1  0  0  0  0
  2  3  1  0  0  0  0
  3  4  2  0  0  0  0
  4  5  1  0  0  0  0
  5  6  2  0  0  0  0
  6  7  1  0  0  0  0
  7  8  1  0  0  0  0
  6  9  1  0  0  0  0
  9 10  1  0  0  0  0
  3 11  1  0  0  0  0
 11 12  1  0  0  0  0
 11 13  2  0  0  0  0
 13 14  1  0  0  0  0
 14 15  2  0  0  0  0
 15 16  1  0  0  0  0
 16 17  1  0  0  0  0
 15 18  1  0  0  0  0
 18 19  1  0  0  0  0
 19 20  1  0  0  0  0
 18 21  2  0  0  0  0
 21 22  1  0  0  0  0
 22 23  2  0  0  0  0
 23 24  1  0  0  0  0
 24 25  2  0  0  0  0
 25 26  1  0  0  0  0
 26 27  1  0  0  0  0
 26 28  2  0  0  0  0
 28 29  1  0  0  0  0
 29 30  2  0  0  0  0
 30 31  1  0  0  0  0
 31 32  1  0  0  0  0
 30 33  1  0  0  0  0
 33 34  1  0  0  0  0
 34 35  1  0  0  0  0
 33 36  2  0  0  0  0
 36 37  1  0  0  0  0
 37 38  2  0  0  0  0
 38 39  1  0  0  0  0
 39 40  2  0  0  0  0
 40 41  1  0  0  0  0
 41 42  1  0  0  0  0
 42 43  1  0  0  0  0
 43 44  2  0  0  0  0
 44 45  1  0  0  0  0
 45 46  2  0  0  0  0
 46 47  1  0  0  0  0
 47 48  1  0  0  0  0
 46 49  1  0  0  0  0
 49 50  1  0  0  0  0
 43 51  1  0  0  0  0
 51 52  1  0  0  0  0
 52 53  1  0  0  0  0
 53 54  2  0  0  0  0
 54 55  1  0  0  0  0
 55 56  2  0  0  0  0
 56 57  1  0  0  0  0
 57 58  1  0  0  0  0
 56 59  1  0  0  0  0
 59 60  1  0  0  0  0
 53 61  1  0  0  0  0
 61 62  1  0  0  0  0
 62 63  1  0  0  0  0
 63 64  2  0  0  0  0
 64 65  1  0  0  0  0
 65 66  2  0  0  0  0
 66 67  1  0  0  0  0
 67 68  1  0  0  0  0
 66 69  1  0  0  0  0
 69 70  1  0  0  0  0
 10  1  2  0  0  0  0
 23 12  1  0  0  0  0
 38 27  1  0  0  0  0
 50 41  2  0  0  0  0
 60 51  2  0  0  0  0
 70 61  2  0  0  0  0
 10  4  1  0  0  0  0
 22 13  1  0  0  0  0
 37 28  1  0  0  0  0
 50 44  1  0  0  0  0
 60 54  1  0  0  0  0
 70 64  1  0  0  0  0
  1 71  1  0  0  0  0
  5 72  1  0  0  0  0
  7 73  1  0  0  0  0
  7 74  1  0  0  0  0
  8 75  1  0  0  0  0
  8 76  1  0  0  0  0
  8 77  1  0  0  0  0
 14 78  1  0  0  0  0
 17 79  1  0  0  0  0
 17 80  1  0  0  0  0
 17 81  1  0  0  0  0
 20 82  1  0  0  0  0
 20 83  1  0  0  0  0
 20 84  1  0  0  0  0
 21 85  1  0  0  0  0
 24 86  1  0  0  0  0
 25 87  1  0  0  0  0
 29 88  1  0  0  0  0
 32 89  1  0  0  0  0
 32 90  1  0  0  0  0
 32 91  1  0  0  0  0
 35 92  1  0  0  0  0
 35 93  1  0  0  0  0
 35 94  1  0  0  0  0
 36 95  1  0  0  0  0
 39 96  1  0  0  0  0
 40 97  1  0  0  0  0
 45 98  1  0  0  0  0
 47 99  1  0  0  0  0
 47100  1  0  0  0  0
 48101  1  0  0  0  0
 48102  1  0  0  0  0
 48103  1  0  0  0  0
 55104  1  0  0  0  0
 57105  1  0  0  0  0
 57106  1  0  0  0  0
 58107  1  0  0  0  0
 58108  1  0  0  0  0
 58109  1  0  0  0  0
 63110  1  0  0  0  0
 65111  1  0  0  0  0
 67112  1  0  0  0  0
 67113  1  0  0  0  0
 68114  1  0  0  0  0
 68115  1  0  0  0  0
 68116  1  0  0  0  0
M  END
