
  xtb     03082203123D
 energy: -244.979116938284 gnorm: 0.000166800006 xtb: 6.4.1 (unknown)
173181  0     0  0            999 V2000
   -1.4906    3.5303    4.1778 C   0  0  0  0  0  0  0  0  0  0  0  0
   -0.1988    4.0313    4.2138 C   0  0  0  0  0  0  0  0  0  0  0  0
    0.6367    3.7936    2.9819 C   0  0  0  0  0  0  0  0  0  0  0  0
    1.0541    2.3240    2.8982 C   0  0  0  0  0  0  0  0  0  0  0  0
    0.2649    4.6779    5.3656 C   0  0  0  0  0  0  0  0  0  0  0  0
    1.6543    5.2616    5.4281 C   0  0  0  0  0  0  0  0  0  0  0  0
    2.6843    4.2230    5.8770 C   0  0  0  0  0  0  0  0  0  0  0  0
   -0.5858    4.7720    6.4742 C   0  0  0  0  0  0  0  0  0  0  0  0
   -0.1911    5.4687    7.7521 C   0  0  0  0  0  0  0  0  0  0  0  0
   -0.5814    6.9477    7.7065 C   0  0  0  0  0  0  0  0  0  0  0  0
   -1.8684    4.2512    6.4121 C   0  0  0  0  0  0  0  0  0  0  0  0
   -2.3423    3.6123    5.2723 C   0  0  0  0  0  0  0  0  0  0  0  0
   -3.7104    3.1119    5.2145 C   0  0  0  0  0  0  0  0  0  0  0  0
   -4.1281    1.9792    4.6269 C   0  0  0  0  0  0  0  0  0  0  0  0
   -3.3268    0.9170    4.0905 C   0  0  0  0  0  0  0  0  0  0  0  0
   -1.7672    0.5077    4.7223 S   0  0  0  0  0  0  0  0  0  0  0  0
   -3.6979    0.0124    3.1003 C   0  0  0  0  0  0  0  0  0  0  0  0
   -4.8938    0.0244    2.3431 C   0  0  0  0  0  0  0  0  0  0  0  0
   -5.1226   -0.9507    1.4183 C   0  0  0  0  0  0  0  0  0  0  0  0
   -6.2245   -1.0474    0.6268 O   0  0  0  0  0  0  0  0  0  0  0  0
   -7.2045   -0.0480    0.7317 C   0  0  0  0  0  0  0  0  0  0  0  0
   -4.1686   -2.0170    1.2310 C   0  0  0  0  0  0  0  0  0  0  0  0
   -4.5795   -2.9738    0.3571 O   0  0  0  0  0  0  0  0  0  0  0  0
   -3.8246   -4.1556    0.2764 C   0  0  0  0  0  0  0  0  0  0  0  0
   -2.9852   -2.0153    1.9098 C   0  0  0  0  0  0  0  0  0  0  0  0
   -2.7019   -0.9798    2.8347 C   0  0  0  0  0  0  0  0  0  0  0  0
   -1.5702   -0.8261    3.6276 C   0  0  0  0  0  0  0  0  0  0  0  0
   -0.3298   -1.5509    3.6465 C   0  0  0  0  0  0  0  0  0  0  0  0
    0.2849   -2.0415    2.5597 C   0  0  0  0  0  0  0  0  0  0  0  0
    1.4967   -2.8638    2.6141 C   0  0  0  0  0  0  0  0  0  0  0  0
    2.6165   -2.5295    3.3905 C   0  0  0  0  0  0  0  0  0  0  0  0
    2.8038   -1.0920    3.8147 C   0  0  0  0  0  0  0  0  0  0  0  0
    3.6696   -0.3682    2.7770 C   0  0  0  0  0  0  0  0  0  0  0  0
    3.6229   -3.4729    3.6373 C   0  0  0  0  0  0  0  0  0  0  0  0
    4.8034   -3.1199    4.5098 C   0  0  0  0  0  0  0  0  0  0  0  0
    4.5344   -3.4686    5.9751 C   0  0  0  0  0  0  0  0  0  0  0  0
    3.5032   -4.7615    3.1073 C   0  0  0  0  0  0  0  0  0  0  0  0
    4.4351   -5.9058    3.4125 C   0  0  0  0  0  0  0  0  0  0  0  0
    3.7444   -6.9404    4.3042 C   0  0  0  0  0  0  0  0  0  0  0  0
    2.4649   -5.0287    2.2284 C   0  0  0  0  0  0  0  0  0  0  0  0
    1.4828   -4.0963    1.9363 C   0  0  0  0  0  0  0  0  0  0  0  0
    0.4988   -4.4450    0.9087 C   0  0  0  0  0  0  0  0  0  0  0  0
    0.2832   -3.6670   -0.1622 C   0  0  0  0  0  0  0  0  0  0  0  0
   -0.6072   -3.8935   -1.2588 C   0  0  0  0  0  0  0  0  0  0  0  0
   -1.1623   -2.4818   -2.1037 S   0  0  0  0  0  0  0  0  0  0  0  0
   -1.1747   -5.0462   -1.8011 C   0  0  0  0  0  0  0  0  0  0  0  0
   -0.9191   -6.3927   -1.4528 C   0  0  0  0  0  0  0  0  0  0  0  0
   -1.5695   -7.4042   -2.0973 C   0  0  0  0  0  0  0  0  0  0  0  0
   -1.4012   -8.7317   -1.8531 O   0  0  0  0  0  0  0  0  0  0  0  0
   -0.4817   -9.1119   -0.8623 C   0  0  0  0  0  0  0  0  0  0  0  0
   -2.5238   -7.1124   -3.1352 C   0  0  0  0  0  0  0  0  0  0  0  0
   -3.1144   -8.2128   -3.6735 O   0  0  0  0  0  0  0  0  0  0  0  0
   -4.0537   -8.0268   -4.7009 C   0  0  0  0  0  0  0  0  0  0  0  0
   -2.7573   -5.8219   -3.5120 C   0  0  0  0  0  0  0  0  0  0  0  0
   -2.0833   -4.7591   -2.8673 C   0  0  0  0  0  0  0  0  0  0  0  0
   -2.1913   -3.3956   -3.1490 C   0  0  0  0  0  0  0  0  0  0  0  0
   -3.0136   -2.7805   -4.1429 C   0  0  0  0  0  0  0  0  0  0  0  0
   -3.0637   -1.4714   -4.4274 C   0  0  0  0  0  0  0  0  0  0  0  0
   -2.2445   -0.4405   -3.7616 C   0  0  0  0  0  0  0  0  0  0  0  0
   -2.7430    0.2792   -2.6733 C   0  0  0  0  0  0  0  0  0  0  0  0
   -4.1329   -0.0506   -2.1886 C   0  0  0  0  0  0  0  0  0  0  0  0
   -5.1956    0.7770   -2.9140 C   0  0  0  0  0  0  0  0  0  0  0  0
   -1.9627    1.2673   -2.0613 C   0  0  0  0  0  0  0  0  0  0  0  0
   -2.5251    2.0775   -0.9206 C   0  0  0  0  0  0  0  0  0  0  0  0
   -2.1415    1.4859    0.4359 C   0  0  0  0  0  0  0  0  0  0  0  0
   -0.6514    1.4732   -2.5031 C   0  0  0  0  0  0  0  0  0  0  0  0
    0.3285    2.4093   -1.8432 C   0  0  0  0  0  0  0  0  0  0  0  0
    1.3936    1.6220   -1.0762 C   0  0  0  0  0  0  0  0  0  0  0  0
   -0.1793    0.7575   -3.5895 C   0  0  0  0  0  0  0  0  0  0  0  0
   -0.9604   -0.1752   -4.2579 C   0  0  0  0  0  0  0  0  0  0  0  0
   -0.4167   -0.9393   -5.3724 C   0  0  0  0  0  0  0  0  0  0  0  0
    0.4207   -0.4923   -6.3224 C   0  0  0  0  0  0  0  0  0  0  0  0
    0.8291    0.8583   -6.5811 C   0  0  0  0  0  0  0  0  0  0  0  0
   -0.1900    2.2239   -6.2778 S   0  0  0  0  0  0  0  0  0  0  0  0
    2.0177    1.2615   -7.1846 C   0  0  0  0  0  0  0  0  0  0  0  0
    3.1052    0.4377   -7.5600 C   0  0  0  0  0  0  0  0  0  0  0  0
    4.2239    0.9940   -8.1067 C   0  0  0  0  0  0  0  0  0  0  0  0
    5.3323    0.3135   -8.5042 O   0  0  0  0  0  0  0  0  0  0  0  0
    5.3475   -1.0811   -8.3395 C   0  0  0  0  0  0  0  0  0  0  0  0
    4.3083    2.4203   -8.3006 C   0  0  0  0  0  0  0  0  0  0  0  0
    5.4823    2.8344   -8.8474 O   0  0  0  0  0  0  0  0  0  0  0  0
    5.6701    4.2105   -9.0547 C   0  0  0  0  0  0  0  0  0  0  0  0
    3.2711    3.2308   -7.9414 C   0  0  0  0  0  0  0  0  0  0  0  0
    2.1012    2.6751   -7.3719 C   0  0  0  0  0  0  0  0  0  0  0  0
    0.9623    3.3453   -6.9308 C   0  0  0  0  0  0  0  0  0  0  0  0
    0.6987    4.7503   -6.9641 C   0  0  0  0  0  0  0  0  0  0  0  0
   -0.4002    5.3375   -6.4881 C   0  0  0  0  0  0  0  0  0  0  0  0
   -1.8491    3.0761    3.2655 H   0  0  0  0  0  0  0  0  0  0  0  0
    0.0440    4.0417    2.0975 H   0  0  0  0  0  0  0  0  0  0  0  0
    1.5290    4.4169    2.9679 H   0  0  0  0  0  0  0  0  0  0  0  0
    1.6019    2.0326    3.7910 H   0  0  0  0  0  0  0  0  0  0  0  0
    1.6880    2.1563    2.0306 H   0  0  0  0  0  0  0  0  0  0  0  0
    0.1813    1.6807    2.8197 H   0  0  0  0  0  0  0  0  0  0  0  0
    1.9420    5.6530    4.4511 H   0  0  0  0  0  0  0  0  0  0  0  0
    1.6739    6.1035    6.1190 H   0  0  0  0  0  0  0  0  0  0  0  0
    2.7475    3.4109    5.1582 H   0  0  0  0  0  0  0  0  0  0  0  0
    2.4056    3.8008    6.8401 H   0  0  0  0  0  0  0  0  0  0  0  0
    3.6681    4.6794    5.9693 H   0  0  0  0  0  0  0  0  0  0  0  0
   -0.7140    4.9950    8.5861 H   0  0  0  0  0  0  0  0  0  0  0  0
    0.8774    5.3751    7.9434 H   0  0  0  0  0  0  0  0  0  0  0  0
   -0.0851    7.4542    6.8814 H   0  0  0  0  0  0  0  0  0  0  0  0
   -1.6552    7.0476    7.5647 H   0  0  0  0  0  0  0  0  0  0  0  0
   -0.3060    7.4443    8.6346 H   0  0  0  0  0  0  0  0  0  0  0  0
   -2.5131    4.3306    7.2768 H   0  0  0  0  0  0  0  0  0  0  0  0
   -4.4534    3.7482    5.6795 H   0  0  0  0  0  0  0  0  0  0  0  0
   -5.1959    1.7995    4.5686 H   0  0  0  0  0  0  0  0  0  0  0  0
   -5.6092    0.8105    2.5194 H   0  0  0  0  0  0  0  0  0  0  0  0
   -7.9716   -0.3085    0.0040 H   0  0  0  0  0  0  0  0  0  0  0  0
   -7.6504   -0.0223    1.7320 H   0  0  0  0  0  0  0  0  0  0  0  0
   -6.7982    0.9409    0.4928 H   0  0  0  0  0  0  0  0  0  0  0  0
   -3.7754   -4.6623    1.2464 H   0  0  0  0  0  0  0  0  0  0  0  0
   -4.3392   -4.7921   -0.4415 H   0  0  0  0  0  0  0  0  0  0  0  0
   -2.8085   -3.9661   -0.0770 H   0  0  0  0  0  0  0  0  0  0  0  0
   -2.2634   -2.8049    1.7826 H   0  0  0  0  0  0  0  0  0  0  0  0
    0.1316   -1.6516    4.6217 H   0  0  0  0  0  0  0  0  0  0  0  0
   -0.1897   -1.9136    1.5998 H   0  0  0  0  0  0  0  0  0  0  0  0
    3.2610   -1.0236    4.8011 H   0  0  0  0  0  0  0  0  0  0  0  0
    1.8482   -0.5771    3.8578 H   0  0  0  0  0  0  0  0  0  0  0  0
    3.1504   -0.3401    1.8215 H   0  0  0  0  0  0  0  0  0  0  0  0
    3.8652    0.6538    3.0940 H   0  0  0  0  0  0  0  0  0  0  0  0
    4.6211   -0.8727    2.6260 H   0  0  0  0  0  0  0  0  0  0  0  0
    5.0316   -2.0591    4.4371 H   0  0  0  0  0  0  0  0  0  0  0  0
    5.6924   -3.6528    4.1691 H   0  0  0  0  0  0  0  0  0  0  0  0
    5.3783   -3.1745    6.5962 H   0  0  0  0  0  0  0  0  0  0  0  0
    3.6453   -2.9528    6.3313 H   0  0  0  0  0  0  0  0  0  0  0  0
    4.3758   -4.5369    6.0943 H   0  0  0  0  0  0  0  0  0  0  0  0
    5.3459   -5.5712    3.9046 H   0  0  0  0  0  0  0  0  0  0  0  0
    4.7228   -6.3876    2.4739 H   0  0  0  0  0  0  0  0  0  0  0  0
    3.4316   -6.4888    5.2430 H   0  0  0  0  0  0  0  0  0  0  0  0
    4.4210   -7.7636    4.5241 H   0  0  0  0  0  0  0  0  0  0  0  0
    2.8602   -7.3405    3.8137 H   0  0  0  0  0  0  0  0  0  0  0  0
    2.4263   -5.9924    1.7385 H   0  0  0  0  0  0  0  0  0  0  0  0
    0.0085   -5.4024    1.0123 H   0  0  0  0  0  0  0  0  0  0  0  0
    0.8010   -2.7155   -0.2118 H   0  0  0  0  0  0  0  0  0  0  0  0
   -0.1830   -6.5997   -0.6962 H   0  0  0  0  0  0  0  0  0  0  0  0
   -0.5067  -10.2001   -0.8384 H   0  0  0  0  0  0  0  0  0  0  0  0
   -0.7657   -8.7215    0.1212 H   0  0  0  0  0  0  0  0  0  0  0  0
    0.5331   -8.7779   -1.1044 H   0  0  0  0  0  0  0  0  0  0  0  0
   -3.6028   -7.5495   -5.5777 H   0  0  0  0  0  0  0  0  0  0  0  0
   -4.3967   -9.0242   -4.9710 H   0  0  0  0  0  0  0  0  0  0  0  0
   -4.9074   -7.4293   -4.3628 H   0  0  0  0  0  0  0  0  0  0  0  0
   -3.4507   -5.5938   -4.3042 H   0  0  0  0  0  0  0  0  0  0  0  0
   -3.6418   -3.4603   -4.7033 H   0  0  0  0  0  0  0  0  0  0  0  0
   -3.7231   -1.1269   -5.2135 H   0  0  0  0  0  0  0  0  0  0  0  0
   -4.3315   -1.1083   -2.3700 H   0  0  0  0  0  0  0  0  0  0  0  0
   -4.2131    0.1066   -1.1141 H   0  0  0  0  0  0  0  0  0  0  0  0
   -5.0428    1.8419   -2.7498 H   0  0  0  0  0  0  0  0  0  0  0  0
   -5.1530    0.5947   -3.9851 H   0  0  0  0  0  0  0  0  0  0  0  0
   -6.1875    0.5079   -2.5573 H   0  0  0  0  0  0  0  0  0  0  0  0
   -3.6104    2.1213   -0.9931 H   0  0  0  0  0  0  0  0  0  0  0  0
   -2.1660    3.1066   -0.9843 H   0  0  0  0  0  0  0  0  0  0  0  0
   -1.0699    1.5525    0.5995 H   0  0  0  0  0  0  0  0  0  0  0  0
   -2.6486    2.0195    1.2378 H   0  0  0  0  0  0  0  0  0  0  0  0
   -2.4276    0.4381    0.4880 H   0  0  0  0  0  0  0  0  0  0  0  0
   -0.1648    3.0962   -1.1586 H   0  0  0  0  0  0  0  0  0  0  0  0
    0.8201    3.0063   -2.6162 H   0  0  0  0  0  0  0  0  0  0  0  0
    0.9329    0.9973   -0.3139 H   0  0  0  0  0  0  0  0  0  0  0  0
    1.9502    0.9742   -1.7493 H   0  0  0  0  0  0  0  0  0  0  0  0
    2.0937    2.3024   -0.5950 H   0  0  0  0  0  0  0  0  0  0  0  0
    0.8376    0.9146   -3.9187 H   0  0  0  0  0  0  0  0  0  0  0  0
   -0.6959   -1.9848   -5.3982 H   0  0  0  0  0  0  0  0  0  0  0  0
    0.8354   -1.2176   -7.0135 H   0  0  0  0  0  0  0  0  0  0  0  0
    3.0291   -0.6245   -7.3964 H   0  0  0  0  0  0  0  0  0  0  0  0
    5.2469   -1.3633   -7.2859 H   0  0  0  0  0  0  0  0  0  0  0  0
    6.3163   -1.4116   -8.7104 H   0  0  0  0  0  0  0  0  0  0  0  0
    4.5536   -1.5639   -8.9196 H   0  0  0  0  0  0  0  0  0  0  0  0
    4.9317    4.6173   -9.7542 H   0  0  0  0  0  0  0  0  0  0  0  0
    6.6658    4.3108   -9.4836 H   0  0  0  0  0  0  0  0  0  0  0  0
    5.6228    4.7693   -8.1137 H   0  0  0  0  0  0  0  0  0  0  0  0
    3.3265    4.2980   -8.0778 H   0  0  0  0  0  0  0  0  0  0  0  0
    1.4743    5.3543   -7.4168 H   0  0  0  0  0  0  0  0  0  0  0  0
   -0.5409    6.4021   -6.5439 H   0  0  0  0  0  0  0  0  0  0  0  0
   -1.1879    4.7638   -6.0289 H   0  0  0  0  0  0  0  0  0  0  0  0
  1  2  2  0  0  0  0
  2  3  1  0  0  0  0
  3  4  1  0  0  0  0
  2  5  1  0  0  0  0
  5  6  1  0  0  0  0
  6  7  1  0  0  0  0
  5  8  2  0  0  0  0
  8  9  1  0  0  0  0
  9 10  1  0  0  0  0
  8 11  1  0  0  0  0
 11 12  2  0  0  0  0
 12 13  1  0  0  0  0
 13 14  2  0  0  0  0
 14 15  1  0  0  0  0
 15 16  1  0  0  0  0
 15 17  2  0  0  0  0
 17 18  1  0  0  0  0
 18 19  2  0  0  0  0
 19 20  1  0  0  0  0
 20 21  1  0  0  0  0
 19 22  1  0  0  0  0
 22 23  1  0  0  0  0
 23 24  1  0  0  0  0
 22 25  2  0  0  0  0
 25 26  1  0  0  0  0
 26 27  2  0  0  0  0
 27 28  1  0  0  0  0
 28 29  2  0  0  0  0
 29 30  1  0  0  0  0
 30 31  2  0  0  0  0
 31 32  1  0  0  0  0
 32 33  1  0  0  0  0
 31 34  1  0  0  0  0
 34 35  1  0  0  0  0
 35 36  1  0  0  0  0
 34 37  2  0  0  0  0
 37 38  1  0  0  0  0
 38 39  1  0  0  0  0
 37 40  1  0  0  0  0
 40 41  2  0  0  0  0
 41 42  1  0  0  0  0
 42 43  2  0  0  0  0
 43 44  1  0  0  0  0
 44 45  1  0  0  0  0
 44 46  2  0  0  0  0
 46 47  1  0  0  0  0
 47 48  2  0  0  0  0
 48 49  1  0  0  0  0
 49 50  1  0  0  0  0
 48 51  1  0  0  0  0
 51 52  1  0  0  0  0
 52 53  1  0  0  0  0
 51 54  2  0  0  0  0
 54 55  1  0  0  0  0
 55 56  2  0  0  0  0
 56 57  1  0  0  0  0
 57 58  2  0  0  0  0
 58 59  1  0  0  0  0
 59 60  2  0  0  0  0
 60 61  1  0  0  0  0
 61 62  1  0  0  0  0
 60 63  1  0  0  0  0
 63 64  1  0  0  0  0
 64 65  1  0  0  0  0
 63 66  2  0  0  0  0
 66 67  1  0  0  0  0
 67 68  1  0  0  0  0
 66 69  1  0  0  0  0
 69 70  2  0  0  0  0
 70 71  1  0  0  0  0
 71 72  2  0  0  0  0
 72 73  1  0  0  0  0
 73 74  1  0  0  0  0
 73 75  2  0  0  0  0
 75 76  1  0  0  0  0
 76 77  2  0  0  0  0
 77 78  1  0  0  0  0
 78 79  1  0  0  0  0
 77 80  1  0  0  0  0
 80 81  1  0  0  0  0
 81 82  1  0  0  0  0
 80 83  2  0  0  0  0
 83 84  1  0  0  0  0
 84 85  2  0  0  0  0
 85 86  1  0  0  0  0
 86 87  2  0  0  0  0
 12  1  1  0  0  0  0
 27 16  1  0  0  0  0
 41 30  1  0  0  0  0
 56 45  1  0  0  0  0
 70 59  1  0  0  0  0
 85 74  1  0  0  0  0
 26 17  1  0  0  0  0
 55 46  1  0  0  0  0
 84 75  1  0  0  0  0
  1 88  1  0  0  0  0
  3 89  1  0  0  0  0
  3 90  1  0  0  0  0
  4 91  1  0  0  0  0
  4 92  1  0  0  0  0
  4 93  1  0  0  0  0
  6 94  1  0  0  0  0
  6 95  1  0  0  0  0
  7 96  1  0  0  0  0
  7 97  1  0  0  0  0
  7 98  1  0  0  0  0
  9 99  1  0  0  0  0
  9100  1  0  0  0  0
 10101  1  0  0  0  0
 10102  1  0  0  0  0
 10103  1  0  0  0  0
 11104  1  0  0  0  0
 13105  1  0  0  0  0
 14106  1  0  0  0  0
 18107  1  0  0  0  0
 21108  1  0  0  0  0
 21109  1  0  0  0  0
 21110  1  0  0  0  0
 24111  1  0  0  0  0
 24112  1  0  0  0  0
 24113  1  0  0  0  0
 25114  1  0  0  0  0
 28115  1  0  0  0  0
 29116  1  0  0  0  0
 32117  1  0  0  0  0
 32118  1  0  0  0  0
 33119  1  0  0  0  0
 33120  1  0  0  0  0
 33121  1  0  0  0  0
 35122  1  0  0  0  0
 35123  1  0  0  0  0
 36124  1  0  0  0  0
 36125  1  0  0  0  0
 36126  1  0  0  0  0
 38127  1  0  0  0  0
 38128  1  0  0  0  0
 39129  1  0  0  0  0
 39130  1  0  0  0  0
 39131  1  0  0  0  0
 40132  1  0  0  0  0
 42133  1  0  0  0  0
 43134  1  0  0  0  0
 47135  1  0  0  0  0
 50136  1  0  0  0  0
 50137  1  0  0  0  0
 50138  1  0  0  0  0
 53139  1  0  0  0  0
 53140  1  0  0  0  0
 53141  1  0  0  0  0
 54142  1  0  0  0  0
 57143  1  0  0  0  0
 58144  1  0  0  0  0
 61145  1  0  0  0  0
 61146  1  0  0  0  0
 62147  1  0  0  0  0
 62148  1  0  0  0  0
 62149  1  0  0  0  0
 64150  1  0  0  0  0
 64151  1  0  0  0  0
 65152  1  0  0  0  0
 65153  1  0  0  0  0
 65154  1  0  0  0  0
 67155  1  0  0  0  0
 67156  1  0  0  0  0
 68157  1  0  0  0  0
 68158  1  0  0  0  0
 68159  1  0  0  0  0
 69160  1  0  0  0  0
 71161  1  0  0  0  0
 72162  1  0  0  0  0
 76163  1  0  0  0  0
 79164  1  0  0  0  0
 79165  1  0  0  0  0
 79166  1  0  0  0  0
 82167  1  0  0  0  0
 82168  1  0  0  0  0
 82169  1  0  0  0  0
 83170  1  0  0  0  0
 86171  1  0  0  0  0
 87172  1  0  0  0  0
 87173  1  0  0  0  0
M  END
