
  xtb     03042206353D
 energy: -232.863738499224 gnorm: 0.000320545371 xtb: 6.4.1 (unknown)
136147  0     0  0            999 V2000
    4.8906    6.5228    1.0316 C   0  0  0  0  0  0  0  0  0  0  0  0
    4.0229    5.8067    2.3204 S   0  0  0  0  0  0  0  0  0  0  0  0
    4.1698    4.2167    1.6332 C   0  0  0  0  0  0  0  0  0  0  0  0
    4.9076    4.2631    0.4553 C   0  0  0  0  0  0  0  0  0  0  0  0
    5.3037    5.5947    0.1063 C   0  0  0  0  0  0  0  0  0  0  0  0
    6.0539    5.8172   -1.0772 C   0  0  0  0  0  0  0  0  0  0  0  0
    6.4242    4.7601   -1.8525 C   0  0  0  0  0  0  0  0  0  0  0  0
    7.1346    4.8357   -3.0078 O   0  0  0  0  0  0  0  0  0  0  0  0
    7.5337    6.1052   -3.4579 C   0  0  0  0  0  0  0  0  0  0  0  0
    6.0870    3.4104   -1.4597 C   0  0  0  0  0  0  0  0  0  0  0  0
    6.5706    2.4537   -2.2963 O   0  0  0  0  0  0  0  0  0  0  0  0
    6.3608    1.1062   -1.9585 C   0  0  0  0  0  0  0  0  0  0  0  0
    5.3526    3.1761   -0.3353 C   0  0  0  0  0  0  0  0  0  0  0  0
    3.5801    3.0840    2.2689 C   0  0  0  0  0  0  0  0  0  0  0  0
    3.7272    2.8369    3.9783 S   0  0  0  0  0  0  0  0  0  0  0  0
    2.8675    2.0375    1.6881 C   0  0  0  0  0  0  0  0  0  0  0  0
    2.5459    1.8991    0.3184 C   0  0  0  0  0  0  0  0  0  0  0  0
    1.9578    0.7534   -0.1306 C   0  0  0  0  0  0  0  0  0  0  0  0
    1.7156    0.4638   -1.4352 O   0  0  0  0  0  0  0  0  0  0  0  0
    2.0622    1.4387   -2.3904 C   0  0  0  0  0  0  0  0  0  0  0  0
    1.5728   -0.2745    0.8038 C   0  0  0  0  0  0  0  0  0  0  0  0
    0.9816   -1.3524    0.2237 O   0  0  0  0  0  0  0  0  0  0  0  0
    0.5083   -2.3769    1.0617 C   0  0  0  0  0  0  0  0  0  0  0  0
    1.7981   -0.1173    2.1438 C   0  0  0  0  0  0  0  0  0  0  0  0
    2.4562    1.0388    2.6232 C   0  0  0  0  0  0  0  0  0  0  0  0
    2.8469    1.3301    3.9344 C   0  0  0  0  0  0  0  0  0  0  0  0
    2.7821    0.5913    5.1485 C   0  0  0  0  0  0  0  0  0  0  0  0
    1.8603   -0.2853    5.6296 C   0  0  0  0  0  0  0  0  0  0  0  0
    0.5283   -0.5664    5.2391 C   0  0  0  0  0  0  0  0  0  0  0  0
   -0.1815   -2.0346    5.8565 S   0  0  0  0  0  0  0  0  0  0  0  0
   -0.4460    0.1806    4.5636 C   0  0  0  0  0  0  0  0  0  0  0  0
   -0.3276    1.5055    4.0980 C   0  0  0  0  0  0  0  0  0  0  0  0
   -1.4053    2.1460    3.5544 C   0  0  0  0  0  0  0  0  0  0  0  0
   -1.3982    3.4250    3.0939 O   0  0  0  0  0  0  0  0  0  0  0  0
   -0.1857    4.1377    3.1445 C   0  0  0  0  0  0  0  0  0  0  0  0
   -2.6742    1.4777    3.4617 C   0  0  0  0  0  0  0  0  0  0  0  0
   -3.6604    2.2104    2.8773 O   0  0  0  0  0  0  0  0  0  0  0  0
   -4.9279    1.6182    2.7371 C   0  0  0  0  0  0  0  0  0  0  0  0
   -2.8229    0.2114    3.9551 C   0  0  0  0  0  0  0  0  0  0  0  0
   -1.7145   -0.4690    4.5034 C   0  0  0  0  0  0  0  0  0  0  0  0
   -1.7367   -1.7103    5.1481 C   0  0  0  0  0  0  0  0  0  0  0  0
   -2.7948   -2.6109    5.4265 C   0  0  0  0  0  0  0  0  0  0  0  0
   -3.8413   -3.0104    4.6498 C   0  0  0  0  0  0  0  0  0  0  0  0
   -4.0579   -2.8967    3.2634 C   0  0  0  0  0  0  0  0  0  0  0  0
   -2.9321   -2.1739    2.1464 S   0  0  0  0  0  0  0  0  0  0  0  0
   -3.7488   -2.8224    0.7514 C   0  0  0  0  0  0  0  0  0  0  0  0
   -4.8981   -3.5232    1.1436 C   0  0  0  0  0  0  0  0  0  0  0  0
   -5.0817   -3.5504    2.5530 C   0  0  0  0  0  0  0  0  0  0  0  0
   -6.2057   -4.2082    3.0926 C   0  0  0  0  0  0  0  0  0  0  0  0
   -7.1128   -4.8141    2.2670 C   0  0  0  0  0  0  0  0  0  0  0  0
   -8.2257   -5.4782    2.6724 O   0  0  0  0  0  0  0  0  0  0  0  0
   -8.4729   -5.5883    4.0509 C   0  0  0  0  0  0  0  0  0  0  0  0
   -6.9376   -4.7667    0.8416 C   0  0  0  0  0  0  0  0  0  0  0  0
   -7.9161   -5.3872    0.1336 O   0  0  0  0  0  0  0  0  0  0  0  0
   -7.8087   -5.4067   -1.2683 C   0  0  0  0  0  0  0  0  0  0  0  0
   -5.8562   -4.1284    0.3029 C   0  0  0  0  0  0  0  0  0  0  0  0
   -3.1958   -2.7100   -0.5454 C   0  0  0  0  0  0  0  0  0  0  0  0
   -3.3665   -4.0516   -1.6540 S   0  0  0  0  0  0  0  0  0  0  0  0
   -2.4130   -3.2776   -2.8747 C   0  0  0  0  0  0  0  0  0  0  0  0
   -2.0544   -1.9931   -2.4694 C   0  0  0  0  0  0  0  0  0  0  0  0
   -2.4447   -1.6853   -1.1333 C   0  0  0  0  0  0  0  0  0  0  0  0
   -2.1118   -0.4194   -0.5989 C   0  0  0  0  0  0  0  0  0  0  0  0
   -1.5057    0.5167   -1.3917 C   0  0  0  0  0  0  0  0  0  0  0  0
   -1.1307    1.7594   -1.0078 O   0  0  0  0  0  0  0  0  0  0  0  0
   -1.2953    2.1209    0.3398 C   0  0  0  0  0  0  0  0  0  0  0  0
   -1.2440    0.2425   -2.7813 C   0  0  0  0  0  0  0  0  0  0  0  0
   -0.7783    1.3037   -3.4920 O   0  0  0  0  0  0  0  0  0  0  0  0
   -0.5807    1.1326   -4.8726 C   0  0  0  0  0  0  0  0  0  0  0  0
   -1.4852   -0.9963   -3.2921 C   0  0  0  0  0  0  0  0  0  0  0  0
   -2.0163   -3.9345   -4.0711 C   0  0  0  0  0  0  0  0  0  0  0  0
   -3.0846   -4.9347   -5.0065 S   0  0  0  0  0  0  0  0  0  0  0  0
   -1.8857   -5.2243   -6.1950 C   0  0  0  0  0  0  0  0  0  0  0  0
   -0.6951   -4.6055   -5.8955 C   0  0  0  0  0  0  0  0  0  0  0  0
   -0.7571   -3.8792   -4.6642 C   0  0  0  0  0  0  0  0  0  0  0  0
    0.4144   -3.2837   -4.1421 C   0  0  0  0  0  0  0  0  0  0  0  0
    1.5756   -3.3346   -4.8550 C   0  0  0  0  0  0  0  0  0  0  0  0
    2.7604   -2.8072   -4.4524 O   0  0  0  0  0  0  0  0  0  0  0  0
    2.8450   -2.2955   -3.1424 C   0  0  0  0  0  0  0  0  0  0  0  0
    1.6197   -3.9934   -6.1412 C   0  0  0  0  0  0  0  0  0  0  0  0
    2.8333   -3.9314   -6.7493 O   0  0  0  0  0  0  0  0  0  0  0  0
    2.9882   -4.5738   -7.9887 C   0  0  0  0  0  0  0  0  0  0  0  0
    0.5170   -4.6254   -6.6335 C   0  0  0  0  0  0  0  0  0  0  0  0
    5.0531    7.5817    1.0270 H   0  0  0  0  0  0  0  0  0  0  0  0
    6.3204    6.8307   -1.3283 H   0  0  0  0  0  0  0  0  0  0  0  0
    8.0775    5.9321   -4.3850 H   0  0  0  0  0  0  0  0  0  0  0  0
    8.1938    6.5982   -2.7365 H   0  0  0  0  0  0  0  0  0  0  0  0
    6.6714    6.7503   -3.6575 H   0  0  0  0  0  0  0  0  0  0  0  0
    6.8117    0.8593   -0.9916 H   0  0  0  0  0  0  0  0  0  0  0  0
    6.8456    0.5275   -2.7430 H   0  0  0  0  0  0  0  0  0  0  0  0
    5.2948    0.8540   -1.9296 H   0  0  0  0  0  0  0  0  0  0  0  0
    5.1150    2.1756   -0.0142 H   0  0  0  0  0  0  0  0  0  0  0  0
    2.7977    2.7063   -0.3475 H   0  0  0  0  0  0  0  0  0  0  0  0
    1.9010    0.9781   -3.3624 H   0  0  0  0  0  0  0  0  0  0  0  0
    1.4238    2.3213   -2.3001 H   0  0  0  0  0  0  0  0  0  0  0  0
    3.1142    1.7324   -2.3054 H   0  0  0  0  0  0  0  0  0  0  0  0
    0.0090   -3.0885    0.4062 H   0  0  0  0  0  0  0  0  0  0  0  0
   -0.2105   -1.9965    1.7932 H   0  0  0  0  0  0  0  0  0  0  0  0
    1.3293   -2.8767    1.5867 H   0  0  0  0  0  0  0  0  0  0  0  0
    1.5086   -0.8728    2.8531 H   0  0  0  0  0  0  0  0  0  0  0  0
    3.6338    0.7664    5.7969 H   0  0  0  0  0  0  0  0  0  0  0  0
    2.1729   -0.8510    6.5008 H   0  0  0  0  0  0  0  0  0  0  0  0
    0.6121    2.0103    4.2214 H   0  0  0  0  0  0  0  0  0  0  0  0
   -0.3971    5.1111    2.7055 H   0  0  0  0  0  0  0  0  0  0  0  0
    0.1591    4.2750    4.1743 H   0  0  0  0  0  0  0  0  0  0  0  0
    0.5979    3.6385    2.5651 H   0  0  0  0  0  0  0  0  0  0  0  0
   -5.5379    2.3489    2.2084 H   0  0  0  0  0  0  0  0  0  0  0  0
   -5.3823    1.4037    3.7098 H   0  0  0  0  0  0  0  0  0  0  0  0
   -4.8778    0.6933    2.1519 H   0  0  0  0  0  0  0  0  0  0  0  0
   -3.7836   -0.2736    3.9760 H   0  0  0  0  0  0  0  0  0  0  0  0
   -2.7220   -3.0870    6.3978 H   0  0  0  0  0  0  0  0  0  0  0  0
   -4.5692   -3.6412    5.1445 H   0  0  0  0  0  0  0  0  0  0  0  0
   -6.3438   -4.2179    4.1610 H   0  0  0  0  0  0  0  0  0  0  0  0
   -9.3915   -6.1658    4.1401 H   0  0  0  0  0  0  0  0  0  0  0  0
   -7.6620   -6.1160    4.5643 H   0  0  0  0  0  0  0  0  0  0  0  0
   -8.6167   -4.6064    4.5147 H   0  0  0  0  0  0  0  0  0  0  0  0
   -7.8386   -4.3957   -1.6881 H   0  0  0  0  0  0  0  0  0  0  0  0
   -6.8901   -5.9051   -1.5946 H   0  0  0  0  0  0  0  0  0  0  0  0
   -8.6716   -5.9690   -1.6209 H   0  0  0  0  0  0  0  0  0  0  0  0
   -5.7261   -4.0680   -0.7636 H   0  0  0  0  0  0  0  0  0  0  0  0
   -2.3546   -0.2047    0.4290 H   0  0  0  0  0  0  0  0  0  0  0  0
   -2.3497    2.1525    0.6276 H   0  0  0  0  0  0  0  0  0  0  0  0
   -0.7567    1.4368    1.0040 H   0  0  0  0  0  0  0  0  0  0  0  0
   -0.8754    3.1205    0.4300 H   0  0  0  0  0  0  0  0  0  0  0  0
   -1.5145    0.8702   -5.3810 H   0  0  0  0  0  0  0  0  0  0  0  0
    0.1681    0.3618   -5.0866 H   0  0  0  0  0  0  0  0  0  0  0  0
   -0.2259    2.0934   -5.2426 H   0  0  0  0  0  0  0  0  0  0  0  0
   -1.2922   -1.2365   -4.3240 H   0  0  0  0  0  0  0  0  0  0  0  0
   -2.1219   -5.8342   -7.0435 H   0  0  0  0  0  0  0  0  0  0  0  0
    0.3686   -2.8077   -3.1772 H   0  0  0  0  0  0  0  0  0  0  0  0
    2.6336   -3.0702   -2.3988 H   0  0  0  0  0  0  0  0  0  0  0  0
    2.1623   -1.4578   -2.9765 H   0  0  0  0  0  0  0  0  0  0  0  0
    3.8729   -1.9550   -3.0279 H   0  0  0  0  0  0  0  0  0  0  0  0
    2.3157   -4.1559   -8.7455 H   0  0  0  0  0  0  0  0  0  0  0  0
    4.0205   -4.3967   -8.2858 H   0  0  0  0  0  0  0  0  0  0  0  0
    2.8139   -5.6519   -7.9072 H   0  0  0  0  0  0  0  0  0  0  0  0
    0.5346   -5.1558   -7.5715 H   0  0  0  0  0  0  0  0  0  0  0  0
  1  2  1  0  0  0  0
  2  3  1  0  0  0  0
  3  4  2  0  0  0  0
  4  5  1  0  0  0  0
  5  6  1  0  0  0  0
  6  7  2  0  0  0  0
  7  8  1  0  0  0  0
  8  9  1  0  0  0  0
  7 10  1  0  0  0  0
 10 11  1  0  0  0  0
 11 12  1  0  0  0  0
 10 13  2  0  0  0  0
  3 14  1  0  0  0  0
 14 15  1  0  0  0  0
 14 16  2  0  0  0  0
 16 17  1  0  0  0  0
 17 18  2  0  0  0  0
 18 19  1  0  0  0  0
 19 20  1  0  0  0  0
 18 21  1  0  0  0  0
 21 22  1  0  0  0  0
 22 23  1  0  0  0  0
 21 24  2  0  0  0  0
 24 25  1  0  0  0  0
 25 26  2  0  0  0  0
 26 27  1  0  0  0  0
 27 28  2  0  0  0  0
 28 29  1  0  0  0  0
 29 30  1  0  0  0  0
 29 31  2  0  0  0  0
 31 32  1  0  0  0  0
 32 33  2  0  0  0  0
 33 34  1  0  0  0  0
 34 35  1  0  0  0  0
 33 36  1  0  0  0  0
 36 37  1  0  0  0  0
 37 38  1  0  0  0  0
 36 39  2  0  0  0  0
 39 40  1  0  0  0  0
 40 41  2  0  0  0  0
 41 42  1  0  0  0  0
 42 43  2  0  0  0  0
 43 44  1  0  0  0  0
 44 45  1  0  0  0  0
 45 46  1  0  0  0  0
 46 47  2  0  0  0  0
 47 48  1  0  0  0  0
 48 49  1  0  0  0  0
 49 50  2  0  0  0  0
 50 51  1  0  0  0  0
 51 52  1  0  0  0  0
 50 53  1  0  0  0  0
 53 54  1  0  0  0  0
 54 55  1  0  0  0  0
 53 56  2  0  0  0  0
 46 57  1  0  0  0  0
 57 58  1  0  0  0  0
 58 59  1  0  0  0  0
 59 60  2  0  0  0  0
 60 61  1  0  0  0  0
 61 62  1  0  0  0  0
 62 63  2  0  0  0  0
 63 64  1  0  0  0  0
 64 65  1  0  0  0  0
 63 66  1  0  0  0  0
 66 67  1  0  0  0  0
 67 68  1  0  0  0  0
 66 69  2  0  0  0  0
 59 70  1  0  0  0  0
 70 71  1  0  0  0  0
 71 72  1  0  0  0  0
 72 73  2  0  0  0  0
 73 74  1  0  0  0  0
 74 75  1  0  0  0  0
 75 76  2  0  0  0  0
 76 77  1  0  0  0  0
 77 78  1  0  0  0  0
 76 79  1  0  0  0  0
 79 80  1  0  0  0  0
 80 81  1  0  0  0  0
 79 82  2  0  0  0  0
  5  1  2  0  0  0  0
 26 15  1  0  0  0  0
 41 30  1  0  0  0  0
 48 44  2  0  0  0  0
 61 57  2  0  0  0  0
 74 70  2  0  0  0  0
 13  4  1  0  0  0  0
 25 16  1  0  0  0  0
 40 31  1  0  0  0  0
 56 47  1  0  0  0  0
 69 60  1  0  0  0  0
 82 73  1  0  0  0  0
  1 83  1  0  0  0  0
  6 84  1  0  0  0  0
  9 85  1  0  0  0  0
  9 86  1  0  0  0  0
  9 87  1  0  0  0  0
 12 88  1  0  0  0  0
 12 89  1  0  0  0  0
 12 90  1  0  0  0  0
 13 91  1  0  0  0  0
 17 92  1  0  0  0  0
 20 93  1  0  0  0  0
 20 94  1  0  0  0  0
 20 95  1  0  0  0  0
 23 96  1  0  0  0  0
 23 97  1  0  0  0  0
 23 98  1  0  0  0  0
 24 99  1  0  0  0  0
 27100  1  0  0  0  0
 28101  1  0  0  0  0
 32102  1  0  0  0  0
 35103  1  0  0  0  0
 35104  1  0  0  0  0
 35105  1  0  0  0  0
 38106  1  0  0  0  0
 38107  1  0  0  0  0
 38108  1  0  0  0  0
 39109  1  0  0  0  0
 42110  1  0  0  0  0
 43111  1  0  0  0  0
 49112  1  0  0  0  0
 52113  1  0  0  0  0
 52114  1  0  0  0  0
 52115  1  0  0  0  0
 55116  1  0  0  0  0
 55117  1  0  0  0  0
 55118  1  0  0  0  0
 56119  1  0  0  0  0
 62120  1  0  0  0  0
 65121  1  0  0  0  0
 65122  1  0  0  0  0
 65123  1  0  0  0  0
 68124  1  0  0  0  0
 68125  1  0  0  0  0
 68126  1  0  0  0  0
 69127  1  0  0  0  0
 72128  1  0  0  0  0
 75129  1  0  0  0  0
 78130  1  0  0  0  0
 78131  1  0  0  0  0
 78132  1  0  0  0  0
 81133  1  0  0  0  0
 81134  1  0  0  0  0
 81135  1  0  0  0  0
 82136  1  0  0  0  0
M  END
