227

C          3.62990        1.24470        3.67700
S          2.93900       -0.29590        3.46110
C          3.77940        1.57090        5.00510
C          4.29310        2.77700        5.54130
C          4.36650        2.93510        6.89210
O          4.83080        4.03870        7.53820
C          5.25260        5.13280        6.76380
C          3.94360        1.87240        7.77000
O          4.11060        2.15170        9.08880
C          3.75610        1.17040       10.03020
C          3.43430        0.70880        7.26490
C          3.33190        0.52320        5.86860
C          2.82470       -0.58390        5.16880
C          2.32700       -1.75650        5.79610
C          1.59360       -2.82680        5.39920
C          0.99250       -3.22780        4.16870
C         -0.01550       -4.15760        4.09890
C         -0.52310       -4.38180        2.79750
C         -1.64680       -5.14130        2.41140
C         -2.51470       -5.80110        3.39290
C         -3.01160       -5.11200        4.49580
C         -3.85730       -5.72490        5.39950
C         -4.23860       -7.05120        5.23220
S         -5.28860       -7.95170        6.32540
C         -6.19550       -6.65160        7.23360
C         -7.14060       -5.87610        6.33630
C         -3.72550       -7.73300        4.12770
F         -4.05960       -9.02560        3.94260
C         -2.88740       -7.13210        3.21600
C         -1.94210       -5.17260        1.05680
C         -1.15240       -4.49930        0.09620
C         -0.10400       -3.64960        0.48400
C          0.46910       -2.71860       -0.49750
C          1.83550       -2.55390       -0.70410
C          2.29220       -1.71780       -1.70010
C          1.42470       -1.00580       -2.53360
S          2.17390       -0.12250       -3.86170
C          0.84660        0.83600       -4.69070
C          1.48020        1.70330       -5.76020
C          0.06560       -1.11560       -2.25650
C         -0.40360       -1.95030       -1.26440
F         -0.86710       -0.41690       -2.94800
C          0.20210       -3.63540        1.83270
S          1.41540       -2.63500        2.57560
C         -1.67310       -4.63190       -1.20860
C         -2.90510       -5.21820       -1.25970
S         -3.39270       -5.82880        0.31240
C         -3.78720       -4.91690       -2.35110
C         -5.04420       -4.39180       -2.25180
C         -5.31780       -3.40790       -3.24180
C         -6.34490       -2.44700       -3.21780
C         -7.50650       -2.52790       -2.31870
C         -8.79190       -2.46980       -2.84640
C         -9.90510       -2.51940       -2.02930
C         -9.76920       -2.62570       -0.65040
S        -11.09720       -2.67830        0.50840
C        -12.55940       -3.08520       -0.50680
C        -12.51370       -4.50410       -1.04090
C         -8.47320       -2.65290       -0.13330
F         -8.30220       -2.72180        1.20330
C         -7.35600       -2.60500       -0.93670
C         -6.13700       -1.30760       -3.97610
C         -5.00750       -1.12300       -4.80860
C         -4.08290       -2.17040       -4.99650
C         -2.94000       -1.96650       -5.89410
C         -1.62750       -2.23370       -5.51480
C         -0.56450       -1.97210       -6.35780
C         -0.77120       -1.42440       -7.61960
S          0.49190       -0.97260       -8.75840
C          1.99680       -1.77580       -8.11070
C          1.98050       -3.27780       -8.30880
C         -2.09250       -1.16690       -7.99220
C         -3.15860       -1.42550       -7.16240
F         -2.33900       -0.63830       -9.21000
C         -4.24410       -3.26360       -4.16160
S         -3.02740       -4.48490       -3.88010
C         -4.78110        0.24170       -5.09500
C         -5.65840        1.09330       -4.47600
S         -6.99110        0.20440       -3.72820
C         -5.36420        2.42770       -4.10110
S         -3.67550        2.85540       -4.05000
C         -6.12630        3.37570       -3.41280
C         -7.52900        3.39820       -3.27890
C         -8.12650        4.38350       -2.54210
O         -9.45990        4.51290       -2.33980
C        -10.31240        3.54090       -2.89410
C         -7.32940        5.40160       -1.90970
O         -8.05020        6.32860       -1.23000
C         -7.36200        7.36780       -0.58190
C         -5.96510        5.38400       -2.02370
C         -5.33280        4.37440       -2.77510
C         -3.95130        4.17710       -2.94600
C         -2.88770        4.69250       -2.18230
C         -1.60720        4.23490       -2.33940
C         -0.50420        4.25500       -1.47090
S          0.85820        3.30230       -1.99700
C         -0.29020        4.69910       -0.15090
C         -1.11720        5.52950        0.63000
C         -0.78310        5.81870        1.92610
O         -1.50520        6.60540        2.76550
C         -2.70980        7.15380        2.29520
C          0.41370        5.27680        2.50630
O          0.61650        5.62100        3.80320
C          1.75750        5.12070        4.45330
C          1.24170        4.48810        1.75560
C          0.91360        4.18980        0.41790
C          1.65880        3.38820       -0.46180
C          2.83650        2.65310       -0.22010
C          3.46490        1.91520       -1.17020
C          4.57970        1.06540       -0.98110
C          5.19030        0.32770       -1.96010
C          6.24580       -0.48980       -1.49490
C          7.07080       -1.34040       -2.24900
C          6.82440       -1.55780       -3.67980
C          7.82820       -1.40250       -4.62920
C          7.57790       -1.59610       -5.97550
C          6.31260       -1.96520       -6.41740
S          5.84360       -2.23030       -8.09340
C          7.37630       -1.88190       -9.03010
C          7.08760       -2.04110      -10.51090
C          5.32270       -2.14260       -5.44980
F          4.08980       -2.53030       -5.83890
C          5.55580       -1.94240       -4.11110
C          8.09100       -1.98320       -1.56490
C          8.29330       -1.84810       -0.17060
C          7.45670       -1.01090        0.58730
C          7.65230       -0.86910        2.03690
C          8.90980       -0.56300        2.55450
C          9.11180       -0.49040        3.91730
C          8.07000       -0.72460        4.80750
S          8.42010       -0.75340        6.54810
C          7.24500        0.49100        7.19550
C          7.62830        1.89030        6.75850
C          6.81700       -1.01440        4.27940
C          6.59500       -1.07380        2.91840
F          5.78270       -1.27650        5.10520
C          6.45090       -0.34950       -0.09850
S          5.31430        0.78040        0.59110
C          9.35510       -2.68550        0.28580
C          9.93180       -3.39340       -0.70590
S          9.23070       -3.10640       -2.26260
H          3.91150        1.82420        2.82170
H          4.61780        3.54420        4.85750
H          5.57320        5.89080        7.47640
H          4.43540        5.53000        6.15250
H          6.09370        4.86690        6.11450
H          2.68680        0.93800        9.98660
H          3.99190        1.59790       11.00320
H          4.33330        0.25050        9.88840
H          3.11250       -0.07770        7.92680
H          2.56260       -1.76310        6.85390
H          1.33850       -3.51800        6.19590
H         -0.39780       -4.65810        4.97080
H         -2.75230       -4.07330        4.63520
H         -4.21780       -5.15720        6.24220
H         -6.74740       -7.21110        7.98900
H         -5.47650       -6.00740        7.73840
H         -7.85130       -6.55210        5.86700
H         -6.59690       -5.35360        5.55210
H         -7.69190       -5.14400        6.92340
H         -2.51970       -7.70790        2.38130
H          2.54140       -3.10470       -0.10200
H          3.35300       -1.60510       -1.85870
H          0.35460        1.44480       -3.93530
H          0.13640        0.13370       -5.12490
H          0.70390        2.25910       -6.28060
H          2.01450        1.09450       -6.48620
H          2.17940        2.40940       -5.31720
H         -1.46930       -1.98770       -1.09600
H         -1.18860       -4.21840       -2.07330
H         -5.68510       -4.58370       -1.41060
H         -8.92280       -2.39070       -3.91520
H        -10.88300       -2.46600       -2.47930
H        -12.65420       -2.34350       -1.29890
H        -13.39100       -2.95860        0.18650
H        -11.65430       -4.64950       -1.69200
H        -12.44320       -5.21180       -0.21830
H        -13.41890       -4.71630       -1.60670
H         -6.38000       -2.59840       -0.47740
H         -1.41990       -2.61800       -4.53010
H          0.43460       -2.19340       -6.01700
H          2.80200       -1.32220       -8.68800
H          2.12540       -1.50110       -7.06610
H          1.88780       -3.51920       -9.36510
H          1.14990       -3.73480       -7.77530
H          2.91040       -3.69620       -7.93180
H         -4.15780       -1.21280       -7.50990
H         -3.90650        0.59620       -5.61100
H         -8.10640        2.63510       -3.77350
H        -11.31670        3.81710       -2.57780
H        -10.26280        3.54120       -3.98790
H        -10.07370        2.53930       -2.52190
H         -6.79270        7.97780       -1.29150
H         -8.12950        7.98190       -0.11390
H         -6.68610        6.98340        0.18970
H         -5.35780        6.14430       -1.56040
H         -3.15670        5.36210       -1.38090
H         -1.43770        3.63630       -3.22910
H         -2.00780        5.94090        0.19010
H         -3.42030        6.37200        2.00470
H         -2.54250        7.82710        1.44730
H         -3.12010        7.72130        3.12880
H          2.67650        5.47930        3.97600
H          1.76600        4.02580        4.47730
H          1.70520        5.50120        5.47220
H          2.14730        4.07970        2.17180
H          3.22810        2.66620        0.78760
H          3.07930        1.93430       -2.18150
H          4.89110        0.38100       -2.99100
H          8.81750       -1.10600       -4.31620
H          8.38170       -1.45450       -6.67910
H          7.68470       -0.86160       -8.80110
H          8.13840       -2.58940       -8.70280
H          6.75140       -3.05260      -10.72680
H          7.98890       -1.84180      -11.08650
H          6.31190       -1.34640      -10.82460
H          4.75130       -2.10940       -3.41410
H          9.72990       -0.36850        1.87990
H         10.08820       -0.26290        4.31600
H          6.23880        0.22610        6.87770
H          7.31980        0.38450        8.27730
H          8.67040        2.09000        6.99980
H          7.48950        2.00750        5.68460
H          7.00700        2.61560        7.27750
H          5.60820       -1.32300        2.56000
H          9.64990       -2.75830        1.31690
H         10.74500       -4.08880       -0.63260
