202

C         -0.70780       -8.20930        5.39600
S         -0.99260       -7.01740        4.21280
C          0.63380       -8.34310        5.67590
C          1.22860       -9.24320        6.58900
C          2.58580       -9.29530        6.73870
O          3.21460      -10.13910        7.61370
C          2.42970      -10.99560        8.40450
C          3.41970       -8.43830        5.93800
O          4.77920       -8.40390        5.94200
C          5.56340       -9.26890        6.73040
C          2.84670       -7.54830        5.06150
C          1.45310       -7.44750        4.91320
C          0.69850       -6.62630        4.06750
C          1.04330       -5.58990        3.16220
C          2.21270       -4.91160        3.09690
C          2.49590       -3.90550        2.12840
C          1.76170       -3.49090        1.05090
C          2.39600       -2.49270        0.27590
C          1.91970       -1.86300       -0.88520
C          0.57990       -2.13560       -1.42760
C         -0.35130       -1.10520       -1.54300
C         -1.62200       -1.35220       -2.00670
C         -2.01510       -2.62690       -2.41910
S         -3.67650       -2.73610       -3.01750
C         -4.13510       -4.50470       -3.09010
C         -4.23030       -5.15190       -1.72300
C         -1.06130       -3.63510       -2.34360
F         -1.32820       -4.89470       -2.76520
C          0.20380       -3.40840       -1.83370
C          2.75790       -0.93870       -1.48060
C          4.02940       -0.58080       -0.96710
C          4.47260       -1.15300        0.23790
C          5.69750       -0.69190        0.90240
C          6.92340       -0.61810        0.25050
C          8.04660       -0.12960        0.89180
C          7.97880        0.31440        2.20660
S          9.32240        0.95070        3.15590
C         10.62710        1.28070        1.92410
C         10.29230        2.47260        1.04760
C          6.74560        0.22080        2.85210
C          5.62400       -0.27430        2.23000
F          6.64340        0.64680        4.12970
C          3.65160       -2.11120        0.81320
S          4.01690       -3.03440        2.24550
C          4.67480        0.38950       -1.77590
C          3.96280        0.74720       -2.88500
S          2.40970       -0.08510       -2.95620
C          4.22080        1.67100       -3.93460
S          3.15730        1.57830       -5.30460
C          5.10230        2.74490       -4.06920
C          6.13780        3.16050       -3.20190
C          6.87950        4.26940       -3.50000
O          7.91410        4.74570       -2.76730
C          8.32580        4.01580       -1.63760
C          6.60250        5.04730       -4.68330
O          7.41640        6.12080       -4.84600
C          7.22970        6.92810       -5.98090
C          5.59360        4.68050       -5.52330
C          4.83630        3.51790       -5.24710
C          3.75460        3.05100       -5.98060
C          3.04690        3.68520       -7.06650
C          1.71340        3.86990       -7.06610
C          0.85170        3.59440       -5.94460
C          1.15780        3.62720       -4.61640
C          0.09820        3.25460       -3.75410
C          0.12180        3.07710       -2.35350
C          1.36290        3.19380       -1.57590
C          2.31650        4.18720       -1.80300
C          3.52790        4.17770       -1.14010
C          3.82240        3.20700       -0.19000
S          5.43230        3.16560        0.55980
C          5.03510        3.24840        2.34260
C          4.33740        4.54520        2.69740
C          2.83830        2.26770        0.09040
F          3.03400        1.33270        1.04380
C          1.64080        2.24820       -0.58920
C         -1.07890        2.69340       -1.76580
C         -2.25740        2.43090       -2.50710
C         -2.25260        2.52230       -3.90800
C         -3.43280        2.14570       -4.69470
C         -4.04520        0.90720       -4.50460
C         -5.13640        0.53820       -5.26040
C         -5.67450        1.39350       -6.21930
S         -7.10770        0.83620       -7.09610
C         -6.79860        1.37230       -8.81930
C         -5.49750        0.81640       -9.36190
C         -5.07210        2.63750       -6.37840
C         -3.95970        3.00770       -5.64990
F         -5.56610        3.53700       -7.25810
C         -1.07810        2.96360       -4.49270
S         -0.82420        3.15870       -6.20700
C         -3.37030        2.15180       -1.67850
C         -3.08950        2.18870       -0.34140
S         -1.39420        2.54790       -0.05140
C         -3.98910        2.04210        0.74740
S         -3.64530        2.78500        2.27470
C         -5.24210        1.42590        0.77240
C         -5.81590        0.59070       -0.21180
C         -7.06730        0.07780       -0.02420
O         -7.70160       -0.77540       -0.86780
C         -7.04060       -1.15580       -2.05080
C         -7.84330        0.46050        1.12810
O         -9.11910       -0.00660        1.11880
C         -9.99450        0.43240        2.12950
C         -7.28210        1.21980        2.11310
C         -5.93310        1.63220        2.00320
C         -5.16340        2.29330        2.96410
C         -5.37930        2.53200        4.35390
C         -6.07530        1.78110        5.24690
C         -6.67410        0.50740        5.03570
S         -8.14560        0.10770        5.87410
C         -6.35150       -0.50670        4.13190
C         -5.17100       -0.65950        3.38600
C         -5.07570       -1.59750        2.39080
O         -3.88180       -1.59640        1.74170
C         -3.56100       -2.55860        0.76730
C         -6.20400       -2.44570        2.11610
O         -6.14850       -3.23430        0.99830
C         -7.34520       -3.83960        0.56480
C         -7.27950       -2.43630        2.96420
C         -7.37180       -1.49640        4.01160
C         -8.41460       -1.31990        4.92210
C         -9.58080       -2.12780        5.09280
C        -10.55690       -1.89620        5.97260
H         -1.52950       -8.74710        5.82490
H          0.57570       -9.88690        7.15530
H          1.85050      -11.69240        7.79010
H          1.75250      -10.43400        9.05570
H          3.13630      -11.55540        9.01540
H          5.38400      -10.31820        6.48550
H          5.39500       -9.11290        7.79780
H          6.59370       -9.01120        6.48470
H          3.51620       -6.94840        4.47030
H          0.24790       -5.30660        2.48430
H          2.99510       -5.10170        3.81430
H          0.79500       -3.89010        0.80400
H         -0.08450       -0.10480       -1.24600
H         -2.34190       -0.54980       -2.05260
H         -3.43130       -5.01980       -3.73940
H         -5.11040       -4.47810       -3.57850
H         -4.90310       -4.59410       -1.07680
H         -3.25600       -5.19860       -1.24370
H         -4.60550       -6.16770       -1.83050
H          0.89770       -4.23400       -1.78990
H          7.00970       -0.97120       -0.76640
H          8.98110       -0.10330        0.35460
H         11.51040        1.47850        2.53140
H         10.80050        0.37310        1.34730
H         11.08580        2.63600        0.32100
H         10.18740        3.36700        1.65680
H          9.35720        2.31300        0.51540
H          4.69080       -0.30580        2.76940
H          5.63780        0.79460       -1.53140
H          6.32630        2.60020       -2.30370
H          8.62940        3.00040       -1.91390
H          9.18240        4.55480       -1.23680
H          7.53810        3.96410       -0.88040
H          6.23410        7.38410       -5.99100
H          7.98410        7.71010       -5.91400
H          7.37620        6.36030       -6.90590
H          5.35750        5.24440       -6.41040
H          3.63070        4.02670       -7.91160
H          1.22970        4.26190       -7.95040
H          2.13080        3.91230       -4.26640
H          2.10120        4.99520       -2.48410
H          4.26870        4.93270       -1.35360
H          6.00500        3.17070        2.83280
H          4.43600        2.37870        2.60090
H          4.94690        5.39930        2.40890
H          4.16660        4.58420        3.77120
H          3.37580        4.61830        2.19080
H          0.94490        1.46270       -0.34630
H         -3.63930        0.20910       -3.78910
H         -5.58860       -0.43200       -5.12310
H         -7.65510        0.97240       -9.36220
H         -6.82750        2.45880       -8.86230
H         -5.48120       -0.26830       -9.27870
H         -5.39210        1.08930      -10.41000
H         -4.64550        1.21720       -8.81550
H         -3.53290        3.98450       -5.81560
H         -4.36180        2.02300       -2.07020
H         -5.23670        0.33450       -1.08180
H         -7.72740       -1.82250       -2.56950
H         -6.82730       -0.29180       -2.68820
H         -6.10610       -1.68530       -1.84000
H        -10.07450        1.52400        2.13980
H        -10.96390        0.00050        1.88690
H         -9.68120        0.08270        3.11710
H         -7.84450        1.51940        2.98030
H         -4.88180        3.41340        4.74140
H         -6.23160        2.20540        6.23140
H         -4.31580       -0.03430        3.57790
H         -3.70780       -3.57640        1.13580
H         -2.50460       -2.39870        0.54750
H         -4.14310       -2.41120       -0.14480
H         -7.12830       -4.25580       -0.41820
H         -8.14820       -3.10210        0.47720
H         -7.65280       -4.65010        1.23320
H         -8.09800       -3.12010        2.81470
H         -9.64060       -2.98890        4.44020
H        -10.52310       -1.04950        6.63780
H        -11.40820       -2.54740        6.05550
