152

C          6.75700        0.37770        1.15740
S          5.43710        0.52610        2.23800
C          4.46650       -0.55630        1.26790
C          5.16430       -0.98030        0.16320
C          6.47950       -0.44490        0.11120
C          7.42990       -0.66680       -1.03210
O          7.58570        0.59800       -1.66470
C          8.69970        0.69910       -2.51010
C          6.88430       -1.74780       -1.96960
C          5.40130       -1.51480       -2.23370
C          4.61360       -1.82160       -0.95430
O          4.74440       -3.20170       -0.61210
C          3.85210       -4.04290       -1.29270
C          3.11220       -0.80580        1.68210
S          2.07650        0.53450        2.04020
C          2.45690       -2.00330        1.93980
C          3.02920       -3.29580        1.89860
C          2.26380       -4.38670        2.18860
O          2.70410       -5.67290        2.21710
C          4.09000       -5.89370        2.12260
C          0.86650       -4.22660        2.49890
O          0.19340       -5.39430        2.67600
C         -1.18030       -5.32550        2.97020
C          0.31720       -2.97920        2.60670
C          1.10420       -1.82990        2.37500
C          0.74510       -0.48450        2.51160
C         -0.40830        0.20330        2.96080
C         -1.57310       -0.28360        3.45850
C         -2.67420        0.55260        3.77670
S         -4.27960       -0.08020        3.53310
C         -2.73750        1.91630        4.07230
C         -1.69260        2.76470        4.50150
C         -1.93580        4.08970        4.72810
O         -1.01860        4.99450        5.15890
C          0.29560        4.55140        5.38790
C         -3.25260        4.63970        4.52070
O         -3.34100        5.97330        4.76360
C         -4.59020        6.59470        4.60300
C         -4.28330        3.83250        4.13720
C         -4.05700        2.45010        3.93730
C         -4.98880        1.50150        3.54120
C         -6.31850        1.72400        3.01830
C         -6.69460        1.36360        1.77840
C         -5.85190        0.79470        0.76080
S         -4.12580        1.02580        0.74230
C         -3.94860        0.03060       -0.65970
C         -5.16930       -0.37670       -1.13670
C         -6.24900        0.05710       -0.33420
C         -7.68170       -0.29570       -0.62820
O         -8.23830       -0.85170        0.55270
C         -9.63940       -0.92860        0.56440
C         -7.77720       -1.26520       -1.81770
C         -6.79190       -0.89680       -2.91870
C         -5.35590       -1.12320       -2.42880
O         -4.39840       -0.65360       -3.36210
C         -3.87630       -1.62790       -4.22840
C         -2.63980       -0.36820       -1.11800
S         -1.48470        0.77310       -1.72080
C         -0.32590       -0.48690       -2.04110
C         -0.82240       -1.70990       -1.65920
C         -2.12850       -1.64040       -1.12140
C         -2.83320       -2.82430       -0.51530
O         -2.80130       -2.68170        0.90520
C         -3.99890       -3.03770        1.54640
C         -2.15910       -4.13080       -0.94790
C         -0.64850       -4.01300       -0.78810
C         -0.10720       -3.01950       -1.81970
O         -0.33180       -3.43280       -3.16290
C          0.45890       -4.50780       -3.59800
C          0.92200       -0.20000       -2.69320
S          1.53410       -1.32720       -3.88320
C          2.90170       -0.33390       -4.19400
C          2.89990        0.78490       -3.42660
C          1.76540        0.87590       -2.57970
C          1.73660        2.02940       -1.61730
O          1.55630        3.27950       -2.25890
C          0.28280        3.46570       -2.81860
C          3.12270        2.04750       -0.95730
C          4.24640        2.32180       -1.96440
C          3.92260        1.87660       -3.41310
O          5.06730        1.42450       -4.11140
C          5.99450        2.43590       -4.40650
H          7.66210        0.91950        1.34490
H          8.41350       -0.98180       -0.63870
H          8.78330        1.74960       -2.78320
H          9.61720        0.38420       -1.99570
H          8.58490        0.10340       -3.42240
H          7.44320       -1.74010       -2.90580
H          7.01690       -2.72200       -1.49470
H          5.23650       -0.48290       -2.53960
H          5.05730       -2.16530       -3.03930
H          3.54370       -1.58980       -1.08820
H          2.82300       -3.88670       -0.94340
H          4.15320       -5.06650       -1.07280
H          3.88810       -3.89170       -2.37700
H          4.06940       -3.38040        1.63410
H          4.62790       -5.38310        2.92830
H          4.49250       -5.56030        1.16200
H          4.22380       -6.96990        2.22040
H         -1.52490       -6.35780        3.00850
H         -1.72880       -4.78090        2.19630
H         -1.35820       -4.84890        3.94040
H         -0.72350       -2.85790        2.84250
H         -0.33040        1.27790        2.85780
H         -1.76070       -1.34390        3.50290
H         -0.72060        2.33880        4.68370
H          0.75020        4.14830        4.47690
H          0.33270        3.79180        6.17610
H          0.85050        5.43120        5.70930
H         -4.42940        7.64560        4.83800
H         -5.33690        6.18010        5.28900
H         -4.95520        6.50380        3.57440
H         -5.28190        4.21290        3.99900
H         -7.02660        2.23850        3.65640
H         -7.72380        1.51480        1.48360
H         -8.22920        0.63390       -0.87790
H         -9.91750       -1.22640        1.57390
H        -10.01930       -1.67110       -0.14620
H        -10.09370        0.04390        0.33420
H         -7.55920       -2.27180       -1.45060
H         -8.79430       -1.25990       -2.21380
H         -6.90190        0.15430       -3.19200
H         -6.97600       -1.50200       -3.80820
H         -5.20860       -2.20470       -2.26770
H         -3.20590       -1.10130       -4.90460
H         -4.66270       -2.12140       -4.81120
H         -3.30230       -2.38470       -3.67970
H         -3.88330       -2.83080       -0.83370
H         -3.83730       -2.88980        2.61270
H         -4.26350       -4.08720        1.36420
H         -4.83180       -2.40100        1.22570
H         -2.54720       -4.95250       -0.34230
H         -2.39670       -4.32750       -1.99560
H         -0.41100       -3.63330        0.20650
H         -0.16860       -4.98520       -0.90960
H          0.97600       -2.87790       -1.66450
H          0.18520       -5.44840       -3.10760
H          0.28000       -4.59710       -4.66810
H          1.52350       -4.31290       -3.42480
H          3.63520       -0.63290       -4.91390
H          0.95080        1.88390       -0.85850
H          0.05420        2.70040       -3.56930
H         -0.49720        3.44270       -2.04860
H          0.29870        4.44570       -3.29230
H          3.27210        1.07520       -0.48780
H          3.13890        2.80870       -0.17820
H          5.14950        1.79600       -1.64520
H          4.46100        3.39030       -1.97580
H          3.49160        2.74070       -3.94940
H          5.51740        3.26360       -4.94700
H          6.75250        1.97960       -5.04110
H          6.46940        2.82810       -3.50170
