104

C          3.54220       -0.92980        2.35790
S          2.99110        0.23410        3.47890
C          3.71840       -0.38720        1.10510
C          4.07500       -1.06600       -0.08690
C          4.20780       -0.36330       -1.24660
O          4.47100       -0.89140       -2.46770
C          4.47980       -2.29310       -2.58830
C          4.11100        1.07870       -1.23860
O          4.42970        1.65430       -2.42490
C          4.52500        3.05710       -2.48380
C          3.72790        1.74350       -0.11010
C          3.42070        1.01430        1.06260
C          2.90420        1.48830        2.26710
C          2.25570        2.70240        2.63270
C          1.55120        3.56130        1.85460
C          1.22600        3.44340        0.47090
S          1.24220        4.89270       -0.48700
C          0.97990        2.32930       -0.33740
C          0.75400        0.99290        0.07090
C          0.72210       -0.00210       -0.86460
O          0.51340       -1.31820       -0.61980
C          0.23150       -1.71060        0.70050
C          0.96840        0.30260       -2.25240
O          1.10710       -0.78220       -3.04620
C          1.53000       -0.57910       -4.37420
C          1.03060        1.60400       -2.67070
C          0.94520        2.64730       -1.72710
C          0.99770        4.02440       -1.98160
C          0.95750        4.76280       -3.18370
C          0.33330        4.46000       -4.35910
C         -0.65080        3.47930       -4.60570
O         -1.19130        2.70960       -3.64120
C         -2.19130        1.96960       -4.19700
C         -2.29650        2.26560       -5.54070
C         -1.31230        3.23160       -5.82740
C         -1.05740        3.84430       -7.10930
O         -0.19620        4.65900       -7.35480
C         -2.95700        1.05970       -3.42380
C         -2.70500        0.70580       -2.13990
C         -3.55350       -0.17550       -1.41270
O         -3.05240       -0.92990       -0.41730
C         -4.04590       -1.73970        0.04940
C         -5.21080       -1.47890       -0.64120
C         -4.91530       -0.46660       -1.57800
C         -5.89570        0.20210       -2.41400
O         -6.99940       -0.22010       -2.65720
C         -3.75400       -2.70210        1.05460
C         -4.67420       -3.57460        1.53320
C         -4.39200       -4.60220        2.46990
O         -3.14890       -4.76900        2.95040
C         -3.14740       -5.84750        3.77510
C         -4.41330       -6.39220        3.82300
C         -5.23340       -5.59320        2.99690
C         -6.65030       -5.78720        2.75690
O         -7.31770       -6.66830        3.23970
C         -1.95900       -6.32620        4.40280
C         -0.76790       -5.70170        4.55400
C         -0.45040       -4.33420        4.30570
O         -1.40180       -3.40210        4.14720
C         -0.80620       -2.19050        4.01210
C          0.55590       -2.33780        4.07620
C          0.80740       -3.71810        4.26340
C          2.11200       -4.33940        4.32120
O          3.15740       -3.77130        4.10660
C         -1.64340       -1.03590        3.81650
C         -1.18660        0.20360        3.65620
H          3.69090       -1.94170        2.68250
H          4.21650       -2.13310       -0.04310
H          5.29380       -2.74190       -2.00980
H          4.63690       -2.49740       -3.64610
H          3.52420       -2.72080       -2.26900
H          5.25920        3.43610       -1.76610
H          4.85450        3.28720       -3.49550
H          3.55890        3.53490       -2.30140
H          3.66770        2.81790       -0.08380
H          2.31120        2.93870        3.68890
H          1.24770        4.49630        2.31010
H          0.61890        0.78570        1.11830
H          0.04640       -2.78270        0.65530
H          1.07850       -1.51900        1.36520
H         -0.65610       -1.19930        1.08580
H          1.64940       -1.57390       -4.79980
H          2.48730       -0.05010       -4.40320
H          0.78450       -0.02610       -4.95510
H          1.19970        1.85220       -3.70450
H          1.46910        5.71780       -3.14780
H          0.51970        5.09720       -5.21190
H         -2.99390        1.83510       -6.23060
H         -1.74830        3.49390       -7.90110
H         -3.78280        0.60870       -3.95480
H         -1.80720        1.05000       -1.64690
H         -6.17160       -1.92860       -0.50200
H         -5.56350        1.18690       -2.79760
H         -2.73470       -2.73980        1.41050
H         -5.69230       -3.53120        1.17960
H         -4.73030       -7.24800        4.38250
H         -7.10170       -5.03900        2.07630
H         -2.04890       -7.33810        4.77260
H          0.05280       -6.27830        4.95590
H          1.29810       -1.57090        4.02690
H          2.09650       -5.41930        4.56490
H         -2.70460       -1.24530        3.79960
H         -0.13410        0.42900        3.67790
H         -1.85560        1.03190        3.50620
