
  xtb     03032220573D
 energy: -202.728162055031 gnorm: 0.000242961396 xtb: 6.4.1 (unknown)
124131  0     0  0            999 V2000
   10.4003   -2.1582   -1.9160 C   0  0  0  0  0  0  0  0  0  0  0  0
    9.0559   -2.1493   -1.5943 C   0  0  0  0  0  0  0  0  0  0  0  0
    8.4966   -2.8700   -0.5790 O   0  0  0  0  0  0  0  0  0  0  0  0
    9.3258   -3.6685    0.2243 C   0  0  0  0  0  0  0  0  0  0  0  0
    8.1638   -1.3617   -2.3580 C   0  0  0  0  0  0  0  0  0  0  0  0
    8.6823   -0.5796   -3.3830 C   0  0  0  0  0  0  0  0  0  0  0  0
   10.0370   -0.5948   -3.7029 C   0  0  0  0  0  0  0  0  0  0  0  0
   10.8957   -1.3966   -2.9671 C   0  0  0  0  0  0  0  0  0  0  0  0
   10.4074    0.2120   -4.7434 O   0  0  0  0  0  0  0  0  0  0  0  0
   11.7662    0.2556   -5.0998 C   0  0  0  0  0  0  0  0  0  0  0  0
    6.7494   -1.3511   -2.0629 C   0  0  0  0  0  0  0  0  0  0  0  0
    6.1875   -1.4706   -0.4329 S   0  0  0  0  0  0  0  0  0  0  0  0
    5.6801   -1.2041   -2.9459 C   0  0  0  0  0  0  0  0  0  0  0  0
    5.7187   -1.1867   -4.3608 C   0  0  0  0  0  0  0  0  0  0  0  0
    4.5644   -1.0432   -5.0756 C   0  0  0  0  0  0  0  0  0  0  0  0
    4.4789   -1.0141   -6.4329 O   0  0  0  0  0  0  0  0  0  0  0  0
    5.6654   -1.1386   -7.1746 C   0  0  0  0  0  0  0  0  0  0  0  0
    3.2993   -0.9148   -4.4022 C   0  0  0  0  0  0  0  0  0  0  0  0
    2.2354   -0.7552   -5.2330 O   0  0  0  0  0  0  0  0  0  0  0  0
    0.9570   -0.6457   -4.6600 C   0  0  0  0  0  0  0  0  0  0  0  0
    3.2378   -0.9788   -3.0383 C   0  0  0  0  0  0  0  0  0  0  0  0
    4.4184   -1.1386   -2.2843 C   0  0  0  0  0  0  0  0  0  0  0  0
    4.5247   -1.2525   -0.8910 C   0  0  0  0  0  0  0  0  0  0  0  0
    3.4796   -1.2200    0.0497 C   0  0  0  0  0  0  0  0  0  0  0  0
    3.6240   -1.3269    1.3997 C   0  0  0  0  0  0  0  0  0  0  0  0
    2.5532   -1.2936    2.3117 C   0  0  0  0  0  0  0  0  0  0  0  0
    0.9069   -1.1360    1.7725 S   0  0  0  0  0  0  0  0  0  0  0  0
    2.5976   -1.3717    3.7117 C   0  0  0  0  0  0  0  0  0  0  0  0
    3.7458   -1.5024    4.5197 C   0  0  0  0  0  0  0  0  0  0  0  0
    3.6211   -1.5680    5.8794 C   0  0  0  0  0  0  0  0  0  0  0  0
    4.6489   -1.6911    6.7617 O   0  0  0  0  0  0  0  0  0  0  0  0
    5.9568   -1.7441    6.2525 C   0  0  0  0  0  0  0  0  0  0  0  0
    2.3216   -1.5086    6.4925 C   0  0  0  0  0  0  0  0  0  0  0  0
    2.3428   -1.5975    7.8497 O   0  0  0  0  0  0  0  0  0  0  0  0
    1.1191   -1.5678    8.5374 C   0  0  0  0  0  0  0  0  0  0  0  0
    1.2000   -1.3744    5.7235 C   0  0  0  0  0  0  0  0  0  0  0  0
    1.3108   -1.2992    4.3177 C   0  0  0  0  0  0  0  0  0  0  0  0
    0.2710   -1.1647    3.3897 C   0  0  0  0  0  0  0  0  0  0  0  0
   -1.1181   -1.0370    3.6320 C   0  0  0  0  0  0  0  0  0  0  0  0
   -2.0467   -0.9723    2.6517 C   0  0  0  0  0  0  0  0  0  0  0  0
   -3.4686   -0.7947    2.7953 C   0  0  0  0  0  0  0  0  0  0  0  0
   -4.2643   -0.8023    1.6347 C   0  0  0  0  0  0  0  0  0  0  0  0
   -3.6749   -1.0375    0.4066 O   0  0  0  0  0  0  0  0  0  0  0  0
   -3.4745    0.1204   -0.3816 C   0  0  0  0  0  0  0  0  0  0  0  0
   -5.6440   -0.6211    1.7293 C   0  0  0  0  0  0  0  0  0  0  0  0
   -6.2297   -0.4239    2.9668 C   0  0  0  0  0  0  0  0  0  0  0  0
   -5.4546   -0.4099    4.1269 C   0  0  0  0  0  0  0  0  0  0  0  0
   -4.0880   -0.6000    4.0361 C   0  0  0  0  0  0  0  0  0  0  0  0
   -6.1405   -0.2073    5.2914 O   0  0  0  0  0  0  0  0  0  0  0  0
   -5.4201   -0.1956    6.4979 C   0  0  0  0  0  0  0  0  0  0  0  0
   -6.4844   -0.6641    0.5091 C   0  0  0  0  0  0  0  0  0  0  0  0
   -6.9089    0.5278   -0.0867 C   0  0  0  0  0  0  0  0  0  0  0  0
   -6.5005    1.7226    0.4818 O   0  0  0  0  0  0  0  0  0  0  0  0
   -7.5285    2.5039    1.0466 C   0  0  0  0  0  0  0  0  0  0  0  0
   -7.6697    0.4778   -1.2541 C   0  0  0  0  0  0  0  0  0  0  0  0
   -8.0451   -0.7537   -1.7828 C   0  0  0  0  0  0  0  0  0  0  0  0
   -7.6330   -1.9367   -1.1868 C   0  0  0  0  0  0  0  0  0  0  0  0
   -6.8328   -1.8799   -0.0468 C   0  0  0  0  0  0  0  0  0  0  0  0
   -7.9460   -3.1861   -1.6340 O   0  0  0  0  0  0  0  0  0  0  0  0
   -8.7344   -3.3044   -2.7921 C   0  0  0  0  0  0  0  0  0  0  0  0
   -8.0704    1.7079   -1.9665 C   0  0  0  0  0  0  0  0  0  0  0  0
   -7.0871    2.6006   -2.4321 C   0  0  0  0  0  0  0  0  0  0  0  0
   -5.7903    2.2332   -2.2272 O   0  0  0  0  0  0  0  0  0  0  0  0
   -4.7739    3.1196   -2.6164 C   0  0  0  0  0  0  0  0  0  0  0  0
   -7.4896    3.7537   -3.0870 C   0  0  0  0  0  0  0  0  0  0  0  0
   -8.8341    4.0263   -3.3023 C   0  0  0  0  0  0  0  0  0  0  0  0
   -9.8044    3.1357   -2.8713 C   0  0  0  0  0  0  0  0  0  0  0  0
   -9.4047    1.9778   -2.2042 C   0  0  0  0  0  0  0  0  0  0  0  0
  -11.1524    3.2921   -3.0399 O   0  0  0  0  0  0  0  0  0  0  0  0
  -11.6087    4.4358   -3.7170 C   0  0  0  0  0  0  0  0  0  0  0  0
   11.0948   -2.7615   -1.3530 H   0  0  0  0  0  0  0  0  0  0  0  0
   10.0845   -3.0709    0.7406 H   0  0  0  0  0  0  0  0  0  0  0  0
    8.6664   -4.1263    0.9600 H   0  0  0  0  0  0  0  0  0  0  0  0
    9.8166   -4.4545   -0.3594 H   0  0  0  0  0  0  0  0  0  0  0  0
    8.0404    0.0890   -3.9318 H   0  0  0  0  0  0  0  0  0  0  0  0
   11.9516   -1.4379   -3.1808 H   0  0  0  0  0  0  0  0  0  0  0  0
   12.1289   -0.7246   -5.4276 H   0  0  0  0  0  0  0  0  0  0  0  0
   12.3886    0.6149   -4.2737 H   0  0  0  0  0  0  0  0  0  0  0  0
   11.8313    0.9576   -5.9297 H   0  0  0  0  0  0  0  0  0  0  0  0
    6.6658   -1.3211   -4.8541 H   0  0  0  0  0  0  0  0  0  0  0  0
    5.3662   -1.0813   -8.2199 H   0  0  0  0  0  0  0  0  0  0  0  0
    6.1571   -2.0998   -6.9903 H   0  0  0  0  0  0  0  0  0  0  0  0
    6.3670   -0.3274   -6.9525 H   0  0  0  0  0  0  0  0  0  0  0  0
    0.6884   -1.5466   -4.0984 H   0  0  0  0  0  0  0  0  0  0  0  0
    0.2695   -0.5236   -5.4954 H   0  0  0  0  0  0  0  0  0  0  0  0
    0.8847    0.2257   -4.0004 H   0  0  0  0  0  0  0  0  0  0  0  0
    2.2953   -0.9153   -2.5209 H   0  0  0  0  0  0  0  0  0  0  0  0
    2.4799   -1.0981   -0.3462 H   0  0  0  0  0  0  0  0  0  0  0  0
    4.6182   -1.4435    1.8091 H   0  0  0  0  0  0  0  0  0  0  0  0
    4.7117   -1.5486    4.0452 H   0  0  0  0  0  0  0  0  0  0  0  0
    6.2121   -0.8318    5.7025 H   0  0  0  0  0  0  0  0  0  0  0  0
    6.1004   -2.6115    5.5993 H   0  0  0  0  0  0  0  0  0  0  0  0
    6.6072   -1.8354    7.1210 H   0  0  0  0  0  0  0  0  0  0  0  0
    1.3713   -1.6677    9.5919 H   0  0  0  0  0  0  0  0  0  0  0  0
    0.5909   -0.6210    8.3799 H   0  0  0  0  0  0  0  0  0  0  0  0
    0.4696   -2.3984    8.2403 H   0  0  0  0  0  0  0  0  0  0  0  0
    0.2217   -1.3283    6.1722 H   0  0  0  0  0  0  0  0  0  0  0  0
   -1.4068   -0.9883    4.6725 H   0  0  0  0  0  0  0  0  0  0  0  0
   -1.7044   -1.0682    1.6295 H   0  0  0  0  0  0  0  0  0  0  0  0
   -2.7397    0.7864    0.0878 H   0  0  0  0  0  0  0  0  0  0  0  0
   -3.0883   -0.2332   -1.3367 H   0  0  0  0  0  0  0  0  0  0  0  0
   -4.4039    0.6704   -0.5427 H   0  0  0  0  0  0  0  0  0  0  0  0
   -7.2966   -0.2926    3.0547 H   0  0  0  0  0  0  0  0  0  0  0  0
   -3.4747   -0.5952    4.9217 H   0  0  0  0  0  0  0  0  0  0  0  0
   -6.1573   -0.0228    7.2807 H   0  0  0  0  0  0  0  0  0  0  0  0
   -4.9210   -1.1538    6.6782 H   0  0  0  0  0  0  0  0  0  0  0  0
   -4.6784    0.6101    6.5173 H   0  0  0  0  0  0  0  0  0  0  0  0
   -8.2976    2.7646    0.3126 H   0  0  0  0  0  0  0  0  0  0  0  0
   -7.9985    1.9840    1.8892 H   0  0  0  0  0  0  0  0  0  0  0  0
   -7.0500    3.4128    1.4085 H   0  0  0  0  0  0  0  0  0  0  0  0
   -8.6379   -0.7541   -2.6841 H   0  0  0  0  0  0  0  0  0  0  0  0
   -6.4932   -2.8000    0.4008 H   0  0  0  0  0  0  0  0  0  0  0  0
   -8.8582   -4.3738   -2.9562 H   0  0  0  0  0  0  0  0  0  0  0  0
   -9.7188   -2.8434   -2.6590 H   0  0  0  0  0  0  0  0  0  0  0  0
   -8.2409   -2.8601   -3.6626 H   0  0  0  0  0  0  0  0  0  0  0  0
   -3.8401    2.6412   -2.3250 H   0  0  0  0  0  0  0  0  0  0  0  0
   -4.7741    3.2834   -3.7000 H   0  0  0  0  0  0  0  0  0  0  0  0
   -4.8607    4.0828   -2.1030 H   0  0  0  0  0  0  0  0  0  0  0  0
   -6.7627    4.4635   -3.4487 H   0  0  0  0  0  0  0  0  0  0  0  0
   -9.0973    4.9379   -3.8146 H   0  0  0  0  0  0  0  0  0  0  0  0
  -10.1645    1.2960   -1.8548 H   0  0  0  0  0  0  0  0  0  0  0  0
  -12.6939    4.3495   -3.7446 H   0  0  0  0  0  0  0  0  0  0  0  0
  -11.2240    4.4782   -4.7416 H   0  0  0  0  0  0  0  0  0  0  0  0
  -11.3336    5.3547   -3.1883 H   0  0  0  0  0  0  0  0  0  0  0  0
  1  2  2  0  0  0  0
  2  3  1  0  0  0  0
  3  4  1  0  0  0  0
  2  5  1  0  0  0  0
  5  6  2  0  0  0  0
  6  7  1  0  0  0  0
  7  8  2  0  0  0  0
  7  9  1  0  0  0  0
  9 10  1  0  0  0  0
  5 11  1  0  0  0  0
 11 12  1  0  0  0  0
 11 13  2  0  0  0  0
 13 14  1  0  0  0  0
 14 15  2  0  0  0  0
 15 16  1  0  0  0  0
 16 17  1  0  0  0  0
 15 18  1  0  0  0  0
 18 19  1  0  0  0  0
 19 20  1  0  0  0  0
 18 21  2  0  0  0  0
 21 22  1  0  0  0  0
 22 23  2  0  0  0  0
 23 24  1  0  0  0  0
 24 25  2  0  0  0  0
 25 26  1  0  0  0  0
 26 27  1  0  0  0  0
 26 28  2  0  0  0  0
 28 29  1  0  0  0  0
 29 30  2  0  0  0  0
 30 31  1  0  0  0  0
 31 32  1  0  0  0  0
 30 33  1  0  0  0  0
 33 34  1  0  0  0  0
 34 35  1  0  0  0  0
 33 36  2  0  0  0  0
 36 37  1  0  0  0  0
 37 38  2  0  0  0  0
 38 39  1  0  0  0  0
 39 40  2  0  0  0  0
 40 41  1  0  0  0  0
 41 42  2  0  0  0  0
 42 43  1  0  0  0  0
 43 44  1  0  0  0  0
 42 45  1  0  0  0  0
 45 46  2  0  0  0  0
 46 47  1  0  0  0  0
 47 48  2  0  0  0  0
 47 49  1  0  0  0  0
 49 50  1  0  0  0  0
 45 51  1  0  0  0  0
 51 52  2  0  0  0  0
 52 53  1  0  0  0  0
 53 54  1  0  0  0  0
 52 55  1  0  0  0  0
 55 56  2  0  0  0  0
 56 57  1  0  0  0  0
 57 58  2  0  0  0  0
 57 59  1  0  0  0  0
 59 60  1  0  0  0  0
 55 61  1  0  0  0  0
 61 62  2  0  0  0  0
 62 63  1  0  0  0  0
 63 64  1  0  0  0  0
 62 65  1  0  0  0  0
 65 66  2  0  0  0  0
 66 67  1  0  0  0  0
 67 68  2  0  0  0  0
 67 69  1  0  0  0  0
 69 70  1  0  0  0  0
  8  1  1  0  0  0  0
 23 12  1  0  0  0  0
 38 27  1  0  0  0  0
 48 41  1  0  0  0  0
 58 51  1  0  0  0  0
 68 61  1  0  0  0  0
 22 13  1  0  0  0  0
 37 28  1  0  0  0  0
  1 71  1  0  0  0  0
  4 72  1  0  0  0  0
  4 73  1  0  0  0  0
  4 74  1  0  0  0  0
  6 75  1  0  0  0  0
  8 76  1  0  0  0  0
 10 77  1  0  0  0  0
 10 78  1  0  0  0  0
 10 79  1  0  0  0  0
 14 80  1  0  0  0  0
 17 81  1  0  0  0  0
 17 82  1  0  0  0  0
 17 83  1  0  0  0  0
 20 84  1  0  0  0  0
 20 85  1  0  0  0  0
 20 86  1  0  0  0  0
 21 87  1  0  0  0  0
 24 88  1  0  0  0  0
 25 89  1  0  0  0  0
 29 90  1  0  0  0  0
 32 91  1  0  0  0  0
 32 92  1  0  0  0  0
 32 93  1  0  0  0  0
 35 94  1  0  0  0  0
 35 95  1  0  0  0  0
 35 96  1  0  0  0  0
 36 97  1  0  0  0  0
 39 98  1  0  0  0  0
 40 99  1  0  0  0  0
 44100  1  0  0  0  0
 44101  1  0  0  0  0
 44102  1  0  0  0  0
 46103  1  0  0  0  0
 48104  1  0  0  0  0
 50105  1  0  0  0  0
 50106  1  0  0  0  0
 50107  1  0  0  0  0
 54108  1  0  0  0  0
 54109  1  0  0  0  0
 54110  1  0  0  0  0
 56111  1  0  0  0  0
 58112  1  0  0  0  0
 60113  1  0  0  0  0
 60114  1  0  0  0  0
 60115  1  0  0  0  0
 64116  1  0  0  0  0
 64117  1  0  0  0  0
 64118  1  0  0  0  0
 65119  1  0  0  0  0
 66120  1  0  0  0  0
 68121  1  0  0  0  0
 70122  1  0  0  0  0
 70123  1  0  0  0  0
 70124  1  0  0  0  0
M  END
