
  xtb     03042216343D
 energy: -453.631090749200 gnorm: 0.000447393256 xtb: 6.4.1 (unknown)
254277  0     0  0            999 V2000
    0.7950    4.6764    2.2510 C   0  0  0  0  0  0  0  0  0  0  0  0
    1.0911    3.6308    3.0492 C   0  0  0  0  0  0  0  0  0  0  0  0
    0.0410    2.6681    3.1202 C   0  0  0  0  0  0  0  0  0  0  0  0
   -0.0104    1.5040    3.9046 C   0  0  0  0  0  0  0  0  0  0  0  0
    1.0905    1.2016    4.8321 C   0  0  0  0  0  0  0  0  0  0  0  0
    0.8398    1.1145    6.1999 C   0  0  0  0  0  0  0  0  0  0  0  0
    1.8769    0.9873    7.0978 C   0  0  0  0  0  0  0  0  0  0  0  0
    3.2003    0.9159    6.6673 C   0  0  0  0  0  0  0  0  0  0  0  0
    4.4529    0.7648    7.9012 S   0  0  0  0  0  0  0  0  0  0  0  0
    5.8908    1.6542    7.1816 C   0  0  0  0  0  0  0  0  0  0  0  0
    6.7841    2.1292    8.3105 C   0  0  0  0  0  0  0  0  0  0  0  0
    3.4283    0.9318    5.2952 C   0  0  0  0  0  0  0  0  0  0  0  0
    4.6839    0.7961    4.8091 F   0  0  0  0  0  0  0  0  0  0  0  0
    2.4033    1.0934    4.3857 C   0  0  0  0  0  0  0  0  0  0  0  0
   -1.1813    0.7631    3.8408 C   0  0  0  0  0  0  0  0  0  0  0  0
   -2.2793    1.1508    3.0355 C   0  0  0  0  0  0  0  0  0  0  0  0
   -2.2478    2.3317    2.2803 C   0  0  0  0  0  0  0  0  0  0  0  0
   -3.4814    2.7661    1.6109 C   0  0  0  0  0  0  0  0  0  0  0  0
   -4.2074    1.8982    0.7981 C   0  0  0  0  0  0  0  0  0  0  0  0
   -5.4704    2.2264    0.3431 C   0  0  0  0  0  0  0  0  0  0  0  0
   -6.0423    3.4521    0.6634 C   0  0  0  0  0  0  0  0  0  0  0  0
   -7.6502    3.9826    0.1799 S   0  0  0  0  0  0  0  0  0  0  0  0
   -8.4986    2.4568   -0.3602 C   0  0  0  0  0  0  0  0  0  0  0  0
   -8.3523    2.2029   -1.8492 C   0  0  0  0  0  0  0  0  0  0  0  0
   -5.2797    4.3352    1.4303 C   0  0  0  0  0  0  0  0  0  0  0  0
   -4.0311    4.0106    1.9091 C   0  0  0  0  0  0  0  0  0  0  0  0
   -5.8000    5.5369    1.7512 F   0  0  0  0  0  0  0  0  0  0  0  0
   -1.0734    3.0650    2.3388 C   0  0  0  0  0  0  0  0  0  0  0  0
   -0.7697    4.5720    1.5266 S   0  0  0  0  0  0  0  0  0  0  0  0
   -3.3857    0.2809    3.1952 C   0  0  0  0  0  0  0  0  0  0  0  0
   -3.1576   -0.7422    4.0577 C   0  0  0  0  0  0  0  0  0  0  0  0
   -1.5462   -0.6954    4.7395 S   0  0  0  0  0  0  0  0  0  0  0  0
   -4.2148   -1.6101    4.5059 C   0  0  0  0  0  0  0  0  0  0  0  0
   -4.5213   -1.9190    5.7790 C   0  0  0  0  0  0  0  0  0  0  0  0
   -5.8933   -2.5307    5.8325 C   0  0  0  0  0  0  0  0  0  0  0  0
   -5.7656   -3.8938    6.4270 N   0  0  0  0  0  4  0  0  0  0  0  0
   -5.5880   -4.8193    5.6754 O   0  0  0  0  0  1  0  0  0  0  0  0
   -5.8186   -3.9604    7.6274 O   0  0  0  0  0  0  0  0  0  0  0  0
   -6.3033   -2.5590    4.3875 C   0  0  0  0  0  0  0  0  0  0  0  0
   -7.7001   -2.9205    3.9754 C   0  0  0  0  0  0  0  0  0  0  0  0
   -8.0304   -4.3781    3.8365 C   0  0  0  0  0  0  0  0  0  0  0  0
   -8.6571   -4.5985    2.6651 C   0  0  0  0  0  0  0  0  0  0  0  0
   -8.7407   -3.3768    1.9173 C   0  0  0  0  0  0  0  0  0  0  0  0
   -8.1510   -2.3925    2.6399 C   0  0  0  0  0  0  0  0  0  0  0  0
   -7.9726   -1.0541    2.2592 N   0  0  0  0  0  4  0  0  0  0  0  0
   -7.6092   -0.2622    3.1131 O   0  0  0  0  0  1  0  0  0  0  0  0
   -8.1648   -0.7557    1.0918 O   0  0  0  0  0  0  0  0  0  0  0  0
   -5.2955   -2.0850    3.6181 C   0  0  0  0  0  0  0  0  0  0  0  0
   -5.2643   -2.1780    2.1680 C   0  0  0  0  0  0  0  0  0  0  0  0
   -5.6500   -3.3448    1.6303 C   0  0  0  0  0  0  0  0  0  0  0  0
   -5.9064   -3.7158    0.2664 C   0  0  0  0  0  0  0  0  0  0  0  0
   -6.3878   -4.9444   -0.0342 C   0  0  0  0  0  0  0  0  0  0  0  0
   -6.6600   -5.0611   -1.4961 C   0  0  0  0  0  0  0  0  0  0  0  0
   -8.1157   -5.2747   -1.7424 N   0  0  0  0  0  4  0  0  0  0  0  0
   -8.4201   -6.1769   -2.4783 O   0  0  0  0  0  1  0  0  0  0  0  0
   -8.8828   -4.5261   -1.1917 O   0  0  0  0  0  0  0  0  0  0  0  0
   -6.2339   -3.7074   -2.0030 C   0  0  0  0  0  0  0  0  0  0  0  0
   -6.1720   -3.4222   -3.4687 C   0  0  0  0  0  0  0  0  0  0  0  0
   -7.3702   -3.7949   -4.2782 C   0  0  0  0  0  0  0  0  0  0  0  0
   -7.0047   -4.5330   -5.3450 C   0  0  0  0  0  0  0  0  0  0  0  0
   -5.5868   -4.7399   -5.3230 C   0  0  0  0  0  0  0  0  0  0  0  0
   -5.0753   -4.1356   -4.2209 C   0  0  0  0  0  0  0  0  0  0  0  0
   -3.7281   -4.1069   -3.8358 N   0  0  0  0  0  4  0  0  0  0  0  0
   -2.9229   -4.7151   -4.5205 O   0  0  0  0  0  1  0  0  0  0  0  0
   -3.4309   -3.4860   -2.8279 O   0  0  0  0  0  0  0  0  0  0  0  0
   -5.8119   -2.9321   -0.9774 C   0  0  0  0  0  0  0  0  0  0  0  0
   -5.1497   -1.6633   -1.2537 C   0  0  0  0  0  0  0  0  0  0  0  0
   -5.6936   -0.6221   -1.8939 C   0  0  0  0  0  0  0  0  0  0  0  0
   -4.8475    0.2348   -2.7261 C   0  0  0  0  0  0  0  0  0  0  0  0
   -4.4929    1.5400   -2.8078 C   0  0  0  0  0  0  0  0  0  0  0  0
   -3.5282    1.8043   -3.8307 C   0  0  0  0  0  0  0  0  0  0  0  0
   -2.7957    2.9724   -4.0980 C   0  0  0  0  0  0  0  0  0  0  0  0
   -3.0476    4.2682   -3.4510 C   0  0  0  0  0  0  0  0  0  0  0  0
   -3.2343    5.3924   -4.2543 C   0  0  0  0  0  0  0  0  0  0  0  0
   -3.4761    6.6271   -3.6925 C   0  0  0  0  0  0  0  0  0  0  0  0
   -3.5097    6.7897   -2.3112 C   0  0  0  0  0  0  0  0  0  0  0  0
   -3.8290    8.4072   -1.6679 S   0  0  0  0  0  0  0  0  0  0  0  0
   -5.0735    8.0791   -0.3629 C   0  0  0  0  0  0  0  0  0  0  0  0
   -6.3009    7.3851   -0.9147 C   0  0  0  0  0  0  0  0  0  0  0  0
   -3.2597    5.6717   -1.5222 C   0  0  0  0  0  0  0  0  0  0  0  0
   -3.2022    5.7886   -0.1825 F   0  0  0  0  0  0  0  0  0  0  0  0
   -3.0582    4.4199   -2.0691 C   0  0  0  0  0  0  0  0  0  0  0  0
   -1.7260    2.8421   -4.9721 C   0  0  0  0  0  0  0  0  0  0  0  0
   -1.3855    1.6505   -5.6638 C   0  0  0  0  0  0  0  0  0  0  0  0
   -2.2192    0.5367   -5.5287 C   0  0  0  0  0  0  0  0  0  0  0  0
   -2.0737   -0.7751   -6.1792 C   0  0  0  0  0  0  0  0  0  0  0  0
   -0.9572   -1.5864   -6.0220 C   0  0  0  0  0  0  0  0  0  0  0  0
   -0.9543   -2.8899   -6.4853 C   0  0  0  0  0  0  0  0  0  0  0  0
   -2.0683   -3.4289   -7.1187 C   0  0  0  0  0  0  0  0  0  0  0  0
   -2.2251   -5.0796   -7.7003 S   0  0  0  0  0  0  0  0  0  0  0  0
   -0.8811   -5.9762   -6.8555 C   0  0  0  0  0  0  0  0  0  0  0  0
    0.4200   -5.9602   -7.6367 C   0  0  0  0  0  0  0  0  0  0  0  0
   -3.1674   -2.5886   -7.3020 C   0  0  0  0  0  0  0  0  0  0  0  0
   -3.1866   -1.2936   -6.8435 C   0  0  0  0  0  0  0  0  0  0  0  0
   -4.2721   -3.0722   -7.9131 F   0  0  0  0  0  0  0  0  0  0  0  0
   -3.2259    0.6467   -4.5794 C   0  0  0  0  0  0  0  0  0  0  0  0
   -4.1025   -0.7264   -4.0009 S   0  0  0  0  0  0  0  0  0  0  0  0
   -0.0703    1.6959   -6.1974 C   0  0  0  0  0  0  0  0  0  0  0  0
    0.6132    2.8240   -5.8419 C   0  0  0  0  0  0  0  0  0  0  0  0
   -0.4483    4.0264   -5.1056 S   0  0  0  0  0  0  0  0  0  0  0  0
    2.0032    2.8605   -5.5002 C   0  0  0  0  0  0  0  0  0  0  0  0
    2.4494    3.5503   -4.4073 C   0  0  0  0  0  0  0  0  0  0  0  0
    3.4799    2.8840   -3.7024 C   0  0  0  0  0  0  0  0  0  0  0  0
    3.8109    3.0593   -2.3472 C   0  0  0  0  0  0  0  0  0  0  0  0
    3.2732    4.1904   -1.5791 C   0  0  0  0  0  0  0  0  0  0  0  0
    4.1286    5.0197   -0.8550 C   0  0  0  0  0  0  0  0  0  0  0  0
    3.6478    6.1498   -0.2327 C   0  0  0  0  0  0  0  0  0  0  0  0
    2.3005    6.5135   -0.3056 C   0  0  0  0  0  0  0  0  0  0  0  0
    1.8702    8.0031    0.5390 S   0  0  0  0  0  0  0  0  0  0  0  0
    0.3012    8.6196   -0.1834 C   0  0  0  0  0  0  0  0  0  0  0  0
   -0.9110    8.2480    0.6441 C   0  0  0  0  0  0  0  0  0  0  0  0
    1.4500    5.6470   -0.9858 C   0  0  0  0  0  0  0  0  0  0  0  0
    0.1248    5.8916   -1.0898 F   0  0  0  0  0  0  0  0  0  0  0  0
    1.9173    4.5010   -1.5973 C   0  0  0  0  0  0  0  0  0  0  0  0
    4.5887    2.0643   -1.7755 C   0  0  0  0  0  0  0  0  0  0  0  0
    5.1554    0.9996   -2.5209 C   0  0  0  0  0  0  0  0  0  0  0  0
    4.8763    0.8649   -3.8933 C   0  0  0  0  0  0  0  0  0  0  0  0
    5.4485   -0.2161   -4.7046 C   0  0  0  0  0  0  0  0  0  0  0  0
    5.4091   -1.5502   -4.3064 C   0  0  0  0  0  0  0  0  0  0  0  0
    6.0332   -2.5306   -5.0513 C   0  0  0  0  0  0  0  0  0  0  0  0
    6.7187   -2.2144   -6.2187 C   0  0  0  0  0  0  0  0  0  0  0  0
    7.5841   -3.4015   -7.1988 S   0  0  0  0  0  0  0  0  0  0  0  0
    8.2858   -4.5151   -5.9265 C   0  0  0  0  0  0  0  0  0  0  0  0
    9.2220   -3.7861   -4.9827 C   0  0  0  0  0  0  0  0  0  0  0  0
    6.6906   -0.8868   -6.6432 C   0  0  0  0  0  0  0  0  0  0  0  0
    6.0723    0.1018   -5.9090 C   0  0  0  0  0  0  0  0  0  0  0  0
    7.3062   -0.5466   -7.7900 F   0  0  0  0  0  0  0  0  0  0  0  0
    3.9734    1.7704   -4.4252 C   0  0  0  0  0  0  0  0  0  0  0  0
    3.0897    1.5416   -5.9200 S   0  0  0  0  0  0  0  0  0  0  0  0
    5.8200    0.0715   -1.6817 C   0  0  0  0  0  0  0  0  0  0  0  0
    5.6654    0.3283   -0.3509 C   0  0  0  0  0  0  0  0  0  0  0  0
    4.8282    1.8382   -0.0605 S   0  0  0  0  0  0  0  0  0  0  0  0
    5.9741   -0.5942    0.7007 C   0  0  0  0  0  0  0  0  0  0  0  0
    6.8534   -1.6332    0.6378 C   0  0  0  0  0  0  0  0  0  0  0  0
    6.7848   -2.4987    1.7581 C   0  0  0  0  0  0  0  0  0  0  0  0
    7.5368   -3.6595    1.9787 C   0  0  0  0  0  0  0  0  0  0  0  0
    8.4212   -4.2124    0.9428 C   0  0  0  0  0  0  0  0  0  0  0  0
    7.8877   -4.5358   -0.3035 C   0  0  0  0  0  0  0  0  0  0  0  0
    8.6673   -5.1365   -1.2701 C   0  0  0  0  0  0  0  0  0  0  0  0
   10.0045   -5.4233   -1.0256 C   0  0  0  0  0  0  0  0  0  0  0  0
   11.0302   -6.2151   -2.2380 S   0  0  0  0  0  0  0  0  0  0  0  0
   10.0191   -7.6998   -2.6348 C   0  0  0  0  0  0  0  0  0  0  0  0
    9.3353   -7.6142   -3.9854 C   0  0  0  0  0  0  0  0  0  0  0  0
   10.5356   -5.0642    0.2097 C   0  0  0  0  0  0  0  0  0  0  0  0
   11.8304   -5.3071    0.4737 F   0  0  0  0  0  0  0  0  0  0  0  0
    9.7614   -4.4804    1.1933 C   0  0  0  0  0  0  0  0  0  0  0  0
    7.3147   -4.3277    3.1715 C   0  0  0  0  0  0  0  0  0  0  0  0
    6.3199   -3.9380    4.1013 C   0  0  0  0  0  0  0  0  0  0  0  0
    5.5301   -2.8004    3.8583 C   0  0  0  0  0  0  0  0  0  0  0  0
    4.4001   -2.4861    4.7437 C   0  0  0  0  0  0  0  0  0  0  0  0
    3.1235   -2.2958    4.2156 C   0  0  0  0  0  0  0  0  0  0  0  0
    2.0296   -2.1672    5.0439 C   0  0  0  0  0  0  0  0  0  0  0  0
    2.1588   -2.2190    6.4299 C   0  0  0  0  0  0  0  0  0  0  0  0
    0.6781   -2.0794    7.3842 S   0  0  0  0  0  0  0  0  0  0  0  0
    0.9331   -3.2294    8.7887 C   0  0  0  0  0  0  0  0  0  0  0  0
    1.1955   -4.6479    8.3251 C   0  0  0  0  0  0  0  0  0  0  0  0
    3.4457   -2.3389    6.9459 C   0  0  0  0  0  0  0  0  0  0  0  0
    4.5490   -2.4738    6.1270 C   0  0  0  0  0  0  0  0  0  0  0  0
    3.6596   -2.3582    8.2785 F   0  0  0  0  0  0  0  0  0  0  0  0
    5.8070   -2.0871    2.6981 C   0  0  0  0  0  0  0  0  0  0  0  0
    5.0206   -0.6243    2.1692 S   0  0  0  0  0  0  0  0  0  0  0  0
    6.2213   -4.8818    5.1692 C   0  0  0  0  0  0  0  0  0  0  0  0
    7.1026   -5.8960    5.0646 C   0  0  0  0  0  0  0  0  0  0  0  0
    8.1091   -5.8017    3.6605 S   0  0  0  0  0  0  0  0  0  0  0  0
    1.4069    5.5324    2.0442 H   0  0  0  0  0  0  0  0  0  0  0  0
    2.0160    3.5401    3.5881 H   0  0  0  0  0  0  0  0  0  0  0  0
   -0.1732    1.1841    6.5638 H   0  0  0  0  0  0  0  0  0  0  0  0
    1.6801    0.9494    8.1575 H   0  0  0  0  0  0  0  0  0  0  0  0
    6.4225    0.9733    6.5182 H   0  0  0  0  0  0  0  0  0  0  0  0
    5.4979    2.4934    6.6097 H   0  0  0  0  0  0  0  0  0  0  0  0
    6.2412    2.8028    8.9697 H   0  0  0  0  0  0  0  0  0  0  0  0
    7.1379    1.2847    8.8975 H   0  0  0  0  0  0  0  0  0  0  0  0
    7.6443    2.6554    7.9019 H   0  0  0  0  0  0  0  0  0  0  0  0
    2.6417    1.1121    3.3332 H   0  0  0  0  0  0  0  0  0  0  0  0
   -3.7761    0.9503    0.5092 H   0  0  0  0  0  0  0  0  0  0  0  0
   -6.0166    1.5036   -0.2416 H   0  0  0  0  0  0  0  0  0  0  0  0
   -9.5439    2.6382   -0.1091 H   0  0  0  0  0  0  0  0  0  0  0  0
   -8.1373    1.6250    0.2414 H   0  0  0  0  0  0  0  0  0  0  0  0
   -7.3091    2.0856   -2.1334 H   0  0  0  0  0  0  0  0  0  0  0  0
   -8.7663    3.0337   -2.4164 H   0  0  0  0  0  0  0  0  0  0  0  0
   -8.8924    1.2965   -2.1169 H   0  0  0  0  0  0  0  0  0  0  0  0
   -3.5070    4.7177    2.5312 H   0  0  0  0  0  0  0  0  0  0  0  0
   -4.3486    0.4678    2.7587 H   0  0  0  0  0  0  0  0  0  0  0  0
   -3.9301   -1.7370    6.6559 H   0  0  0  0  0  0  0  0  0  0  0  0
   -6.5581   -1.9567    6.4847 H   0  0  0  0  0  0  0  0  0  0  0  0
   -8.3731   -2.5071    4.7422 H   0  0  0  0  0  0  0  0  0  0  0  0
   -7.7887   -5.1047    4.5891 H   0  0  0  0  0  0  0  0  0  0  0  0
   -9.0427   -5.5379    2.3148 H   0  0  0  0  0  0  0  0  0  0  0  0
   -9.1844   -3.2782    0.9430 H   0  0  0  0  0  0  0  0  0  0  0  0
   -4.9451   -1.3399    1.5687 H   0  0  0  0  0  0  0  0  0  0  0  0
   -5.8608   -4.1545    2.3201 H   0  0  0  0  0  0  0  0  0  0  0  0
   -6.5936   -5.7383    0.6588 H   0  0  0  0  0  0  0  0  0  0  0  0
   -6.1322   -5.8840   -1.9871 H   0  0  0  0  0  0  0  0  0  0  0  0
   -6.0007   -2.3426   -3.5778 H   0  0  0  0  0  0  0  0  0  0  0  0
   -8.3630   -3.4738   -4.0214 H   0  0  0  0  0  0  0  0  0  0  0  0
   -7.6534   -4.9169   -6.1093 H   0  0  0  0  0  0  0  0  0  0  0  0
   -5.0235   -5.2710   -6.0692 H   0  0  0  0  0  0  0  0  0  0  0  0
   -4.0725   -1.7132   -1.1382 H   0  0  0  0  0  0  0  0  0  0  0  0
   -6.7688   -0.5117   -1.9660 H   0  0  0  0  0  0  0  0  0  0  0  0
   -4.8360    2.3043   -2.1343 H   0  0  0  0  0  0  0  0  0  0  0  0
   -3.2157    5.2864   -5.3285 H   0  0  0  0  0  0  0  0  0  0  0  0
   -3.6451    7.4905   -4.3168 H   0  0  0  0  0  0  0  0  0  0  0  0
   -4.6077    7.5058    0.4344 H   0  0  0  0  0  0  0  0  0  0  0  0
   -5.3171    9.0734    0.0106 H   0  0  0  0  0  0  0  0  0  0  0  0
   -7.0186    7.2280   -0.1129 H   0  0  0  0  0  0  0  0  0  0  0  0
   -6.0434    6.4123   -1.3301 H   0  0  0  0  0  0  0  0  0  0  0  0
   -6.7648    7.9839   -1.6957 H   0  0  0  0  0  0  0  0  0  0  0  0
   -2.8657    3.5893   -1.4073 H   0  0  0  0  0  0  0  0  0  0  0  0
   -0.0929   -1.2128   -5.4937 H   0  0  0  0  0  0  0  0  0  0  0  0
   -0.0780   -3.4941   -6.3202 H   0  0  0  0  0  0  0  0  0  0  0  0
   -1.2590   -6.9947   -6.7668 H   0  0  0  0  0  0  0  0  0  0  0  0
   -0.7937   -5.5503   -5.8580 H   0  0  0  0  0  0  0  0  0  0  0  0
    0.7782   -4.9459   -7.7977 H   0  0  0  0  0  0  0  0  0  0  0  0
    1.1828   -6.5156   -7.0936 H   0  0  0  0  0  0  0  0  0  0  0  0
    0.2790   -6.4261   -8.6093 H   0  0  0  0  0  0  0  0  0  0  0  0
   -4.0714   -0.6945   -6.9949 H   0  0  0  0  0  0  0  0  0  0  0  0
    0.3991    0.8556   -6.6768 H   0  0  0  0  0  0  0  0  0  0  0  0
    1.9491    4.4273   -4.0427 H   0  0  0  0  0  0  0  0  0  0  0  0
    5.1822    4.7908   -0.8094 H   0  0  0  0  0  0  0  0  0  0  0  0
    4.3171    6.7973    0.3123 H   0  0  0  0  0  0  0  0  0  0  0  0
    0.2316    8.2555   -1.2050 H   0  0  0  0  0  0  0  0  0  0  0  0
    0.4398    9.7013   -0.2026 H   0  0  0  0  0  0  0  0  0  0  0  0
   -1.7918    8.7214    0.2163 H   0  0  0  0  0  0  0  0  0  0  0  0
   -1.0674    7.1731    0.6488 H   0  0  0  0  0  0  0  0  0  0  0  0
   -0.7918    8.5899    1.6699 H   0  0  0  0  0  0  0  0  0  0  0  0
    1.1969    3.8507   -2.0690 H   0  0  0  0  0  0  0  0  0  0  0  0
    4.8616   -1.8274   -3.4184 H   0  0  0  0  0  0  0  0  0  0  0  0
    5.9835   -3.5564   -4.7205 H   0  0  0  0  0  0  0  0  0  0  0  0
    8.8227   -5.2596   -6.5136 H   0  0  0  0  0  0  0  0  0  0  0  0
    7.4669   -5.0085   -5.4033 H   0  0  0  0  0  0  0  0  0  0  0  0
    8.6781   -3.0636   -4.3763 H   0  0  0  0  0  0  0  0  0  0  0  0
    9.9839   -3.2556   -5.5486 H   0  0  0  0  0  0  0  0  0  0  0  0
    9.7193   -4.4923   -4.3209 H   0  0  0  0  0  0  0  0  0  0  0  0
    6.1076    1.1198   -6.2641 H   0  0  0  0  0  0  0  0  0  0  0  0
    6.3350   -0.7964   -2.0480 H   0  0  0  0  0  0  0  0  0  0  0  0
    7.5487   -1.7747   -0.1696 H   0  0  0  0  0  0  0  0  0  0  0  0
    6.8461   -4.3324   -0.5027 H   0  0  0  0  0  0  0  0  0  0  0  0
    8.2364   -5.3941   -2.2250 H   0  0  0  0  0  0  0  0  0  0  0  0
   10.7277   -8.5276   -2.6197 H   0  0  0  0  0  0  0  0  0  0  0  0
    9.3040   -7.8259   -1.8237 H   0  0  0  0  0  0  0  0  0  0  0  0
   10.0650   -7.4175   -4.7672 H   0  0  0  0  0  0  0  0  0  0  0  0
    8.8381   -8.5574   -4.2042 H   0  0  0  0  0  0  0  0  0  0  0  0
    8.5908   -6.8223   -4.0016 H   0  0  0  0  0  0  0  0  0  0  0  0
   10.2101   -4.2388    2.1439 H   0  0  0  0  0  0  0  0  0  0  0  0
    2.9817   -2.2920    3.1460 H   0  0  0  0  0  0  0  0  0  0  0  0
    1.0410   -2.0461    4.6296 H   0  0  0  0  0  0  0  0  0  0  0  0
   -0.0081   -3.1638    9.3345 H   0  0  0  0  0  0  0  0  0  0  0  0
    1.7348   -2.8490    9.4173 H   0  0  0  0  0  0  0  0  0  0  0  0
    1.2603   -5.3086    9.1871 H   0  0  0  0  0  0  0  0  0  0  0  0
    2.1323   -4.7094    7.7745 H   0  0  0  0  0  0  0  0  0  0  0  0
    0.3918   -4.9928    7.6781 H   0  0  0  0  0  0  0  0  0  0  0  0
    5.5237   -2.5482    6.5840 H   0  0  0  0  0  0  0  0  0  0  0  0
    5.5064   -4.8059    5.9673 H   0  0  0  0  0  0  0  0  0  0  0  0
    7.2358   -6.7231    5.7342 H   0  0  0  0  0  0  0  0  0  0  0  0
  1  2  2  0  0  0  0
  2  3  1  0  0  0  0
  3  4  2  0  0  0  0
  4  5  1  0  0  0  0
  5  6  2  0  0  0  0
  6  7  1  0  0  0  0
  7  8  2  0  0  0  0
  8  9  1  0  0  0  0
  9 10  1  0  0  0  0
 10 11  1  0  0  0  0
  8 12  1  0  0  0  0
 12 13  1  0  0  0  0
 12 14  2  0  0  0  0
  4 15  1  0  0  0  0
 15 16  2  0  0  0  0
 16 17  1  0  0  0  0
 17 18  1  0  0  0  0
 18 19  2  0  0  0  0
 19 20  1  0  0  0  0
 20 21  2  0  0  0  0
 21 22  1  0  0  0  0
 22 23  1  0  0  0  0
 23 24  1  0  0  0  0
 21 25  1  0  0  0  0
 25 26  2  0  0  0  0
 25 27  1  0  0  0  0
 17 28  2  0  0  0  0
 28 29  1  0  0  0  0
 16 30  1  0  0  0  0
 30 31  2  0  0  0  0
 31 32  1  0  0  0  0
 31 33  1  0  0  0  0
 33 34  2  0  0  0  0
 34 35  1  0  0  0  0
 35 36  1  0  0  0  0
 36 37  1  0  0  0  0
 36 38  2  0  0  0  0
 35 39  1  0  0  0  0
 39 40  1  0  0  0  0
 40 41  1  0  0  0  0
 41 42  2  0  0  0  0
 42 43  1  0  0  0  0
 43 44  2  0  0  0  0
 44 45  1  0  0  0  0
 45 46  1  0  0  0  0
 45 47  2  0  0  0  0
 39 48  2  0  0  0  0
 48 49  1  0  0  0  0
 49 50  2  0  0  0  0
 50 51  1  0  0  0  0
 51 52  2  0  0  0  0
 52 53  1  0  0  0  0
 53 54  1  0  0  0  0
 54 55  1  0  0  0  0
 54 56  2  0  0  0  0
 53 57  1  0  0  0  0
 57 58  1  0  0  0  0
 58 59  1  0  0  0  0
 59 60  2  0  0  0  0
 60 61  1  0  0  0  0
 61 62  2  0  0  0  0
 62 63  1  0  0  0  0
 63 64  1  0  0  0  0
 63 65  2  0  0  0  0
 57 66  2  0  0  0  0
 66 67  1  0  0  0  0
 67 68  2  0  0  0  0
 68 69  1  0  0  0  0
 69 70  2  0  0  0  0
 70 71  1  0  0  0  0
 71 72  2  0  0  0  0
 72 73  1  0  0  0  0
 73 74  2  0  0  0  0
 74 75  1  0  0  0  0
 75 76  2  0  0  0  0
 76 77  1  0  0  0  0
 77 78  1  0  0  0  0
 78 79  1  0  0  0  0
 76 80  1  0  0  0  0
 80 81  1  0  0  0  0
 80 82  2  0  0  0  0
 72 83  1  0  0  0  0
 83 84  2  0  0  0  0
 84 85  1  0  0  0  0
 85 86  1  0  0  0  0
 86 87  2  0  0  0  0
 87 88  1  0  0  0  0
 88 89  2  0  0  0  0
 89 90  1  0  0  0  0
 90 91  1  0  0  0  0
 91 92  1  0  0  0  0
 89 93  1  0  0  0  0
 93 94  2  0  0  0  0
 93 95  1  0  0  0  0
 85 96  2  0  0  0  0
 96 97  1  0  0  0  0
 84 98  1  0  0  0  0
 98 99  2  0  0  0  0
 99100  1  0  0  0  0
 99101  1  0  0  0  0
101102  2  0  0  0  0
102103  1  0  0  0  0
103104  2  0  0  0  0
104105  1  0  0  0  0
105106  2  0  0  0  0
106107  1  0  0  0  0
107108  2  0  0  0  0
108109  1  0  0  0  0
109110  1  0  0  0  0
110111  1  0  0  0  0
108112  1  0  0  0  0
112113  1  0  0  0  0
112114  2  0  0  0  0
104115  1  0  0  0  0
115116  2  0  0  0  0
116117  1  0  0  0  0
117118  1  0  0  0  0
118119  2  0  0  0  0
119120  1  0  0  0  0
120121  2  0  0  0  0
121122  1  0  0  0  0
122123  1  0  0  0  0
123124  1  0  0  0  0
121125  1  0  0  0  0
125126  2  0  0  0  0
125127  1  0  0  0  0
117128  2  0  0  0  0
128129  1  0  0  0  0
116130  1  0  0  0  0
130131  2  0  0  0  0
131132  1  0  0  0  0
131133  1  0  0  0  0
133134  2  0  0  0  0
134135  1  0  0  0  0
135136  2  0  0  0  0
136137  1  0  0  0  0
137138  2  0  0  0  0
138139  1  0  0  0  0
139140  2  0  0  0  0
140141  1  0  0  0  0
141142  1  0  0  0  0
142143  1  0  0  0  0
140144  1  0  0  0  0
144145  1  0  0  0  0
144146  2  0  0  0  0
136147  1  0  0  0  0
147148  2  0  0  0  0
148149  1  0  0  0  0
149150  1  0  0  0  0
150151  2  0  0  0  0
151152  1  0  0  0  0
152153  2  0  0  0  0
153154  1  0  0  0  0
154155  1  0  0  0  0
155156  1  0  0  0  0
153157  1  0  0  0  0
157158  2  0  0  0  0
157159  1  0  0  0  0
149160  2  0  0  0  0
160161  1  0  0  0  0
148162  1  0  0  0  0
162163  2  0  0  0  0
163164  1  0  0  0  0
 29  1  1  0  0  0  0
 48 33  1  0  0  0  0
 66 51  1  0  0  0  0
 97 69  1  0  0  0  0
129101  1  0  0  0  0
161133  1  0  0  0  0
 28  3  1  0  0  0  0
 44 40  1  0  0  0  0
 62 58  1  0  0  0  0
 96 71  1  0  0  0  0
128103  1  0  0  0  0
160135  1  0  0  0  0
 14  5  1  0  0  0  0
 32 15  1  0  0  0  0
 82 73  1  0  0  0  0
100 83  1  0  0  0  0
114105  1  0  0  0  0
132115  1  0  0  0  0
146137  1  0  0  0  0
164147  1  0  0  0  0
 26 18  1  0  0  0  0
 94 86  1  0  0  0  0
126118  1  0  0  0  0
158150  1  0  0  0  0
  1165  1  0  0  0  0
  2166  1  0  0  0  0
  6167  1  0  0  0  0
  7168  1  0  0  0  0
 10169  1  0  0  0  0
 10170  1  0  0  0  0
 11171  1  0  0  0  0
 11172  1  0  0  0  0
 11173  1  0  0  0  0
 14174  1  0  0  0  0
 19175  1  0  0  0  0
 20176  1  0  0  0  0
 23177  1  0  0  0  0
 23178  1  0  0  0  0
 24179  1  0  0  0  0
 24180  1  0  0  0  0
 24181  1  0  0  0  0
 26182  1  0  0  0  0
 30183  1  0  0  0  0
 34184  1  0  0  0  0
 35185  1  0  0  0  0
 40186  1  0  0  0  0
 41187  1  0  0  0  0
 42188  1  0  0  0  0
 43189  1  0  0  0  0
 49190  1  0  0  0  0
 50191  1  0  0  0  0
 52192  1  0  0  0  0
 53193  1  0  0  0  0
 58194  1  0  0  0  0
 59195  1  0  0  0  0
 60196  1  0  0  0  0
 61197  1  0  0  0  0
 67198  1  0  0  0  0
 68199  1  0  0  0  0
 70200  1  0  0  0  0
 74201  1  0  0  0  0
 75202  1  0  0  0  0
 78203  1  0  0  0  0
 78204  1  0  0  0  0
 79205  1  0  0  0  0
 79206  1  0  0  0  0
 79207  1  0  0  0  0
 82208  1  0  0  0  0
 87209  1  0  0  0  0
 88210  1  0  0  0  0
 91211  1  0  0  0  0
 91212  1  0  0  0  0
 92213  1  0  0  0  0
 92214  1  0  0  0  0
 92215  1  0  0  0  0
 94216  1  0  0  0  0
 98217  1  0  0  0  0
102218  1  0  0  0  0
106219  1  0  0  0  0
107220  1  0  0  0  0
110221  1  0  0  0  0
110222  1  0  0  0  0
111223  1  0  0  0  0
111224  1  0  0  0  0
111225  1  0  0  0  0
114226  1  0  0  0  0
119227  1  0  0  0  0
120228  1  0  0  0  0
123229  1  0  0  0  0
123230  1  0  0  0  0
124231  1  0  0  0  0
124232  1  0  0  0  0
124233  1  0  0  0  0
126234  1  0  0  0  0
130235  1  0  0  0  0
134236  1  0  0  0  0
138237  1  0  0  0  0
139238  1  0  0  0  0
142239  1  0  0  0  0
142240  1  0  0  0  0
143241  1  0  0  0  0
143242  1  0  0  0  0
143243  1  0  0  0  0
146244  1  0  0  0  0
151245  1  0  0  0  0
152246  1  0  0  0  0
155247  1  0  0  0  0
155248  1  0  0  0  0
156249  1  0  0  0  0
156250  1  0  0  0  0
156251  1  0  0  0  0
158252  1  0  0  0  0
162253  1  0  0  0  0
163254  1  0  0  0  0
M  CHG  1  36   1
M  CHG  1  37  -1
M  CHG  1  45   1
M  CHG  1  46  -1
M  CHG  1  54   1
M  CHG  1  55  -1
M  CHG  1  63   1
M  CHG  1  64  -1
M  END
