
  xtb     02282216343D
 energy: -235.829408435292 gnorm: 0.000846978656 xtb: 6.4.1 (unknown)
126133  0     0  0            999 V2000
    5.0341    2.5261    0.7564 C   0  0  0  0  0  0  0  0  0  0  0  0
    5.6785    2.2052    2.3108 S   0  0  0  0  0  0  0  0  0  0  0  0
    5.2559    0.5195    2.1834 C   0  0  0  0  0  0  0  0  0  0  0  0
    5.4912   -0.3595    3.2036 N   0  0  0  0  0  0  0  0  0  0  0  0
    6.3879   -0.0001    4.2749 C   0  0  0  0  0  0  0  0  0  0  0  0
    4.6425    0.2440    0.9862 C   0  0  0  0  0  0  0  0  0  0  0  0
    4.5252    1.4043    0.1630 C   0  0  0  0  0  0  0  0  0  0  0  0
    3.9166    1.4592   -1.1712 C   0  0  0  0  0  0  0  0  0  0  0  0
    3.8662    2.4650   -1.8527 O   0  0  0  0  0  0  0  0  0  0  0  0
    3.4300    0.2801   -1.5553 O   0  0  0  0  0  0  0  0  0  0  0  0
    2.7954    0.1998   -2.8252 C   0  0  0  0  0  0  0  0  0  0  0  0
    4.2161   -1.1118    0.6435 C   0  0  0  0  0  0  0  0  0  0  0  0
    4.8593   -1.9751   -0.1574 C   0  0  0  0  0  0  0  0  0  0  0  0
    4.1325   -3.2779   -0.1979 C   0  0  0  0  0  0  0  0  0  0  0  0
    4.9148   -4.3921    0.4152 N   0  0  0  0  0  4  0  0  0  0  0  0
    4.4248   -5.4912    0.3092 O   0  0  0  0  0  1  0  0  0  0  0  0
    5.9477   -4.1267    0.9629 O   0  0  0  0  0  0  0  0  0  0  0  0
    2.9342   -3.0142    0.6839 C   0  0  0  0  0  0  0  0  0  0  0  0
    1.9302   -4.0609    1.0425 C   0  0  0  0  0  0  0  0  0  0  0  0
    0.6179   -3.9936    0.3221 C   0  0  0  0  0  0  0  0  0  0  0  0
   -0.3979   -3.9914    1.2072 C   0  0  0  0  0  0  0  0  0  0  0  0
    0.1227   -4.0020    2.5438 C   0  0  0  0  0  0  0  0  0  0  0  0
    1.4772   -4.0067    2.4746 C   0  0  0  0  0  0  0  0  0  0  0  0
    2.3854   -3.8917    3.5324 N   0  0  0  0  0  4  0  0  0  0  0  0
    3.5773   -3.9073    3.2568 O   0  0  0  0  0  1  0  0  0  0  0  0
    1.9469   -3.7343    4.6593 O   0  0  0  0  0  0  0  0  0  0  0  0
    3.0039   -1.7565    1.1713 C   0  0  0  0  0  0  0  0  0  0  0  0
    2.0081   -1.2252    2.0849 C   0  0  0  0  0  0  0  0  0  0  0  0
    2.2460   -0.7948    3.3283 C   0  0  0  0  0  0  0  0  0  0  0  0
    1.1603   -0.6376    4.2752 C   0  0  0  0  0  0  0  0  0  0  0  0
    1.1735   -1.1330    5.5278 C   0  0  0  0  0  0  0  0  0  0  0  0
   -0.2164   -1.1129    6.0974 C   0  0  0  0  0  0  0  0  0  0  0  0
   -0.6059   -2.5353    6.3392 N   0  0  0  0  0  4  0  0  0  0  0  0
   -0.4156   -2.9693    7.4429 O   0  0  0  0  0  1  0  0  0  0  0  0
   -1.0944   -3.1381    5.4166 O   0  0  0  0  0  0  0  0  0  0  0  0
   -1.0112   -0.4705    4.9979 C   0  0  0  0  0  0  0  0  0  0  0  0
   -2.4932   -0.2687    5.1044 C   0  0  0  0  0  0  0  0  0  0  0  0
   -2.9402    0.1581    6.4650 C   0  0  0  0  0  0  0  0  0  0  0  0
   -3.8281   -0.7209    6.9665 C   0  0  0  0  0  0  0  0  0  0  0  0
   -4.0566   -1.7682    6.0112 C   0  0  0  0  0  0  0  0  0  0  0  0
   -3.2920   -1.5337    4.9178 C   0  0  0  0  0  0  0  0  0  0  0  0
   -3.2573   -2.3133    3.7502 N   0  0  0  0  0  4  0  0  0  0  0  0
   -2.6063   -1.8993    2.8031 O   0  0  0  0  0  1  0  0  0  0  0  0
   -3.9049   -3.3416    3.7293 O   0  0  0  0  0  0  0  0  0  0  0  0
   -0.2036   -0.1715    3.9525 C   0  0  0  0  0  0  0  0  0  0  0  0
   -0.5619    0.5044    2.7379 C   0  0  0  0  0  0  0  0  0  0  0  0
    0.3061    1.2892    2.0692 C   0  0  0  0  0  0  0  0  0  0  0  0
    0.0975    1.8999    0.8055 C   0  0  0  0  0  0  0  0  0  0  0  0
    1.4551    2.7282    0.0715 S   0  0  0  0  0  0  0  0  0  0  0  0
    0.5879    2.9743   -1.4096 C   0  0  0  0  0  0  0  0  0  0  0  0
    1.2341    3.6014   -2.4192 N   0  0  0  0  0  0  0  0  0  0  0  0
    0.6854    3.6980   -3.7506 C   0  0  0  0  0  0  0  0  0  0  0  0
   -0.7038    2.4764   -1.3237 C   0  0  0  0  0  0  0  0  0  0  0  0
   -0.9638    1.8717   -0.0685 C   0  0  0  0  0  0  0  0  0  0  0  0
   -2.2962    1.2953    0.2667 C   0  0  0  0  0  0  0  0  0  0  0  0
   -3.1324    1.8569    0.9283 O   0  0  0  0  0  0  0  0  0  0  0  0
   -2.4412    0.0907   -0.2792 O   0  0  0  0  0  0  0  0  0  0  0  0
   -3.6505   -0.6142   -0.0119 C   0  0  0  0  0  0  0  0  0  0  0  0
   -1.7294    2.5088   -2.3597 C   0  0  0  0  0  0  0  0  0  0  0  0
   -2.6684    3.9485   -2.6519 S   0  0  0  0  0  0  0  0  0  0  0  0
   -3.7127    3.0991   -3.7508 C   0  0  0  0  0  0  0  0  0  0  0  0
   -4.7563    3.7404   -4.3453 N   0  0  0  0  0  0  0  0  0  0  0  0
   -4.8538    5.1762   -4.3153 C   0  0  0  0  0  0  0  0  0  0  0  0
   -3.3545    1.7726   -3.8858 C   0  0  0  0  0  0  0  0  0  0  0  0
   -2.2274    1.4481   -3.0648 C   0  0  0  0  0  0  0  0  0  0  0  0
   -1.5972    0.1209   -2.9510 C   0  0  0  0  0  0  0  0  0  0  0  0
   -0.4040   -0.0452   -2.8175 O   0  0  0  0  0  0  0  0  0  0  0  0
   -2.4748   -0.8800   -3.0033 O   0  0  0  0  0  0  0  0  0  0  0  0
   -1.9353   -2.1902   -2.8908 C   0  0  0  0  0  0  0  0  0  0  0  0
   -4.0209    0.8420   -4.7645 C   0  0  0  0  0  0  0  0  0  0  0  0
   -5.7707    0.7787   -4.8216 S   0  0  0  0  0  0  0  0  0  0  0  0
   -5.7454   -0.5998   -5.8949 C   0  0  0  0  0  0  0  0  0  0  0  0
   -6.9306   -1.1763   -6.2710 N   0  0  0  0  0  0  0  0  0  0  0  0
   -6.9612   -2.0699   -7.4054 C   0  0  0  0  0  0  0  0  0  0  0  0
   -4.4678   -0.9727   -6.1796 C   0  0  0  0  0  0  0  0  0  0  0  0
   -3.4924   -0.1514   -5.5520 C   0  0  0  0  0  0  0  0  0  0  0  0
   -2.0637   -0.3941   -5.7892 C   0  0  0  0  0  0  0  0  0  0  0  0
   -1.5950   -1.4777   -6.0477 O   0  0  0  0  0  0  0  0  0  0  0  0
   -1.3276    0.7319   -5.7394 O   0  0  0  0  0  0  0  0  0  0  0  0
    0.0663    0.5776   -5.9666 C   0  0  0  0  0  0  0  0  0  0  0  0
    5.0485    3.5192    0.3574 H   0  0  0  0  0  0  0  0  0  0  0  0
    5.5292   -1.3300    2.9165 H   0  0  0  0  0  0  0  0  0  0  0  0
    6.0450    0.9319    4.7267 H   0  0  0  0  0  0  0  0  0  0  0  0
    6.3673   -0.7869    5.0252 H   0  0  0  0  0  0  0  0  0  0  0  0
    7.4194    0.1409    3.9322 H   0  0  0  0  0  0  0  0  0  0  0  0
    1.7145    0.1781   -2.6835 H   0  0  0  0  0  0  0  0  0  0  0  0
    3.1279   -0.7266   -3.2911 H   0  0  0  0  0  0  0  0  0  0  0  0
    3.0793    1.0551   -3.4414 H   0  0  0  0  0  0  0  0  0  0  0  0
    5.7783   -1.8042   -0.6845 H   0  0  0  0  0  0  0  0  0  0  0  0
    3.8459   -3.6031   -1.2025 H   0  0  0  0  0  0  0  0  0  0  0  0
    2.3858   -5.0446    0.8434 H   0  0  0  0  0  0  0  0  0  0  0  0
    0.5489   -3.9736   -0.7497 H   0  0  0  0  0  0  0  0  0  0  0  0
   -1.4478   -3.9661    0.9829 H   0  0  0  0  0  0  0  0  0  0  0  0
   -0.4657   -3.9878    3.4435 H   0  0  0  0  0  0  0  0  0  0  0  0
    0.9849   -1.3392    1.7492 H   0  0  0  0  0  0  0  0  0  0  0  0
    3.2525   -0.7443    3.7188 H   0  0  0  0  0  0  0  0  0  0  0  0
    1.9948   -1.5945    6.0408 H   0  0  0  0  0  0  0  0  0  0  0  0
   -0.2879   -0.6038    7.0629 H   0  0  0  0  0  0  0  0  0  0  0  0
   -2.7822    0.4700    4.3481 H   0  0  0  0  0  0  0  0  0  0  0  0
   -2.5621    1.0439    6.9409 H   0  0  0  0  0  0  0  0  0  0  0  0
   -4.3122   -0.6690    7.9241 H   0  0  0  0  0  0  0  0  0  0  0  0
   -4.7294   -2.5961    6.1403 H   0  0  0  0  0  0  0  0  0  0  0  0
   -1.5640    0.3498    2.3728 H   0  0  0  0  0  0  0  0  0  0  0  0
    1.2872    1.4640    2.4917 H   0  0  0  0  0  0  0  0  0  0  0  0
    2.2452    3.5601   -2.3481 H   0  0  0  0  0  0  0  0  0  0  0  0
   -0.1073    4.4490   -3.7718 H   0  0  0  0  0  0  0  0  0  0  0  0
    1.4764    4.0078   -4.4289 H   0  0  0  0  0  0  0  0  0  0  0  0
    0.2711    2.7451   -4.0888 H   0  0  0  0  0  0  0  0  0  0  0  0
   -3.4528   -1.3464    0.7729 H   0  0  0  0  0  0  0  0  0  0  0  0
   -3.9465   -1.1074   -0.9352 H   0  0  0  0  0  0  0  0  0  0  0  0
   -4.4231    0.0846    0.3137 H   0  0  0  0  0  0  0  0  0  0  0  0
   -5.1333    3.2802   -5.1617 H   0  0  0  0  0  0  0  0  0  0  0  0
   -4.7789    5.5148   -3.2811 H   0  0  0  0  0  0  0  0  0  0  0  0
   -5.8216    5.4717   -4.7134 H   0  0  0  0  0  0  0  0  0  0  0  0
   -4.0618    5.6645   -4.8954 H   0  0  0  0  0  0  0  0  0  0  0  0
   -2.7842   -2.8586   -2.7715 H   0  0  0  0  0  0  0  0  0  0  0  0
   -1.3824   -2.4433   -3.7985 H   0  0  0  0  0  0  0  0  0  0  0  0
   -1.2709   -2.2441   -2.0260 H   0  0  0  0  0  0  0  0  0  0  0  0
   -7.7371   -0.5767   -6.1744 H   0  0  0  0  0  0  0  0  0  0  0  0
   -6.6798   -1.5757   -8.3435 H   0  0  0  0  0  0  0  0  0  0  0  0
   -7.9673   -2.4718   -7.5033 H   0  0  0  0  0  0  0  0  0  0  0  0
   -6.2721   -2.8943   -7.2267 H   0  0  0  0  0  0  0  0  0  0  0  0
   -4.1920   -1.7886   -6.8198 H   0  0  0  0  0  0  0  0  0  0  0  0
    0.2403   -0.2032   -6.7099 H   0  0  0  0  0  0  0  0  0  0  0  0
    0.5628    0.3010   -5.0331 H   0  0  0  0  0  0  0  0  0  0  0  0
    0.4311    1.5377   -6.3244 H   0  0  0  0  0  0  0  0  0  0  0  0
  1  2  1  0  0  0  0
  2  3  1  0  0  0  0
  3  4  1  0  0  0  0
  4  5  1  0  0  0  0
  3  6  2  0  0  0  0
  6  7  1  0  0  0  0
  7  8  1  0  0  0  0
  8  9  2  0  0  0  0
  8 10  1  0  0  0  0
 10 11  1  0  0  0  0
  6 12  1  0  0  0  0
 12 13  2  0  0  0  0
 13 14  1  0  0  0  0
 14 15  1  0  0  0  0
 15 16  1  0  0  0  0
 15 17  2  0  0  0  0
 14 18  1  0  0  0  0
 18 19  1  0  0  0  0
 19 20  1  0  0  0  0
 20 21  2  0  0  0  0
 21 22  1  0  0  0  0
 22 23  2  0  0  0  0
 23 24  1  0  0  0  0
 24 25  1  0  0  0  0
 24 26  2  0  0  0  0
 18 27  2  0  0  0  0
 27 28  1  0  0  0  0
 28 29  2  0  0  0  0
 29 30  1  0  0  0  0
 30 31  2  0  0  0  0
 31 32  1  0  0  0  0
 32 33  1  0  0  0  0
 33 34  1  0  0  0  0
 33 35  2  0  0  0  0
 32 36  1  0  0  0  0
 36 37  1  0  0  0  0
 37 38  1  0  0  0  0
 38 39  2  0  0  0  0
 39 40  1  0  0  0  0
 40 41  2  0  0  0  0
 41 42  1  0  0  0  0
 42 43  1  0  0  0  0
 42 44  2  0  0  0  0
 36 45  2  0  0  0  0
 45 46  1  0  0  0  0
 46 47  2  0  0  0  0
 47 48  1  0  0  0  0
 48 49  1  0  0  0  0
 49 50  1  0  0  0  0
 50 51  1  0  0  0  0
 51 52  1  0  0  0  0
 50 53  2  0  0  0  0
 53 54  1  0  0  0  0
 54 55  1  0  0  0  0
 55 56  2  0  0  0  0
 55 57  1  0  0  0  0
 57 58  1  0  0  0  0
 53 59  1  0  0  0  0
 59 60  1  0  0  0  0
 60 61  1  0  0  0  0
 61 62  1  0  0  0  0
 62 63  1  0  0  0  0
 61 64  2  0  0  0  0
 64 65  1  0  0  0  0
 65 66  1  0  0  0  0
 66 67  2  0  0  0  0
 66 68  1  0  0  0  0
 68 69  1  0  0  0  0
 64 70  1  0  0  0  0
 70 71  1  0  0  0  0
 71 72  1  0  0  0  0
 72 73  1  0  0  0  0
 73 74  1  0  0  0  0
 72 75  2  0  0  0  0
 75 76  1  0  0  0  0
 76 77  1  0  0  0  0
 77 78  2  0  0  0  0
 77 79  1  0  0  0  0
 79 80  1  0  0  0  0
  7  1  2  0  0  0  0
 27 12  1  0  0  0  0
 45 30  1  0  0  0  0
 54 48  2  0  0  0  0
 65 59  2  0  0  0  0
 76 70  2  0  0  0  0
 23 19  1  0  0  0  0
 41 37  1  0  0  0  0
  1 81  1  0  0  0  0
  4 82  1  0  0  0  0
  5 83  1  0  0  0  0
  5 84  1  0  0  0  0
  5 85  1  0  0  0  0
 11 86  1  0  0  0  0
 11 87  1  0  0  0  0
 11 88  1  0  0  0  0
 13 89  1  0  0  0  0
 14 90  1  0  0  0  0
 19 91  1  0  0  0  0
 20 92  1  0  0  0  0
 21 93  1  0  0  0  0
 22 94  1  0  0  0  0
 28 95  1  0  0  0  0
 29 96  1  0  0  0  0
 31 97  1  0  0  0  0
 32 98  1  0  0  0  0
 37 99  1  0  0  0  0
 38100  1  0  0  0  0
 39101  1  0  0  0  0
 40102  1  0  0  0  0
 46103  1  0  0  0  0
 47104  1  0  0  0  0
 51105  1  0  0  0  0
 52106  1  0  0  0  0
 52107  1  0  0  0  0
 52108  1  0  0  0  0
 58109  1  0  0  0  0
 58110  1  0  0  0  0
 58111  1  0  0  0  0
 62112  1  0  0  0  0
 63113  1  0  0  0  0
 63114  1  0  0  0  0
 63115  1  0  0  0  0
 69116  1  0  0  0  0
 69117  1  0  0  0  0
 69118  1  0  0  0  0
 73119  1  0  0  0  0
 74120  1  0  0  0  0
 74121  1  0  0  0  0
 74122  1  0  0  0  0
 75123  1  0  0  0  0
 80124  1  0  0  0  0
 80125  1  0  0  0  0
 80126  1  0  0  0  0
M  CHG  1  15   1
M  CHG  1  16  -1
M  CHG  1  24   1
M  CHG  1  25  -1
M  CHG  1  33   1
M  CHG  1  34  -1
M  CHG  1  42   1
M  CHG  1  43  -1
M  END
