
  xtb     03022206113D
 energy: -475.090241066395 gnorm: 0.000187659783 xtb: 6.4.1 (unknown)
238264  0     0  0            999 V2000
    9.3677    0.0044   10.9052 C   0  0  0  0  0  0  0  0  0  0  0  0
   10.0051    0.3844    9.7792 C   0  0  0  0  0  0  0  0  0  0  0  0
    9.1283    0.5048    8.6617 C   0  0  0  0  0  0  0  0  0  0  0  0
    9.4417    0.8535    7.3384 C   0  0  0  0  0  0  0  0  0  0  0  0
   10.7827    1.2647    6.9564 C   0  0  0  0  0  0  0  0  0  0  0  0
   11.6144    0.5316    5.6182 S   0  0  0  0  0  0  0  0  0  0  0  0
   13.0012    1.5466    5.8237 C   0  0  0  0  0  0  0  0  0  0  0  0
   14.1589    1.4632    4.8916 C   0  0  0  0  0  0  0  0  0  0  0  0
   13.8690    2.2278    3.5979 C   0  0  0  0  0  0  0  0  0  0  0  0
   12.8102    2.4057    6.8642 C   0  0  0  0  0  0  0  0  0  0  0  0
   13.9609    3.5763    7.3654 Cl  0  0  0  0  0  0  0  0  0  0  0  0
   11.5558    2.2459    7.5123 C   0  0  0  0  0  0  0  0  0  0  0  0
   11.0502    3.2542    8.8063 Cl  0  0  0  0  0  0  0  0  0  0  0  0
    8.4055    0.8176    6.4146 C   0  0  0  0  0  0  0  0  0  0  0  0
    7.0734    0.4870    6.7610 C   0  0  0  0  0  0  0  0  0  0  0  0
    6.7588    0.1448    8.0859 C   0  0  0  0  0  0  0  0  0  0  0  0
    5.4079   -0.2408    8.4616 C   0  0  0  0  0  0  0  0  0  0  0  0
    4.5414    0.5737    9.7278 S   0  0  0  0  0  0  0  0  0  0  0  0
    3.1537   -0.4398    9.5327 C   0  0  0  0  0  0  0  0  0  0  0  0
    1.9182   -0.2263   10.3358 C   0  0  0  0  0  0  0  0  0  0  0  0
    0.9484    0.7072    9.6065 C   0  0  0  0  0  0  0  0  0  0  0  0
    3.3632   -1.3496    8.5389 C   0  0  0  0  0  0  0  0  0  0  0  0
    4.6414   -1.2402    7.9294 C   0  0  0  0  0  0  0  0  0  0  0  0
    5.1888   -2.3130    6.7076 Cl  0  0  0  0  0  0  0  0  0  0  0  0
    2.2087   -2.5341    8.0765 Cl  0  0  0  0  0  0  0  0  0  0  0  0
    7.7969    0.1733    9.0081 C   0  0  0  0  0  0  0  0  0  0  0  0
    7.6691   -0.2433   10.6935 S   0  0  0  0  0  0  0  0  0  0  0  0
    6.1938    0.6083    5.6558 C   0  0  0  0  0  0  0  0  0  0  0  0
    6.8165    0.9929    4.5065 C   0  0  0  0  0  0  0  0  0  0  0  0
    8.5387    1.2328    4.7292 S   0  0  0  0  0  0  0  0  0  0  0  0
    6.2277    1.2213    3.2279 C   0  0  0  0  0  0  0  0  0  0  0  0
    6.8553    1.5687    2.0694 C   0  0  0  0  0  0  0  0  0  0  0  0
    5.9700    1.7429    0.9762 C   0  0  0  0  0  0  0  0  0  0  0  0
    6.2887    2.0921   -0.3480 C   0  0  0  0  0  0  0  0  0  0  0  0
    7.6736    2.2371   -0.7644 C   0  0  0  0  0  0  0  0  0  0  0  0
    8.8179    0.9552   -0.4911 S   0  0  0  0  0  0  0  0  0  0  0  0
   10.1123    1.8481   -1.2136 C   0  0  0  0  0  0  0  0  0  0  0  0
   11.4933    1.2938   -1.2536 C   0  0  0  0  0  0  0  0  0  0  0  0
   12.1440    1.3515    0.1305 C   0  0  0  0  0  0  0  0  0  0  0  0
    9.6693    3.0671   -1.6315 C   0  0  0  0  0  0  0  0  0  0  0  0
   10.6650    4.2428   -2.3873 Cl  0  0  0  0  0  0  0  0  0  0  0  0
    8.2868    3.2893   -1.3849 C   0  0  0  0  0  0  0  0  0  0  0  0
    7.5191    4.7759   -1.7528 Cl  0  0  0  0  0  0  0  0  0  0  0  0
    5.2243    2.2746   -1.2224 C   0  0  0  0  0  0  0  0  0  0  0  0
    3.8746    2.1003   -0.8292 C   0  0  0  0  0  0  0  0  0  0  0  0
    3.5589    1.6578    0.4666 C   0  0  0  0  0  0  0  0  0  0  0  0
    2.1985    1.3062    0.8421 C   0  0  0  0  0  0  0  0  0  0  0  0
    1.4685    1.8820    2.3123 S   0  0  0  0  0  0  0  0  0  0  0  0
   -0.0123    1.0339    2.0117 C   0  0  0  0  0  0  0  0  0  0  0  0
   -1.1757    1.1541    2.9335 C   0  0  0  0  0  0  0  0  0  0  0  0
   -0.7831    1.0091    4.4005 C   0  0  0  0  0  0  0  0  0  0  0  0
    0.0741    0.3393    0.8419 C   0  0  0  0  0  0  0  0  0  0  0  0
    1.3242    0.4871    0.1799 C   0  0  0  0  0  0  0  0  0  0  0  0
    1.6892   -0.3539   -1.2744 Cl  0  0  0  0  0  0  0  0  0  0  0  0
   -1.2065   -0.5970    0.1810 Cl  0  0  0  0  0  0  0  0  0  0  0  0
    4.6215    1.5328    1.3526 C   0  0  0  0  0  0  0  0  0  0  0  0
    4.4935    1.0868    3.0271 S   0  0  0  0  0  0  0  0  0  0  0  0
    2.9821    2.4228   -1.8836 C   0  0  0  0  0  0  0  0  0  0  0  0
    3.6055    2.7535   -3.0435 C   0  0  0  0  0  0  0  0  0  0  0  0
    5.3438    2.7047   -2.9073 S   0  0  0  0  0  0  0  0  0  0  0  0
    2.8762    3.0855   -4.2509 C   0  0  0  0  0  0  0  0  0  0  0  0
    2.0909    4.1769   -4.4274 C   0  0  0  0  0  0  0  0  0  0  0  0
    1.1827    4.0556   -5.5151 C   0  0  0  0  0  0  0  0  0  0  0  0
    0.0705    4.8677   -5.8089 C   0  0  0  0  0  0  0  0  0  0  0  0
   -0.1350    6.1915   -5.2525 C   0  0  0  0  0  0  0  0  0  0  0  0
    0.1396    6.6083   -3.5871 S   0  0  0  0  0  0  0  0  0  0  0  0
   -0.3489    8.2495   -3.8227 C   0  0  0  0  0  0  0  0  0  0  0  0
   -0.2945    9.2391   -2.7124 C   0  0  0  0  0  0  0  0  0  0  0  0
    1.0953    9.8737   -2.6152 C   0  0  0  0  0  0  0  0  0  0  0  0
   -0.6880    8.4563   -5.1263 C   0  0  0  0  0  0  0  0  0  0  0  0
   -1.2078    9.9676   -5.7498 Cl  0  0  0  0  0  0  0  0  0  0  0  0
   -0.5775    7.2953   -5.9359 C   0  0  0  0  0  0  0  0  0  0  0  0
   -0.8879    7.3335   -7.6201 Cl  0  0  0  0  0  0  0  0  0  0  0  0
   -0.9076    4.2962   -6.6184 C   0  0  0  0  0  0  0  0  0  0  0  0
   -0.7257    3.0759   -7.3093 C   0  0  0  0  0  0  0  0  0  0  0  0
    0.4521    2.3373   -7.1266 C   0  0  0  0  0  0  0  0  0  0  0  0
    0.5695    0.9921   -7.6821 C   0  0  0  0  0  0  0  0  0  0  0  0
    1.7547    0.5589   -8.8706 S   0  0  0  0  0  0  0  0  0  0  0  0
    1.1900   -1.0756   -8.9459 C   0  0  0  0  0  0  0  0  0  0  0  0
    1.7784   -2.0584   -9.8972 C   0  0  0  0  0  0  0  0  0  0  0  0
    1.0077   -2.0645  -11.2199 C   0  0  0  0  0  0  0  0  0  0  0  0
    0.1435   -1.2570   -8.0915 C   0  0  0  0  0  0  0  0  0  0  0  0
   -0.2078   -0.0870   -7.3670 C   0  0  0  0  0  0  0  0  0  0  0  0
   -1.4577   -0.0596   -6.1825 Cl  0  0  0  0  0  0  0  0  0  0  0  0
   -0.6853   -2.7449   -7.8937 Cl  0  0  0  0  0  0  0  0  0  0  0  0
    1.3516    2.8221   -6.1889 C   0  0  0  0  0  0  0  0  0  0  0  0
    2.6516    1.8846   -5.5069 S   0  0  0  0  0  0  0  0  0  0  0  0
   -1.9408    2.5702   -7.8411 C   0  0  0  0  0  0  0  0  0  0  0  0
   -3.0322    3.2535   -7.3921 C   0  0  0  0  0  0  0  0  0  0  0  0
   -2.5921    4.7567   -6.6038 S   0  0  0  0  0  0  0  0  0  0  0  0
   -4.2227    2.5419   -6.9941 C   0  0  0  0  0  0  0  0  0  0  0  0
   -4.4583    2.3902   -5.6581 C   0  0  0  0  0  0  0  0  0  0  0  0
   -5.1085    1.1775   -5.3369 C   0  0  0  0  0  0  0  0  0  0  0  0
   -5.1647    0.5663   -4.0731 C   0  0  0  0  0  0  0  0  0  0  0  0
   -4.4222    1.1252   -2.9559 C   0  0  0  0  0  0  0  0  0  0  0  0
   -2.7634    1.6060   -3.2085 S   0  0  0  0  0  0  0  0  0  0  0  0
   -2.5545    2.0607   -1.5546 C   0  0  0  0  0  0  0  0  0  0  0  0
   -1.2685    2.6541   -1.0986 C   0  0  0  0  0  0  0  0  0  0  0  0
   -0.9569    3.9532   -1.8402 C   0  0  0  0  0  0  0  0  0  0  0  0
   -3.6994    1.8260   -0.8557 C   0  0  0  0  0  0  0  0  0  0  0  0
   -3.8836    2.1455    0.8175 Cl  0  0  0  0  0  0  0  0  0  0  0  0
   -4.7568    1.2866   -1.6408 C   0  0  0  0  0  0  0  0  0  0  0  0
   -6.3083    0.9670   -0.9850 Cl  0  0  0  0  0  0  0  0  0  0  0  0
   -5.7732   -0.6813   -4.0153 C   0  0  0  0  0  0  0  0  0  0  0  0
   -6.3227   -1.3223   -5.1534 C   0  0  0  0  0  0  0  0  0  0  0  0
   -6.1606   -0.7532   -6.4280 C   0  0  0  0  0  0  0  0  0  0  0  0
   -6.5517   -1.4713   -7.6335 C   0  0  0  0  0  0  0  0  0  0  0  0
   -8.2064   -1.9014   -7.9406 S   0  0  0  0  0  0  0  0  0  0  0  0
   -7.8143   -2.6317   -9.4606 C   0  0  0  0  0  0  0  0  0  0  0  0
   -8.8746   -3.1974  -10.3390 C   0  0  0  0  0  0  0  0  0  0  0  0
   -9.5340   -2.0993  -11.1769 C   0  0  0  0  0  0  0  0  0  0  0  0
   -6.4764   -2.5368   -9.7004 C   0  0  0  0  0  0  0  0  0  0  0  0
   -5.7554   -1.8839   -8.6639 C   0  0  0  0  0  0  0  0  0  0  0  0
   -4.0506   -1.7177   -8.6848 Cl  0  0  0  0  0  0  0  0  0  0  0  0
   -5.7093   -3.1496  -11.1076 Cl  0  0  0  0  0  0  0  0  0  0  0  0
   -5.5238    0.4781   -6.4949 C   0  0  0  0  0  0  0  0  0  0  0  0
   -4.9978    1.2998   -7.9448 S   0  0  0  0  0  0  0  0  0  0  0  0
   -6.8254   -2.6154   -4.8347 C   0  0  0  0  0  0  0  0  0  0  0  0
   -6.6133   -2.9660   -3.5426 C   0  0  0  0  0  0  0  0  0  0  0  0
   -5.8220   -1.7105   -2.6185 S   0  0  0  0  0  0  0  0  0  0  0  0
   -6.9125   -4.2050   -2.8589 C   0  0  0  0  0  0  0  0  0  0  0  0
   -8.0964   -4.8180   -2.7031 C   0  0  0  0  0  0  0  0  0  0  0  0
   -7.9328   -6.0019   -1.8069 C   0  0  0  0  0  0  0  0  0  0  0  0
   -8.3214   -7.2954   -2.4199 N   0  0  0  0  0  4  0  0  0  0  0  0
   -8.7374   -8.1444   -1.6690 O   0  0  0  0  0  1  0  0  0  0  0  0
   -8.1592   -7.4245   -3.6055 O   0  0  0  0  0  0  0  0  0  0  0  0
   -6.4474   -6.0108   -1.5266 C   0  0  0  0  0  0  0  0  0  0  0  0
   -5.7598   -7.0986   -0.7628 C   0  0  0  0  0  0  0  0  0  0  0  0
   -5.1921   -8.1749   -1.6426 C   0  0  0  0  0  0  0  0  0  0  0  0
   -5.5817   -9.3866   -1.2066 C   0  0  0  0  0  0  0  0  0  0  0  0
   -6.4242   -9.2337   -0.0559 C   0  0  0  0  0  0  0  0  0  0  0  0
   -6.5722   -7.9111    0.2050 C   0  0  0  0  0  0  0  0  0  0  0  0
   -7.3481   -7.3645    1.2383 N   0  0  0  0  0  4  0  0  0  0  0  0
   -7.7531   -8.1120    2.1084 O   0  0  0  0  0  1  0  0  0  0  0  0
   -7.5847   -6.1642    1.2039 O   0  0  0  0  0  0  0  0  0  0  0  0
   -5.8732   -4.9479   -2.1245 C   0  0  0  0  0  0  0  0  0  0  0  0
   -4.4634   -4.5850   -2.2205 C   0  0  0  0  0  0  0  0  0  0  0  0
   -3.6313   -4.2385   -1.2306 C   0  0  0  0  0  0  0  0  0  0  0  0
   -3.9646   -4.0612    0.1540 C   0  0  0  0  0  0  0  0  0  0  0  0
   -3.0865   -3.8053    1.1680 C   0  0  0  0  0  0  0  0  0  0  0  0
   -3.7110   -3.6298    2.4293 C   0  0  0  0  0  0  0  0  0  0  0  0
   -3.1139   -3.4387    3.6869 C   0  0  0  0  0  0  0  0  0  0  0  0
   -1.6698   -3.4171    3.8542 C   0  0  0  0  0  0  0  0  0  0  0  0
   -0.6498   -2.3358    2.9546 S   0  0  0  0  0  0  0  0  0  0  0  0
    0.7882   -2.9311    3.7039 C   0  0  0  0  0  0  0  0  0  0  0  0
    2.1309   -2.3653    3.3994 C   0  0  0  0  0  0  0  0  0  0  0  0
    2.5707   -1.3856    4.4883 C   0  0  0  0  0  0  0  0  0  0  0  0
    0.4815   -3.9154    4.5959 C   0  0  0  0  0  0  0  0  0  0  0  0
    1.6531   -4.7640    5.5177 Cl  0  0  0  0  0  0  0  0  0  0  0  0
   -0.9079   -4.1948    4.6830 C   0  0  0  0  0  0  0  0  0  0  0  0
   -1.5281   -5.4529    5.6683 Cl  0  0  0  0  0  0  0  0  0  0  0  0
   -3.9697   -3.3183    4.7769 C   0  0  0  0  0  0  0  0  0  0  0  0
   -5.3758   -3.4473    4.6775 C   0  0  0  0  0  0  0  0  0  0  0  0
   -5.9715   -3.6855    3.4300 C   0  0  0  0  0  0  0  0  0  0  0  0
   -7.3936   -3.9370    3.2770 C   0  0  0  0  0  0  0  0  0  0  0  0
   -8.1732   -5.1660    4.2283 S   0  0  0  0  0  0  0  0  0  0  0  0
   -9.6703   -4.9840    3.3911 C   0  0  0  0  0  0  0  0  0  0  0  0
  -10.8419   -5.8502    3.6969 C   0  0  0  0  0  0  0  0  0  0  0  0
  -10.8825   -7.0619    2.7618 C   0  0  0  0  0  0  0  0  0  0  0  0
   -9.5583   -4.0216    2.4322 C   0  0  0  0  0  0  0  0  0  0  0  0
   -8.2749   -3.4230    2.3650 C   0  0  0  0  0  0  0  0  0  0  0  0
   -7.9332   -2.1223    1.3021 Cl  0  0  0  0  0  0  0  0  0  0  0  0
  -10.8406   -3.5650    1.3879 Cl  0  0  0  0  0  0  0  0  0  0  0  0
   -5.1195   -3.7464    2.3325 C   0  0  0  0  0  0  0  0  0  0  0  0
   -5.6222   -4.0821    0.7095 S   0  0  0  0  0  0  0  0  0  0  0  0
   -6.0109   -3.2665    5.9407 C   0  0  0  0  0  0  0  0  0  0  0  0
   -5.1368   -3.0003    6.9323 C   0  0  0  0  0  0  0  0  0  0  0  0
   -3.4883   -2.9624    6.4120 S   0  0  0  0  0  0  0  0  0  0  0  0
    9.7905   -0.1573   11.8774 H   0  0  0  0  0  0  0  0  0  0  0  0
   11.0629    0.5624    9.7246 H   0  0  0  0  0  0  0  0  0  0  0  0
   15.0356    1.8885    5.3827 H   0  0  0  0  0  0  0  0  0  0  0  0
   14.3614    0.4170    4.6560 H   0  0  0  0  0  0  0  0  0  0  0  0
   13.6811    3.2763    3.8144 H   0  0  0  0  0  0  0  0  0  0  0  0
   14.7183    2.1579    2.9240 H   0  0  0  0  0  0  0  0  0  0  0  0
   12.9943    1.8119    3.1040 H   0  0  0  0  0  0  0  0  0  0  0  0
    1.4353   -1.1910   10.5038 H   0  0  0  0  0  0  0  0  0  0  0  0
    2.1849    0.2048   11.3017 H   0  0  0  0  0  0  0  0  0  0  0  0
    1.4142    1.6742    9.4326 H   0  0  0  0  0  0  0  0  0  0  0  0
    0.0523    0.8532   10.2034 H   0  0  0  0  0  0  0  0  0  0  0  0
    0.6634    0.2805    8.6483 H   0  0  0  0  0  0  0  0  0  0  0  0
    5.1345    0.4345    5.7151 H   0  0  0  0  0  0  0  0  0  0  0  0
    7.9195    1.7064    2.0090 H   0  0  0  0  0  0  0  0  0  0  0  0
   12.0822    1.8756   -1.9642 H   0  0  0  0  0  0  0  0  0  0  0  0
   11.4600    0.2567   -1.5936 H   0  0  0  0  0  0  0  0  0  0  0  0
   11.5612    0.7727    0.8437 H   0  0  0  0  0  0  0  0  0  0  0  0
   13.1499    0.9432    0.0875 H   0  0  0  0  0  0  0  0  0  0  0  0
   12.1999    2.3804    0.4777 H   0  0  0  0  0  0  0  0  0  0  0  0
   -1.9062    0.3901    2.6624 H   0  0  0  0  0  0  0  0  0  0  0  0
   -1.6442    2.1322    2.7867 H   0  0  0  0  0  0  0  0  0  0  0  0
   -0.3701    0.0217    4.5882 H   0  0  0  0  0  0  0  0  0  0  0  0
   -0.0412    1.7576    4.6705 H   0  0  0  0  0  0  0  0  0  0  0  0
   -1.6573    1.1410    5.0321 H   0  0  0  0  0  0  0  0  0  0  0  0
    1.9127    2.4187   -1.7833 H   0  0  0  0  0  0  0  0  0  0  0  0
    2.1099    5.0134   -3.7539 H   0  0  0  0  0  0  0  0  0  0  0  0
   -0.5345    8.7425   -1.7707 H   0  0  0  0  0  0  0  0  0  0  0  0
   -1.0377   10.0162   -2.8996 H   0  0  0  0  0  0  0  0  0  0  0  0
    1.1181   10.5997   -1.8071 H   0  0  0  0  0  0  0  0  0  0  0  0
    1.8463    9.1114   -2.4217 H   0  0  0  0  0  0  0  0  0  0  0  0
    1.3440   10.3792   -3.5448 H   0  0  0  0  0  0  0  0  0  0  0  0
    1.7345   -3.0524   -9.4472 H   0  0  0  0  0  0  0  0  0  0  0  0
    2.8225   -1.8025  -10.0828 H   0  0  0  0  0  0  0  0  0  0  0  0
    1.4420   -2.7907  -11.9016 H   0  0  0  0  0  0  0  0  0  0  0  0
   -0.0329   -2.3272  -11.0477 H   0  0  0  0  0  0  0  0  0  0  0  0
    1.0464   -1.0821  -11.6846 H   0  0  0  0  0  0  0  0  0  0  0  0
   -2.0170    1.6386   -8.3708 H   0  0  0  0  0  0  0  0  0  0  0  0
   -4.0726    3.0752   -4.9266 H   0  0  0  0  0  0  0  0  0  0  0  0
   -0.4632    1.9400   -1.2827 H   0  0  0  0  0  0  0  0  0  0  0  0
   -1.3295    2.8365   -0.0248 H   0  0  0  0  0  0  0  0  0  0  0  0
   -1.7508    4.6795   -1.6880 H   0  0  0  0  0  0  0  0  0  0  0  0
   -0.0251    4.3786   -1.4776 H   0  0  0  0  0  0  0  0  0  0  0  0
   -0.8594    3.7648   -2.9073 H   0  0  0  0  0  0  0  0  0  0  0  0
   -8.4226   -3.9401  -10.9989 H   0  0  0  0  0  0  0  0  0  0  0  0
   -9.6313   -3.6887   -9.7247 H   0  0  0  0  0  0  0  0  0  0  0  0
  -10.3012   -2.5278  -11.8161 H   0  0  0  0  0  0  0  0  0  0  0  0
   -9.9932   -1.3555  -10.5300 H   0  0  0  0  0  0  0  0  0  0  0  0
   -8.7938   -1.6068  -11.8024 H   0  0  0  0  0  0  0  0  0  0  0  0
   -7.2859   -3.2698   -5.5521 H   0  0  0  0  0  0  0  0  0  0  0  0
   -9.0445   -4.5138   -3.1027 H   0  0  0  0  0  0  0  0  0  0  0  0
   -8.4967   -5.8818   -0.8738 H   0  0  0  0  0  0  0  0  0  0  0  0
   -4.9289   -6.6296   -0.2168 H   0  0  0  0  0  0  0  0  0  0  0  0
   -4.5683   -7.9494   -2.4868 H   0  0  0  0  0  0  0  0  0  0  0  0
   -5.3225  -10.3357   -1.6376 H   0  0  0  0  0  0  0  0  0  0  0  0
   -6.8837  -10.0338    0.4939 H   0  0  0  0  0  0  0  0  0  0  0  0
   -4.0898   -4.5768   -3.2379 H   0  0  0  0  0  0  0  0  0  0  0  0
   -2.5994   -4.0198   -1.4732 H   0  0  0  0  0  0  0  0  0  0  0  0
   -2.0232   -3.7481    1.0200 H   0  0  0  0  0  0  0  0  0  0  0  0
    2.1083   -1.8607    2.4321 H   0  0  0  0  0  0  0  0  0  0  0  0
    2.8494   -3.1870    3.3496 H   0  0  0  0  0  0  0  0  0  0  0  0
    1.9713   -0.4793    4.4584 H   0  0  0  0  0  0  0  0  0  0  0  0
    2.4665   -1.8449    5.4662 H   0  0  0  0  0  0  0  0  0  0  0  0
    3.6120   -1.1172    4.3403 H   0  0  0  0  0  0  0  0  0  0  0  0
  -11.7568   -5.2651    3.5757 H   0  0  0  0  0  0  0  0  0  0  0  0
  -10.7767   -6.1910    4.7314 H   0  0  0  0  0  0  0  0  0  0  0  0
   -9.9689   -7.6436    2.8569 H   0  0  0  0  0  0  0  0  0  0  0  0
  -10.9822   -6.7361    1.7293 H   0  0  0  0  0  0  0  0  0  0  0  0
  -11.7291   -7.6964    3.0095 H   0  0  0  0  0  0  0  0  0  0  0  0
   -7.0745   -3.3257    6.0801 H   0  0  0  0  0  0  0  0  0  0  0  0
   -5.3499   -2.8183    7.9675 H   0  0  0  0  0  0  0  0  0  0  0  0
  1  2  2  0  0  0  0
  2  3  1  0  0  0  0
  3  4  2  0  0  0  0
  4  5  1  0  0  0  0
  5  6  1  0  0  0  0
  6  7  1  0  0  0  0
  7  8  1  0  0  0  0
  8  9  1  0  0  0  0
  7 10  2  0  0  0  0
 10 11  1  0  0  0  0
 10 12  1  0  0  0  0
 12 13  1  0  0  0  0
  4 14  1  0  0  0  0
 14 15  2  0  0  0  0
 15 16  1  0  0  0  0
 16 17  1  0  0  0  0
 17 18  1  0  0  0  0
 18 19  1  0  0  0  0
 19 20  1  0  0  0  0
 20 21  1  0  0  0  0
 19 22  2  0  0  0  0
 22 23  1  0  0  0  0
 23 24  1  0  0  0  0
 22 25  1  0  0  0  0
 16 26  2  0  0  0  0
 26 27  1  0  0  0  0
 15 28  1  0  0  0  0
 28 29  2  0  0  0  0
 29 30  1  0  0  0  0
 29 31  1  0  0  0  0
 31 32  2  0  0  0  0
 32 33  1  0  0  0  0
 33 34  2  0  0  0  0
 34 35  1  0  0  0  0
 35 36  1  0  0  0  0
 36 37  1  0  0  0  0
 37 38  1  0  0  0  0
 38 39  1  0  0  0  0
 37 40  2  0  0  0  0
 40 41  1  0  0  0  0
 40 42  1  0  0  0  0
 42 43  1  0  0  0  0
 34 44  1  0  0  0  0
 44 45  2  0  0  0  0
 45 46  1  0  0  0  0
 46 47  1  0  0  0  0
 47 48  1  0  0  0  0
 48 49  1  0  0  0  0
 49 50  1  0  0  0  0
 50 51  1  0  0  0  0
 49 52  2  0  0  0  0
 52 53  1  0  0  0  0
 53 54  1  0  0  0  0
 52 55  1  0  0  0  0
 46 56  2  0  0  0  0
 56 57  1  0  0  0  0
 45 58  1  0  0  0  0
 58 59  2  0  0  0  0
 59 60  1  0  0  0  0
 59 61  1  0  0  0  0
 61 62  2  0  0  0  0
 62 63  1  0  0  0  0
 63 64  2  0  0  0  0
 64 65  1  0  0  0  0
 65 66  1  0  0  0  0
 66 67  1  0  0  0  0
 67 68  1  0  0  0  0
 68 69  1  0  0  0  0
 67 70  2  0  0  0  0
 70 71  1  0  0  0  0
 70 72  1  0  0  0  0
 72 73  1  0  0  0  0
 64 74  1  0  0  0  0
 74 75  2  0  0  0  0
 75 76  1  0  0  0  0
 76 77  1  0  0  0  0
 77 78  1  0  0  0  0
 78 79  1  0  0  0  0
 79 80  1  0  0  0  0
 80 81  1  0  0  0  0
 79 82  2  0  0  0  0
 82 83  1  0  0  0  0
 83 84  1  0  0  0  0
 82 85  1  0  0  0  0
 76 86  2  0  0  0  0
 86 87  1  0  0  0  0
 75 88  1  0  0  0  0
 88 89  2  0  0  0  0
 89 90  1  0  0  0  0
 89 91  1  0  0  0  0
 91 92  2  0  0  0  0
 92 93  1  0  0  0  0
 93 94  2  0  0  0  0
 94 95  1  0  0  0  0
 95 96  1  0  0  0  0
 96 97  1  0  0  0  0
 97 98  1  0  0  0  0
 98 99  1  0  0  0  0
 97100  2  0  0  0  0
100101  1  0  0  0  0
100102  1  0  0  0  0
102103  1  0  0  0  0
 94104  1  0  0  0  0
104105  2  0  0  0  0
105106  1  0  0  0  0
106107  1  0  0  0  0
107108  1  0  0  0  0
108109  1  0  0  0  0
109110  1  0  0  0  0
110111  1  0  0  0  0
109112  2  0  0  0  0
112113  1  0  0  0  0
113114  1  0  0  0  0
112115  1  0  0  0  0
106116  2  0  0  0  0
116117  1  0  0  0  0
105118  1  0  0  0  0
118119  2  0  0  0  0
119120  1  0  0  0  0
119121  1  0  0  0  0
121122  2  0  0  0  0
122123  1  0  0  0  0
123124  1  0  0  0  0
124125  1  0  0  0  0
124126  2  0  0  0  0
123127  1  0  0  0  0
127128  1  0  0  0  0
128129  1  0  0  0  0
129130  2  0  0  0  0
130131  1  0  0  0  0
131132  2  0  0  0  0
132133  1  0  0  0  0
133134  1  0  0  0  0
133135  2  0  0  0  0
127136  2  0  0  0  0
136137  1  0  0  0  0
137138  2  0  0  0  0
138139  1  0  0  0  0
139140  2  0  0  0  0
140141  1  0  0  0  0
141142  2  0  0  0  0
142143  1  0  0  0  0
143144  1  0  0  0  0
144145  1  0  0  0  0
145146  1  0  0  0  0
146147  1  0  0  0  0
145148  2  0  0  0  0
148149  1  0  0  0  0
148150  1  0  0  0  0
150151  1  0  0  0  0
142152  1  0  0  0  0
152153  2  0  0  0  0
153154  1  0  0  0  0
154155  1  0  0  0  0
155156  1  0  0  0  0
156157  1  0  0  0  0
157158  1  0  0  0  0
158159  1  0  0  0  0
157160  2  0  0  0  0
160161  1  0  0  0  0
161162  1  0  0  0  0
160163  1  0  0  0  0
154164  2  0  0  0  0
164165  1  0  0  0  0
153166  1  0  0  0  0
166167  2  0  0  0  0
167168  1  0  0  0  0
 27  1  1  0  0  0  0
 57 31  1  0  0  0  0
 87 61  1  0  0  0  0
117 91  1  0  0  0  0
136121  1  0  0  0  0
165139  1  0  0  0  0
 26  3  1  0  0  0  0
 56 33  1  0  0  0  0
 86 63  1  0  0  0  0
116 93  1  0  0  0  0
132128  1  0  0  0  0
164141  1  0  0  0  0
 12  5  2  0  0  0  0
 30 14  1  0  0  0  0
 42 35  2  0  0  0  0
 60 44  1  0  0  0  0
 72 65  2  0  0  0  0
 90 74  1  0  0  0  0
102 95  2  0  0  0  0
120104  1  0  0  0  0
150143  2  0  0  0  0
168152  1  0  0  0  0
 23 17  2  0  0  0  0
 53 47  2  0  0  0  0
 83 77  2  0  0  0  0
113107  2  0  0  0  0
161155  2  0  0  0  0
  1169  1  0  0  0  0
  2170  1  0  0  0  0
  8171  1  0  0  0  0
  8172  1  0  0  0  0
  9173  1  0  0  0  0
  9174  1  0  0  0  0
  9175  1  0  0  0  0
 20176  1  0  0  0  0
 20177  1  0  0  0  0
 21178  1  0  0  0  0
 21179  1  0  0  0  0
 21180  1  0  0  0  0
 28181  1  0  0  0  0
 32182  1  0  0  0  0
 38183  1  0  0  0  0
 38184  1  0  0  0  0
 39185  1  0  0  0  0
 39186  1  0  0  0  0
 39187  1  0  0  0  0
 50188  1  0  0  0  0
 50189  1  0  0  0  0
 51190  1  0  0  0  0
 51191  1  0  0  0  0
 51192  1  0  0  0  0
 58193  1  0  0  0  0
 62194  1  0  0  0  0
 68195  1  0  0  0  0
 68196  1  0  0  0  0
 69197  1  0  0  0  0
 69198  1  0  0  0  0
 69199  1  0  0  0  0
 80200  1  0  0  0  0
 80201  1  0  0  0  0
 81202  1  0  0  0  0
 81203  1  0  0  0  0
 81204  1  0  0  0  0
 88205  1  0  0  0  0
 92206  1  0  0  0  0
 98207  1  0  0  0  0
 98208  1  0  0  0  0
 99209  1  0  0  0  0
 99210  1  0  0  0  0
 99211  1  0  0  0  0
110212  1  0  0  0  0
110213  1  0  0  0  0
111214  1  0  0  0  0
111215  1  0  0  0  0
111216  1  0  0  0  0
118217  1  0  0  0  0
122218  1  0  0  0  0
123219  1  0  0  0  0
128220  1  0  0  0  0
129221  1  0  0  0  0
130222  1  0  0  0  0
131223  1  0  0  0  0
137224  1  0  0  0  0
138225  1  0  0  0  0
140226  1  0  0  0  0
146227  1  0  0  0  0
146228  1  0  0  0  0
147229  1  0  0  0  0
147230  1  0  0  0  0
147231  1  0  0  0  0
158232  1  0  0  0  0
158233  1  0  0  0  0
159234  1  0  0  0  0
159235  1  0  0  0  0
159236  1  0  0  0  0
166237  1  0  0  0  0
167238  1  0  0  0  0
M  CHG  1 124   1
M  CHG  1 125  -1
M  CHG  1 133   1
M  CHG  1 134  -1
M  END
