256

C          0.27790        0.06870       10.92480
C          0.44420        0.98310        9.94620
C         -0.42690        0.77120        8.83520
C         -0.55810        1.54150        7.66870
C          0.34210        2.66470        7.38220
C          1.72490        2.52120        7.49830
C          2.57060        3.56720        7.19930
C          2.08040        4.79520        6.75810
S          3.27110        6.02600        6.31250
C          2.54190        7.59780        6.90140
C          2.25770        7.56900        8.38940
C          0.70090        4.91960        6.63110
F          0.14890        6.06810        6.17780
C         -0.15880        3.88860        6.95020
C         -1.57330        1.17550        6.79370
C         -2.42290        0.06350        7.01350
C         -2.26030       -0.73160        8.15670
C         -3.11620       -1.89460        8.42270
C         -4.50200       -1.77300        8.44040
C         -5.31090       -2.86080        8.70820
C         -4.75870       -4.11260        8.95180
S         -5.66720       -5.57830        9.31940
C         -7.38490       -5.17170        8.85070
C         -7.56190       -5.05690        7.34840
C         -3.36620       -4.21630        8.93830
C         -2.54790       -3.13880        8.68690
F         -2.80250       -5.41620        9.17950
C         -1.26480       -0.34980        9.04500
S         -0.93590       -1.11200       10.57870
C         -3.37340       -0.09280        5.96840
C         -3.29120        0.85160        4.99270
S         -1.96930        1.96870        5.29300
C         -4.16480        1.07380        3.86000
C         -3.82370        2.02370        2.88920
C         -4.69970        2.29130        1.86670
C         -5.92940        1.61890        1.77650
C         -6.26540        0.66040        2.72070
C         -5.38590        0.39740        3.75300
C         -6.64590        2.12060        0.61700
C         -5.85840        3.11270        0.01110
C         -4.54340        3.28080        0.73650
C         -3.37450        2.88550       -0.17330
C         -4.34740        4.70530        1.25950
C         -6.29480        3.74900       -1.12470
C         -7.51040        3.37270       -1.70500
C         -8.28420        2.38630       -1.10250
C         -7.86990        1.77030        0.06790
C         -7.79840        3.95730       -3.02640
C         -7.83590        3.10860       -4.13660
C         -7.64660        3.64140       -5.38950
C         -7.48280        5.02790       -5.55800
C         -7.63310        5.88540       -4.47830
C         -7.76420        5.33780       -3.21460
C         -6.83980        5.25450       -6.83950
C         -6.59610        4.00110       -7.42990
C         -7.36000        2.92070       -6.69140
C         -8.67520        2.61420       -7.42240
C         -6.55150        1.64040       -6.50090
C         -5.59620        3.85210       -8.35730
C         -4.77710        4.95440       -8.64730
C         -5.17140        6.22960       -8.22980
C         -6.21660        6.38990       -7.34050
C         -3.37650        4.67000       -8.91130
C         -2.40750        5.18940       -8.10600
C         -1.25430        4.37450       -8.00020
C         -0.26340        4.47020       -7.01700
C         -0.26670        5.48390       -5.95060
C         -1.36140        5.59060       -5.09680
C         -1.31630        6.41000       -3.98700
C         -0.17670        7.15020       -3.69170
S         -0.01530        8.17770       -2.26670
C         -1.03110        7.30390       -1.02010
C         -0.52000        5.90620       -0.73530
C          0.89200        7.07260       -4.58430
F          1.99930        7.80260       -4.35460
C          0.86600        6.24790       -5.68900
C          0.60930        3.40100       -6.91820
C          0.58810        2.28800       -7.79010
C         -0.36540        2.22830       -8.82600
C         -0.37540        1.08240       -9.74270
C         -1.52890        0.35050      -10.01630
C         -1.48530       -0.73730      -10.86170
C         -0.30110       -1.13200      -11.48140
S         -0.38170       -2.52010      -12.57400
C          1.17800       -3.42830      -12.26170
C          1.32710       -3.82150      -10.80600
C          0.83640       -0.37160      -11.22590
C          0.81350        0.70170      -10.35980
F          2.01400       -0.66070      -11.82310
C         -1.31040        3.24570       -8.85740
S         -2.80810        3.24800       -9.76490
C          1.39380        1.22450       -7.29400
C          1.94370        1.48800       -6.07580
S          1.64740        3.13420       -5.54620
C          2.47960        0.57630       -5.11230
C          2.29760        0.70120       -3.76740
C          2.72830       -0.42370       -3.02460
C          2.53790       -0.66460       -1.65510
C          1.86820        0.31260       -0.78360
C          0.76150       -0.06560       -0.02530
C          0.12390        0.84290        0.79490
C          0.57210        2.15490        0.89110
S         -0.28290        3.28450        1.96460
C          1.07600        3.84400        3.04890
C          1.68650        2.68380        3.80700
C          1.66530        2.52710        0.11600
F          2.12440        3.79470        0.15390
C          2.31490        1.62830       -0.70660
C          2.96460       -1.89410       -1.18010
C          3.58190       -2.87020       -2.00120
C          3.73700       -2.64170       -3.38020
C          4.31450       -3.67120       -4.25160
C          5.35500       -3.37680       -5.13090
C          5.93100       -4.37070       -5.89260
C          5.48340       -5.68990       -5.82860
S          6.30110       -6.87260       -6.85650
C          6.33720       -8.40560       -5.85350
C          7.02780       -8.20580       -4.51990
C          4.40160       -5.95530       -4.99390
C          3.83490       -4.97670       -4.20360
F          3.86320       -7.19330       -4.92350
C          3.29860       -1.41740       -3.85960
S          3.25610       -0.93280       -5.53960
C          3.97930       -4.00830       -1.25550
C          3.65700       -3.93470        0.06800
S          2.85860       -2.43000        0.47430
C          3.88410       -4.91950        1.07710
C          4.53050       -6.11380        0.95050
C          4.57630       -6.86420        2.15380
C          5.17480       -8.11430        2.37830
C          5.92170       -8.79400        1.31230
C          6.92280       -8.12360        0.61380
C          7.62520       -8.74330       -0.40100
C          7.35350      -10.06080       -0.75130
S          8.15070      -10.94650       -2.05180
C          9.73130      -10.05830       -2.28160
C         10.64710      -10.20090       -1.08180
C          6.34800      -10.72090       -0.04330
F          6.05030      -11.99420       -0.36440
C          5.64230      -10.11520        0.97280
C          5.03970       -8.65010        3.65150
C          4.37200       -7.98210        4.70800
C          3.78760       -6.73020        4.48610
C          3.12190       -5.94910        5.53960
C          3.80850       -5.58070        6.69340
C          3.22290       -4.73060        7.61090
C          1.94230       -4.24070        7.40310
S          1.25360       -3.03860        8.52540
C          2.01850       -1.55110        7.78070
C          1.42700       -1.21810        6.42560
C          1.24170       -4.66110        6.28080
C          1.82070       -5.49760        5.34640
F         -0.01210       -4.22820        6.06810
C          3.89580       -6.20740        3.20700
S          3.27580       -4.66040        2.69860
C          4.39300       -8.74540        5.91290
C          5.05540       -9.91200        5.78070
S          5.69390      -10.17420        4.19330
H          0.80290        0.00490       11.85800
H          1.14010        1.80070       10.00640
H          2.14090        1.57510        7.80800
H          3.63950        3.44870        7.29120
H          3.31040        8.33260        6.66120
H          1.64940        7.81500        6.31890
H          3.15880        7.31940        8.94610
H          1.49080        6.83300        8.62410
H          1.90560        8.54620        8.71340
H         -1.21980        4.05600        6.85360
H         -4.95490       -0.80710        8.27080
H         -6.37940       -2.71940        8.73560
H         -7.96000       -6.00950        9.24500
H         -7.68770       -4.26740        9.37730
H         -8.60370       -4.84830        7.11220
H         -6.94550       -4.25770        6.94230
H         -7.27480       -5.98810        6.86590
H         -1.47880       -3.27960        8.67660
H         -4.08410       -0.89850        5.95910
H         -2.87790        2.54220        2.95490
H         -7.20650        0.13380        2.66170
H         -5.65530       -0.33200        4.50130
H         -2.43850        2.93650        0.37770
H         -3.50820        1.87000       -0.54080
H         -3.31620        3.55730       -1.02640
H         -3.41360        4.77270        1.81250
H         -5.16670        4.98200        1.91950
H         -4.31500        5.40930        0.43120
H         -5.69140        4.50450       -1.60780
H         -9.22340        2.10340       -1.55610
H         -8.48450        1.01200        0.53040
H         -7.89090        2.04080       -3.98270
H         -7.55490        6.95500       -4.60550
H         -7.78280        5.98410       -2.34860
H         -9.25330        3.52540       -7.55960
H         -8.46900        2.18190       -8.39910
H         -9.26850        1.90920       -6.84420
H         -7.11480        0.92170       -5.91080
H         -5.61540        1.85480       -5.98910
H         -6.32940        1.18550       -7.46320
H         -5.32610        2.87930       -8.73990
H         -4.58910        7.08640       -8.53460
H         -6.46060        7.37070       -6.96080
H         -2.55950        6.06040       -7.49500
H         -2.24530        4.99890       -5.28530
H         -2.17690        6.46400       -3.33930
H         -0.94270        7.93850       -0.13860
H         -2.07090        7.30680       -1.34580
H         -1.09820        5.45610        0.06910
H          0.52400        5.94100       -0.43400
H         -0.60130        5.27200       -1.61650
H          1.73090        6.19970       -6.33200
H         -2.45820        0.61300       -9.53660
H         -2.37740       -1.31160      -11.05710
H          1.08260       -4.30800      -12.89830
H          2.01510       -2.82790      -12.61060
H          2.22070       -4.42950      -10.68060
H          0.46390       -4.39500      -10.47430
H          1.42120       -2.94150      -10.17230
H          1.72460        1.25680      -10.19660
H          1.46550        0.26080       -7.76670
H          1.80660        1.54990       -3.32670
H          0.39200       -1.07750       -0.08750
H         -0.73310        0.54590        1.37950
H          1.81040        4.36980        2.44200
H          0.59790        4.55190        3.72440
H          2.12000        1.95690        3.12100
H          2.47120        3.04940        4.46600
H          0.92980        2.18460        4.40960
H          3.17140        1.96100       -1.27250
H          5.73600       -2.36920       -5.19000
H          6.75320       -4.14410       -6.55320
H          6.89700       -9.09720       -6.48290
H          5.32270       -8.77840       -5.73440
H          6.47120       -7.51230       -3.89170
H          7.09320       -9.16080       -4.00210
H          8.03150       -7.81100       -4.66710
H          2.99520       -5.23790       -3.57780
H          4.49380       -4.84630       -1.68730
H          4.95240       -6.46090        0.02560
H          7.16750       -7.10630        0.88070
H          8.38560       -8.18640       -0.92470
H          9.52030       -9.01740       -2.52310
H         10.16300      -10.53700       -3.16050
H         11.59220       -9.69730       -1.27570
H         10.19640       -9.76430       -0.19270
H         10.84660      -11.25150       -0.88460
H          4.86940      -10.67150        1.47890
H          4.81630       -5.93440        6.85010
H          3.76150       -4.42250        8.49420
H          1.82190       -0.76220        8.50560
H          3.09300       -1.72830        7.72140
H          1.82600       -0.27130        6.06510
H          1.66910       -1.98910        5.69640
H          0.34460       -1.13570        6.49570
H          1.25340       -5.78750        4.47580
H          3.91990       -8.42140        6.82220
H          5.21670      -10.66660        6.52560
