
  xtb     03082202253D
 energy: -426.921650509735 gnorm: 0.000263921513 xtb: 6.4.1 (unknown)
256281  0     0  0            999 V2000
    0.2779    0.0687   10.9248 C   0  0  0  0  0  0  0  0  0  0  0  0
    0.4442    0.9831    9.9462 C   0  0  0  0  0  0  0  0  0  0  0  0
   -0.4269    0.7712    8.8352 C   0  0  0  0  0  0  0  0  0  0  0  0
   -0.5581    1.5415    7.6687 C   0  0  0  0  0  0  0  0  0  0  0  0
    0.3421    2.6647    7.3822 C   0  0  0  0  0  0  0  0  0  0  0  0
    1.7249    2.5212    7.4983 C   0  0  0  0  0  0  0  0  0  0  0  0
    2.5706    3.5672    7.1993 C   0  0  0  0  0  0  0  0  0  0  0  0
    2.0804    4.7952    6.7581 C   0  0  0  0  0  0  0  0  0  0  0  0
    3.2711    6.0260    6.3125 S   0  0  0  0  0  0  0  0  0  0  0  0
    2.5419    7.5978    6.9014 C   0  0  0  0  0  0  0  0  0  0  0  0
    2.2577    7.5690    8.3894 C   0  0  0  0  0  0  0  0  0  0  0  0
    0.7009    4.9196    6.6311 C   0  0  0  0  0  0  0  0  0  0  0  0
    0.1489    6.0681    6.1778 F   0  0  0  0  0  0  0  0  0  0  0  0
   -0.1588    3.8886    6.9502 C   0  0  0  0  0  0  0  0  0  0  0  0
   -1.5733    1.1755    6.7937 C   0  0  0  0  0  0  0  0  0  0  0  0
   -2.4229    0.0635    7.0135 C   0  0  0  0  0  0  0  0  0  0  0  0
   -2.2603   -0.7316    8.1567 C   0  0  0  0  0  0  0  0  0  0  0  0
   -3.1162   -1.8946    8.4227 C   0  0  0  0  0  0  0  0  0  0  0  0
   -4.5020   -1.7730    8.4404 C   0  0  0  0  0  0  0  0  0  0  0  0
   -5.3109   -2.8608    8.7082 C   0  0  0  0  0  0  0  0  0  0  0  0
   -4.7587   -4.1126    8.9518 C   0  0  0  0  0  0  0  0  0  0  0  0
   -5.6672   -5.5783    9.3194 S   0  0  0  0  0  0  0  0  0  0  0  0
   -7.3849   -5.1717    8.8507 C   0  0  0  0  0  0  0  0  0  0  0  0
   -7.5619   -5.0569    7.3484 C   0  0  0  0  0  0  0  0  0  0  0  0
   -3.3662   -4.2163    8.9383 C   0  0  0  0  0  0  0  0  0  0  0  0
   -2.5479   -3.1388    8.6869 C   0  0  0  0  0  0  0  0  0  0  0  0
   -2.8025   -5.4162    9.1795 F   0  0  0  0  0  0  0  0  0  0  0  0
   -1.2648   -0.3498    9.0450 C   0  0  0  0  0  0  0  0  0  0  0  0
   -0.9359   -1.1120   10.5787 S   0  0  0  0  0  0  0  0  0  0  0  0
   -3.3734   -0.0928    5.9684 C   0  0  0  0  0  0  0  0  0  0  0  0
   -3.2912    0.8516    4.9927 C   0  0  0  0  0  0  0  0  0  0  0  0
   -1.9693    1.9687    5.2930 S   0  0  0  0  0  0  0  0  0  0  0  0
   -4.1648    1.0738    3.8600 C   0  0  0  0  0  0  0  0  0  0  0  0
   -3.8237    2.0237    2.8892 C   0  0  0  0  0  0  0  0  0  0  0  0
   -4.6997    2.2913    1.8667 C   0  0  0  0  0  0  0  0  0  0  0  0
   -5.9294    1.6189    1.7765 C   0  0  0  0  0  0  0  0  0  0  0  0
   -6.2654    0.6604    2.7207 C   0  0  0  0  0  0  0  0  0  0  0  0
   -5.3859    0.3974    3.7530 C   0  0  0  0  0  0  0  0  0  0  0  0
   -6.6459    2.1206    0.6170 C   0  0  0  0  0  0  0  0  0  0  0  0
   -5.8584    3.1127    0.0111 C   0  0  0  0  0  0  0  0  0  0  0  0
   -4.5434    3.2808    0.7365 C   0  0  0  0  0  0  0  0  0  0  0  0
   -3.3745    2.8855   -0.1733 C   0  0  0  0  0  0  0  0  0  0  0  0
   -4.3474    4.7053    1.2595 C   0  0  0  0  0  0  0  0  0  0  0  0
   -6.2948    3.7490   -1.1247 C   0  0  0  0  0  0  0  0  0  0  0  0
   -7.5104    3.3727   -1.7050 C   0  0  0  0  0  0  0  0  0  0  0  0
   -8.2842    2.3863   -1.1025 C   0  0  0  0  0  0  0  0  0  0  0  0
   -7.8699    1.7703    0.0679 C   0  0  0  0  0  0  0  0  0  0  0  0
   -7.7984    3.9573   -3.0264 C   0  0  0  0  0  0  0  0  0  0  0  0
   -7.8359    3.1086   -4.1366 C   0  0  0  0  0  0  0  0  0  0  0  0
   -7.6466    3.6414   -5.3895 C   0  0  0  0  0  0  0  0  0  0  0  0
   -7.4828    5.0279   -5.5580 C   0  0  0  0  0  0  0  0  0  0  0  0
   -7.6331    5.8854   -4.4783 C   0  0  0  0  0  0  0  0  0  0  0  0
   -7.7642    5.3378   -3.2146 C   0  0  0  0  0  0  0  0  0  0  0  0
   -6.8398    5.2545   -6.8395 C   0  0  0  0  0  0  0  0  0  0  0  0
   -6.5961    4.0011   -7.4299 C   0  0  0  0  0  0  0  0  0  0  0  0
   -7.3600    2.9207   -6.6914 C   0  0  0  0  0  0  0  0  0  0  0  0
   -8.6752    2.6142   -7.4224 C   0  0  0  0  0  0  0  0  0  0  0  0
   -6.5515    1.6404   -6.5009 C   0  0  0  0  0  0  0  0  0  0  0  0
   -5.5962    3.8521   -8.3573 C   0  0  0  0  0  0  0  0  0  0  0  0
   -4.7771    4.9544   -8.6473 C   0  0  0  0  0  0  0  0  0  0  0  0
   -5.1714    6.2296   -8.2298 C   0  0  0  0  0  0  0  0  0  0  0  0
   -6.2166    6.3899   -7.3405 C   0  0  0  0  0  0  0  0  0  0  0  0
   -3.3765    4.6700   -8.9113 C   0  0  0  0  0  0  0  0  0  0  0  0
   -2.4075    5.1894   -8.1060 C   0  0  0  0  0  0  0  0  0  0  0  0
   -1.2543    4.3745   -8.0002 C   0  0  0  0  0  0  0  0  0  0  0  0
   -0.2634    4.4702   -7.0170 C   0  0  0  0  0  0  0  0  0  0  0  0
   -0.2667    5.4839   -5.9506 C   0  0  0  0  0  0  0  0  0  0  0  0
   -1.3614    5.5906   -5.0968 C   0  0  0  0  0  0  0  0  0  0  0  0
   -1.3163    6.4100   -3.9870 C   0  0  0  0  0  0  0  0  0  0  0  0
   -0.1767    7.1502   -3.6917 C   0  0  0  0  0  0  0  0  0  0  0  0
   -0.0153    8.1777   -2.2667 S   0  0  0  0  0  0  0  0  0  0  0  0
   -1.0311    7.3039   -1.0201 C   0  0  0  0  0  0  0  0  0  0  0  0
   -0.5200    5.9062   -0.7353 C   0  0  0  0  0  0  0  0  0  0  0  0
    0.8920    7.0726   -4.5843 C   0  0  0  0  0  0  0  0  0  0  0  0
    1.9993    7.8026   -4.3546 F   0  0  0  0  0  0  0  0  0  0  0  0
    0.8660    6.2479   -5.6890 C   0  0  0  0  0  0  0  0  0  0  0  0
    0.6093    3.4010   -6.9182 C   0  0  0  0  0  0  0  0  0  0  0  0
    0.5881    2.2880   -7.7901 C   0  0  0  0  0  0  0  0  0  0  0  0
   -0.3654    2.2283   -8.8260 C   0  0  0  0  0  0  0  0  0  0  0  0
   -0.3754    1.0824   -9.7427 C   0  0  0  0  0  0  0  0  0  0  0  0
   -1.5289    0.3505  -10.0163 C   0  0  0  0  0  0  0  0  0  0  0  0
   -1.4853   -0.7373  -10.8617 C   0  0  0  0  0  0  0  0  0  0  0  0
   -0.3011   -1.1320  -11.4814 C   0  0  0  0  0  0  0  0  0  0  0  0
   -0.3817   -2.5201  -12.5740 S   0  0  0  0  0  0  0  0  0  0  0  0
    1.1780   -3.4283  -12.2617 C   0  0  0  0  0  0  0  0  0  0  0  0
    1.3271   -3.8215  -10.8060 C   0  0  0  0  0  0  0  0  0  0  0  0
    0.8364   -0.3716  -11.2259 C   0  0  0  0  0  0  0  0  0  0  0  0
    0.8135    0.7017  -10.3598 C   0  0  0  0  0  0  0  0  0  0  0  0
    2.0140   -0.6607  -11.8231 F   0  0  0  0  0  0  0  0  0  0  0  0
   -1.3104    3.2457   -8.8574 C   0  0  0  0  0  0  0  0  0  0  0  0
   -2.8081    3.2480   -9.7649 S   0  0  0  0  0  0  0  0  0  0  0  0
    1.3938    1.2245   -7.2940 C   0  0  0  0  0  0  0  0  0  0  0  0
    1.9437    1.4880   -6.0758 C   0  0  0  0  0  0  0  0  0  0  0  0
    1.6474    3.1342   -5.5462 S   0  0  0  0  0  0  0  0  0  0  0  0
    2.4796    0.5763   -5.1123 C   0  0  0  0  0  0  0  0  0  0  0  0
    2.2976    0.7012   -3.7674 C   0  0  0  0  0  0  0  0  0  0  0  0
    2.7283   -0.4237   -3.0246 C   0  0  0  0  0  0  0  0  0  0  0  0
    2.5379   -0.6646   -1.6551 C   0  0  0  0  0  0  0  0  0  0  0  0
    1.8682    0.3126   -0.7836 C   0  0  0  0  0  0  0  0  0  0  0  0
    0.7615   -0.0656   -0.0253 C   0  0  0  0  0  0  0  0  0  0  0  0
    0.1239    0.8429    0.7949 C   0  0  0  0  0  0  0  0  0  0  0  0
    0.5721    2.1549    0.8911 C   0  0  0  0  0  0  0  0  0  0  0  0
   -0.2829    3.2845    1.9646 S   0  0  0  0  0  0  0  0  0  0  0  0
    1.0760    3.8440    3.0489 C   0  0  0  0  0  0  0  0  0  0  0  0
    1.6865    2.6838    3.8070 C   0  0  0  0  0  0  0  0  0  0  0  0
    1.6653    2.5271    0.1160 C   0  0  0  0  0  0  0  0  0  0  0  0
    2.1244    3.7947    0.1539 F   0  0  0  0  0  0  0  0  0  0  0  0
    2.3149    1.6283   -0.7066 C   0  0  0  0  0  0  0  0  0  0  0  0
    2.9646   -1.8941   -1.1801 C   0  0  0  0  0  0  0  0  0  0  0  0
    3.5819   -2.8702   -2.0012 C   0  0  0  0  0  0  0  0  0  0  0  0
    3.7370   -2.6417   -3.3802 C   0  0  0  0  0  0  0  0  0  0  0  0
    4.3145   -3.6712   -4.2516 C   0  0  0  0  0  0  0  0  0  0  0  0
    5.3550   -3.3768   -5.1309 C   0  0  0  0  0  0  0  0  0  0  0  0
    5.9310   -4.3707   -5.8926 C   0  0  0  0  0  0  0  0  0  0  0  0
    5.4834   -5.6899   -5.8286 C   0  0  0  0  0  0  0  0  0  0  0  0
    6.3011   -6.8726   -6.8565 S   0  0  0  0  0  0  0  0  0  0  0  0
    6.3372   -8.4056   -5.8535 C   0  0  0  0  0  0  0  0  0  0  0  0
    7.0278   -8.2058   -4.5199 C   0  0  0  0  0  0  0  0  0  0  0  0
    4.4016   -5.9553   -4.9939 C   0  0  0  0  0  0  0  0  0  0  0  0
    3.8349   -4.9767   -4.2036 C   0  0  0  0  0  0  0  0  0  0  0  0
    3.8632   -7.1933   -4.9235 F   0  0  0  0  0  0  0  0  0  0  0  0
    3.2986   -1.4174   -3.8596 C   0  0  0  0  0  0  0  0  0  0  0  0
    3.2561   -0.9328   -5.5396 S   0  0  0  0  0  0  0  0  0  0  0  0
    3.9793   -4.0083   -1.2555 C   0  0  0  0  0  0  0  0  0  0  0  0
    3.6570   -3.9347    0.0680 C   0  0  0  0  0  0  0  0  0  0  0  0
    2.8586   -2.4300    0.4743 S   0  0  0  0  0  0  0  0  0  0  0  0
    3.8841   -4.9195    1.0771 C   0  0  0  0  0  0  0  0  0  0  0  0
    4.5305   -6.1138    0.9505 C   0  0  0  0  0  0  0  0  0  0  0  0
    4.5763   -6.8642    2.1538 C   0  0  0  0  0  0  0  0  0  0  0  0
    5.1748   -8.1143    2.3783 C   0  0  0  0  0  0  0  0  0  0  0  0
    5.9217   -8.7940    1.3123 C   0  0  0  0  0  0  0  0  0  0  0  0
    6.9228   -8.1236    0.6138 C   0  0  0  0  0  0  0  0  0  0  0  0
    7.6252   -8.7433   -0.4010 C   0  0  0  0  0  0  0  0  0  0  0  0
    7.3535  -10.0608   -0.7513 C   0  0  0  0  0  0  0  0  0  0  0  0
    8.1507  -10.9465   -2.0518 S   0  0  0  0  0  0  0  0  0  0  0  0
    9.7313  -10.0583   -2.2816 C   0  0  0  0  0  0  0  0  0  0  0  0
   10.6471  -10.2009   -1.0818 C   0  0  0  0  0  0  0  0  0  0  0  0
    6.3480  -10.7209   -0.0433 C   0  0  0  0  0  0  0  0  0  0  0  0
    6.0503  -11.9942   -0.3644 F   0  0  0  0  0  0  0  0  0  0  0  0
    5.6423  -10.1152    0.9728 C   0  0  0  0  0  0  0  0  0  0  0  0
    5.0397   -8.6501    3.6515 C   0  0  0  0  0  0  0  0  0  0  0  0
    4.3720   -7.9821    4.7080 C   0  0  0  0  0  0  0  0  0  0  0  0
    3.7876   -6.7302    4.4861 C   0  0  0  0  0  0  0  0  0  0  0  0
    3.1219   -5.9491    5.5396 C   0  0  0  0  0  0  0  0  0  0  0  0
    3.8085   -5.5807    6.6934 C   0  0  0  0  0  0  0  0  0  0  0  0
    3.2229   -4.7306    7.6109 C   0  0  0  0  0  0  0  0  0  0  0  0
    1.9423   -4.2407    7.4031 C   0  0  0  0  0  0  0  0  0  0  0  0
    1.2536   -3.0386    8.5254 S   0  0  0  0  0  0  0  0  0  0  0  0
    2.0185   -1.5511    7.7807 C   0  0  0  0  0  0  0  0  0  0  0  0
    1.4270   -1.2181    6.4256 C   0  0  0  0  0  0  0  0  0  0  0  0
    1.2417   -4.6611    6.2808 C   0  0  0  0  0  0  0  0  0  0  0  0
    1.8207   -5.4976    5.3464 C   0  0  0  0  0  0  0  0  0  0  0  0
   -0.0121   -4.2282    6.0681 F   0  0  0  0  0  0  0  0  0  0  0  0
    3.8958   -6.2074    3.2070 C   0  0  0  0  0  0  0  0  0  0  0  0
    3.2758   -4.6604    2.6986 S   0  0  0  0  0  0  0  0  0  0  0  0
    4.3930   -8.7454    5.9129 C   0  0  0  0  0  0  0  0  0  0  0  0
    5.0554   -9.9120    5.7807 C   0  0  0  0  0  0  0  0  0  0  0  0
    5.6939  -10.1742    4.1933 S   0  0  0  0  0  0  0  0  0  0  0  0
    0.8029    0.0049   11.8580 H   0  0  0  0  0  0  0  0  0  0  0  0
    1.1401    1.8007   10.0064 H   0  0  0  0  0  0  0  0  0  0  0  0
    2.1409    1.5751    7.8080 H   0  0  0  0  0  0  0  0  0  0  0  0
    3.6395    3.4487    7.2912 H   0  0  0  0  0  0  0  0  0  0  0  0
    3.3104    8.3326    6.6612 H   0  0  0  0  0  0  0  0  0  0  0  0
    1.6494    7.8150    6.3189 H   0  0  0  0  0  0  0  0  0  0  0  0
    3.1588    7.3194    8.9461 H   0  0  0  0  0  0  0  0  0  0  0  0
    1.4908    6.8330    8.6241 H   0  0  0  0  0  0  0  0  0  0  0  0
    1.9056    8.5462    8.7134 H   0  0  0  0  0  0  0  0  0  0  0  0
   -1.2198    4.0560    6.8536 H   0  0  0  0  0  0  0  0  0  0  0  0
   -4.9549   -0.8071    8.2708 H   0  0  0  0  0  0  0  0  0  0  0  0
   -6.3794   -2.7194    8.7356 H   0  0  0  0  0  0  0  0  0  0  0  0
   -7.9600   -6.0095    9.2450 H   0  0  0  0  0  0  0  0  0  0  0  0
   -7.6877   -4.2674    9.3773 H   0  0  0  0  0  0  0  0  0  0  0  0
   -8.6037   -4.8483    7.1122 H   0  0  0  0  0  0  0  0  0  0  0  0
   -6.9455   -4.2577    6.9423 H   0  0  0  0  0  0  0  0  0  0  0  0
   -7.2748   -5.9881    6.8659 H   0  0  0  0  0  0  0  0  0  0  0  0
   -1.4788   -3.2796    8.6766 H   0  0  0  0  0  0  0  0  0  0  0  0
   -4.0841   -0.8985    5.9591 H   0  0  0  0  0  0  0  0  0  0  0  0
   -2.8779    2.5422    2.9549 H   0  0  0  0  0  0  0  0  0  0  0  0
   -7.2065    0.1338    2.6617 H   0  0  0  0  0  0  0  0  0  0  0  0
   -5.6553   -0.3320    4.5013 H   0  0  0  0  0  0  0  0  0  0  0  0
   -2.4385    2.9365    0.3777 H   0  0  0  0  0  0  0  0  0  0  0  0
   -3.5082    1.8700   -0.5408 H   0  0  0  0  0  0  0  0  0  0  0  0
   -3.3162    3.5573   -1.0264 H   0  0  0  0  0  0  0  0  0  0  0  0
   -3.4136    4.7727    1.8125 H   0  0  0  0  0  0  0  0  0  0  0  0
   -5.1667    4.9820    1.9195 H   0  0  0  0  0  0  0  0  0  0  0  0
   -4.3150    5.4093    0.4312 H   0  0  0  0  0  0  0  0  0  0  0  0
   -5.6914    4.5045   -1.6078 H   0  0  0  0  0  0  0  0  0  0  0  0
   -9.2234    2.1034   -1.5561 H   0  0  0  0  0  0  0  0  0  0  0  0
   -8.4845    1.0120    0.5304 H   0  0  0  0  0  0  0  0  0  0  0  0
   -7.8909    2.0408   -3.9827 H   0  0  0  0  0  0  0  0  0  0  0  0
   -7.5549    6.9550   -4.6055 H   0  0  0  0  0  0  0  0  0  0  0  0
   -7.7828    5.9841   -2.3486 H   0  0  0  0  0  0  0  0  0  0  0  0
   -9.2533    3.5254   -7.5596 H   0  0  0  0  0  0  0  0  0  0  0  0
   -8.4690    2.1819   -8.3991 H   0  0  0  0  0  0  0  0  0  0  0  0
   -9.2685    1.9092   -6.8442 H   0  0  0  0  0  0  0  0  0  0  0  0
   -7.1148    0.9217   -5.9108 H   0  0  0  0  0  0  0  0  0  0  0  0
   -5.6154    1.8548   -5.9891 H   0  0  0  0  0  0  0  0  0  0  0  0
   -6.3294    1.1855   -7.4632 H   0  0  0  0  0  0  0  0  0  0  0  0
   -5.3261    2.8793   -8.7399 H   0  0  0  0  0  0  0  0  0  0  0  0
   -4.5891    7.0864   -8.5346 H   0  0  0  0  0  0  0  0  0  0  0  0
   -6.4606    7.3707   -6.9608 H   0  0  0  0  0  0  0  0  0  0  0  0
   -2.5595    6.0604   -7.4950 H   0  0  0  0  0  0  0  0  0  0  0  0
   -2.2453    4.9989   -5.2853 H   0  0  0  0  0  0  0  0  0  0  0  0
   -2.1769    6.4640   -3.3393 H   0  0  0  0  0  0  0  0  0  0  0  0
   -0.9427    7.9385   -0.1386 H   0  0  0  0  0  0  0  0  0  0  0  0
   -2.0709    7.3068   -1.3458 H   0  0  0  0  0  0  0  0  0  0  0  0
   -1.0982    5.4561    0.0691 H   0  0  0  0  0  0  0  0  0  0  0  0
    0.5240    5.9410   -0.4340 H   0  0  0  0  0  0  0  0  0  0  0  0
   -0.6013    5.2720   -1.6165 H   0  0  0  0  0  0  0  0  0  0  0  0
    1.7309    6.1997   -6.3320 H   0  0  0  0  0  0  0  0  0  0  0  0
   -2.4582    0.6130   -9.5366 H   0  0  0  0  0  0  0  0  0  0  0  0
   -2.3774   -1.3116  -11.0571 H   0  0  0  0  0  0  0  0  0  0  0  0
    1.0826   -4.3080  -12.8983 H   0  0  0  0  0  0  0  0  0  0  0  0
    2.0151   -2.8279  -12.6106 H   0  0  0  0  0  0  0  0  0  0  0  0
    2.2207   -4.4295  -10.6806 H   0  0  0  0  0  0  0  0  0  0  0  0
    0.4639   -4.3950  -10.4743 H   0  0  0  0  0  0  0  0  0  0  0  0
    1.4212   -2.9415  -10.1723 H   0  0  0  0  0  0  0  0  0  0  0  0
    1.7246    1.2568  -10.1966 H   0  0  0  0  0  0  0  0  0  0  0  0
    1.4655    0.2608   -7.7667 H   0  0  0  0  0  0  0  0  0  0  0  0
    1.8066    1.5499   -3.3267 H   0  0  0  0  0  0  0  0  0  0  0  0
    0.3920   -1.0775   -0.0875 H   0  0  0  0  0  0  0  0  0  0  0  0
   -0.7331    0.5459    1.3795 H   0  0  0  0  0  0  0  0  0  0  0  0
    1.8104    4.3698    2.4420 H   0  0  0  0  0  0  0  0  0  0  0  0
    0.5979    4.5519    3.7244 H   0  0  0  0  0  0  0  0  0  0  0  0
    2.1200    1.9569    3.1210 H   0  0  0  0  0  0  0  0  0  0  0  0
    2.4712    3.0494    4.4660 H   0  0  0  0  0  0  0  0  0  0  0  0
    0.9298    2.1846    4.4096 H   0  0  0  0  0  0  0  0  0  0  0  0
    3.1714    1.9610   -1.2725 H   0  0  0  0  0  0  0  0  0  0  0  0
    5.7360   -2.3692   -5.1900 H   0  0  0  0  0  0  0  0  0  0  0  0
    6.7532   -4.1441   -6.5532 H   0  0  0  0  0  0  0  0  0  0  0  0
    6.8970   -9.0972   -6.4829 H   0  0  0  0  0  0  0  0  0  0  0  0
    5.3227   -8.7784   -5.7344 H   0  0  0  0  0  0  0  0  0  0  0  0
    6.4712   -7.5123   -3.8917 H   0  0  0  0  0  0  0  0  0  0  0  0
    7.0932   -9.1608   -4.0021 H   0  0  0  0  0  0  0  0  0  0  0  0
    8.0315   -7.8110   -4.6671 H   0  0  0  0  0  0  0  0  0  0  0  0
    2.9952   -5.2379   -3.5778 H   0  0  0  0  0  0  0  0  0  0  0  0
    4.4938   -4.8463   -1.6873 H   0  0  0  0  0  0  0  0  0  0  0  0
    4.9524   -6.4609    0.0256 H   0  0  0  0  0  0  0  0  0  0  0  0
    7.1675   -7.1063    0.8807 H   0  0  0  0  0  0  0  0  0  0  0  0
    8.3856   -8.1864   -0.9247 H   0  0  0  0  0  0  0  0  0  0  0  0
    9.5203   -9.0174   -2.5231 H   0  0  0  0  0  0  0  0  0  0  0  0
   10.1630  -10.5370   -3.1605 H   0  0  0  0  0  0  0  0  0  0  0  0
   11.5922   -9.6973   -1.2757 H   0  0  0  0  0  0  0  0  0  0  0  0
   10.1964   -9.7643   -0.1927 H   0  0  0  0  0  0  0  0  0  0  0  0
   10.8466  -11.2515   -0.8846 H   0  0  0  0  0  0  0  0  0  0  0  0
    4.8694  -10.6715    1.4789 H   0  0  0  0  0  0  0  0  0  0  0  0
    4.8163   -5.9344    6.8501 H   0  0  0  0  0  0  0  0  0  0  0  0
    3.7615   -4.4225    8.4942 H   0  0  0  0  0  0  0  0  0  0  0  0
    1.8219   -0.7622    8.5056 H   0  0  0  0  0  0  0  0  0  0  0  0
    3.0930   -1.7283    7.7214 H   0  0  0  0  0  0  0  0  0  0  0  0
    1.8260   -0.2713    6.0651 H   0  0  0  0  0  0  0  0  0  0  0  0
    1.6691   -1.9891    5.6964 H   0  0  0  0  0  0  0  0  0  0  0  0
    0.3446   -1.1357    6.4957 H   0  0  0  0  0  0  0  0  0  0  0  0
    1.2534   -5.7875    4.4758 H   0  0  0  0  0  0  0  0  0  0  0  0
    3.9199   -8.4214    6.8222 H   0  0  0  0  0  0  0  0  0  0  0  0
    5.2167  -10.6666    6.5256 H   0  0  0  0  0  0  0  0  0  0  0  0
  1  2  2  0  0  0  0
  2  3  1  0  0  0  0
  3  4  2  0  0  0  0
  4  5  1  0  0  0  0
  5  6  2  0  0  0  0
  6  7  1  0  0  0  0
  7  8  2  0  0  0  0
  8  9  1  0  0  0  0
  9 10  1  0  0  0  0
 10 11  1  0  0  0  0
  8 12  1  0  0  0  0
 12 13  1  0  0  0  0
 12 14  2  0  0  0  0
  4 15  1  0  0  0  0
 15 16  2  0  0  0  0
 16 17  1  0  0  0  0
 17 18  1  0  0  0  0
 18 19  2  0  0  0  0
 19 20  1  0  0  0  0
 20 21  2  0  0  0  0
 21 22  1  0  0  0  0
 22 23  1  0  0  0  0
 23 24  1  0  0  0  0
 21 25  1  0  0  0  0
 25 26  2  0  0  0  0
 25 27  1  0  0  0  0
 17 28  2  0  0  0  0
 28 29  1  0  0  0  0
 16 30  1  0  0  0  0
 30 31  2  0  0  0  0
 31 32  1  0  0  0  0
 31 33  1  0  0  0  0
 33 34  2  0  0  0  0
 34 35  1  0  0  0  0
 35 36  2  0  0  0  0
 36 37  1  0  0  0  0
 37 38  2  0  0  0  0
 36 39  1  0  0  0  0
 39 40  2  0  0  0  0
 40 41  1  0  0  0  0
 41 42  1  0  0  0  0
 41 43  1  0  0  0  0
 40 44  1  0  0  0  0
 44 45  2  0  0  0  0
 45 46  1  0  0  0  0
 46 47  2  0  0  0  0
 45 48  1  0  0  0  0
 48 49  2  0  0  0  0
 49 50  1  0  0  0  0
 50 51  2  0  0  0  0
 51 52  1  0  0  0  0
 52 53  2  0  0  0  0
 51 54  1  0  0  0  0
 54 55  2  0  0  0  0
 55 56  1  0  0  0  0
 56 57  1  0  0  0  0
 56 58  1  0  0  0  0
 55 59  1  0  0  0  0
 59 60  2  0  0  0  0
 60 61  1  0  0  0  0
 61 62  2  0  0  0  0
 60 63  1  0  0  0  0
 63 64  2  0  0  0  0
 64 65  1  0  0  0  0
 65 66  2  0  0  0  0
 66 67  1  0  0  0  0
 67 68  2  0  0  0  0
 68 69  1  0  0  0  0
 69 70  2  0  0  0  0
 70 71  1  0  0  0  0
 71 72  1  0  0  0  0
 72 73  1  0  0  0  0
 70 74  1  0  0  0  0
 74 75  1  0  0  0  0
 74 76  2  0  0  0  0
 66 77  1  0  0  0  0
 77 78  2  0  0  0  0
 78 79  1  0  0  0  0
 79 80  1  0  0  0  0
 80 81  2  0  0  0  0
 81 82  1  0  0  0  0
 82 83  2  0  0  0  0
 83 84  1  0  0  0  0
 84 85  1  0  0  0  0
 85 86  1  0  0  0  0
 83 87  1  0  0  0  0
 87 88  2  0  0  0  0
 87 89  1  0  0  0  0
 79 90  2  0  0  0  0
 90 91  1  0  0  0  0
 78 92  1  0  0  0  0
 92 93  2  0  0  0  0
 93 94  1  0  0  0  0
 93 95  1  0  0  0  0
 95 96  2  0  0  0  0
 96 97  1  0  0  0  0
 97 98  2  0  0  0  0
 98 99  1  0  0  0  0
 99100  2  0  0  0  0
100101  1  0  0  0  0
101102  2  0  0  0  0
102103  1  0  0  0  0
103104  1  0  0  0  0
104105  1  0  0  0  0
102106  1  0  0  0  0
106107  1  0  0  0  0
106108  2  0  0  0  0
 98109  1  0  0  0  0
109110  2  0  0  0  0
110111  1  0  0  0  0
111112  1  0  0  0  0
112113  2  0  0  0  0
113114  1  0  0  0  0
114115  2  0  0  0  0
115116  1  0  0  0  0
116117  1  0  0  0  0
117118  1  0  0  0  0
115119  1  0  0  0  0
119120  2  0  0  0  0
119121  1  0  0  0  0
111122  2  0  0  0  0
122123  1  0  0  0  0
110124  1  0  0  0  0
124125  2  0  0  0  0
125126  1  0  0  0  0
125127  1  0  0  0  0
127128  2  0  0  0  0
128129  1  0  0  0  0
129130  2  0  0  0  0
130131  1  0  0  0  0
131132  2  0  0  0  0
132133  1  0  0  0  0
133134  2  0  0  0  0
134135  1  0  0  0  0
135136  1  0  0  0  0
136137  1  0  0  0  0
134138  1  0  0  0  0
138139  1  0  0  0  0
138140  2  0  0  0  0
130141  1  0  0  0  0
141142  2  0  0  0  0
142143  1  0  0  0  0
143144  1  0  0  0  0
144145  2  0  0  0  0
145146  1  0  0  0  0
146147  2  0  0  0  0
147148  1  0  0  0  0
148149  1  0  0  0  0
149150  1  0  0  0  0
147151  1  0  0  0  0
151152  2  0  0  0  0
151153  1  0  0  0  0
143154  2  0  0  0  0
154155  1  0  0  0  0
142156  1  0  0  0  0
156157  2  0  0  0  0
157158  1  0  0  0  0
 29  1  1  0  0  0  0
 38 33  1  0  0  0  0
 47 39  1  0  0  0  0
 53 48  1  0  0  0  0
 62 54  1  0  0  0  0
 91 63  1  0  0  0  0
123 95  1  0  0  0  0
155127  1  0  0  0  0
 28  3  1  0  0  0  0
 41 35  1  0  0  0  0
 56 50  1  0  0  0  0
 90 65  1  0  0  0  0
122 97  1  0  0  0  0
154129  1  0  0  0  0
 14  5  1  0  0  0  0
 32 15  1  0  0  0  0
 76 67  1  0  0  0  0
 94 77  1  0  0  0  0
108 99  1  0  0  0  0
126109  1  0  0  0  0
140131  1  0  0  0  0
158141  1  0  0  0  0
 26 18  1  0  0  0  0
 88 80  1  0  0  0  0
120112  1  0  0  0  0
152144  1  0  0  0  0
  1159  1  0  0  0  0
  2160  1  0  0  0  0
  6161  1  0  0  0  0
  7162  1  0  0  0  0
 10163  1  0  0  0  0
 10164  1  0  0  0  0
 11165  1  0  0  0  0
 11166  1  0  0  0  0
 11167  1  0  0  0  0
 14168  1  0  0  0  0
 19169  1  0  0  0  0
 20170  1  0  0  0  0
 23171  1  0  0  0  0
 23172  1  0  0  0  0
 24173  1  0  0  0  0
 24174  1  0  0  0  0
 24175  1  0  0  0  0
 26176  1  0  0  0  0
 30177  1  0  0  0  0
 34178  1  0  0  0  0
 37179  1  0  0  0  0
 38180  1  0  0  0  0
 42181  1  0  0  0  0
 42182  1  0  0  0  0
 42183  1  0  0  0  0
 43184  1  0  0  0  0
 43185  1  0  0  0  0
 43186  1  0  0  0  0
 44187  1  0  0  0  0
 46188  1  0  0  0  0
 47189  1  0  0  0  0
 49190  1  0  0  0  0
 52191  1  0  0  0  0
 53192  1  0  0  0  0
 57193  1  0  0  0  0
 57194  1  0  0  0  0
 57195  1  0  0  0  0
 58196  1  0  0  0  0
 58197  1  0  0  0  0
 58198  1  0  0  0  0
 59199  1  0  0  0  0
 61200  1  0  0  0  0
 62201  1  0  0  0  0
 64202  1  0  0  0  0
 68203  1  0  0  0  0
 69204  1  0  0  0  0
 72205  1  0  0  0  0
 72206  1  0  0  0  0
 73207  1  0  0  0  0
 73208  1  0  0  0  0
 73209  1  0  0  0  0
 76210  1  0  0  0  0
 81211  1  0  0  0  0
 82212  1  0  0  0  0
 85213  1  0  0  0  0
 85214  1  0  0  0  0
 86215  1  0  0  0  0
 86216  1  0  0  0  0
 86217  1  0  0  0  0
 88218  1  0  0  0  0
 92219  1  0  0  0  0
 96220  1  0  0  0  0
100221  1  0  0  0  0
101222  1  0  0  0  0
104223  1  0  0  0  0
104224  1  0  0  0  0
105225  1  0  0  0  0
105226  1  0  0  0  0
105227  1  0  0  0  0
108228  1  0  0  0  0
113229  1  0  0  0  0
114230  1  0  0  0  0
117231  1  0  0  0  0
117232  1  0  0  0  0
118233  1  0  0  0  0
118234  1  0  0  0  0
118235  1  0  0  0  0
120236  1  0  0  0  0
124237  1  0  0  0  0
128238  1  0  0  0  0
132239  1  0  0  0  0
133240  1  0  0  0  0
136241  1  0  0  0  0
136242  1  0  0  0  0
137243  1  0  0  0  0
137244  1  0  0  0  0
137245  1  0  0  0  0
140246  1  0  0  0  0
145247  1  0  0  0  0
146248  1  0  0  0  0
149249  1  0  0  0  0
149250  1  0  0  0  0
150251  1  0  0  0  0
150252  1  0  0  0  0
150253  1  0  0  0  0
152254  1  0  0  0  0
156255  1  0  0  0  0
157256  1  0  0  0  0
M  END
