
  xtb     02282222503D
 energy: -369.289399338934 gnorm: 0.000184571552 xtb: 6.4.1 (unknown)
209232  0     0  0            999 V2000
    1.5430   -9.5643    8.6232 C   0  0  0  0  0  0  0  0  0  0  0  0
    1.1869   -8.3073    8.9567 C   0  0  0  0  0  0  0  0  0  0  0  0
    0.7847   -7.5298    7.8317 C   0  0  0  0  0  0  0  0  0  0  0  0
    0.3097   -6.2088    7.8109 C   0  0  0  0  0  0  0  0  0  0  0  0
    0.2616   -5.3868    9.0096 C   0  0  0  0  0  0  0  0  0  0  0  0
    1.6872   -5.1661    9.9853 S   0  0  0  0  0  0  0  0  0  0  0  0
    0.8924   -4.0454   11.0390 C   0  0  0  0  0  0  0  0  0  0  0  0
    1.6290   -3.3934   12.1560 C   0  0  0  0  0  0  0  0  0  0  0  0
    2.7269   -2.4688   11.6280 C   0  0  0  0  0  0  0  0  0  0  0  0
   -0.3997   -3.8677   10.6473 C   0  0  0  0  0  0  0  0  0  0  0  0
   -1.5098   -2.8257   11.4368 Cl  0  0  0  0  0  0  0  0  0  0  0  0
   -0.7618   -4.6250    9.4992 C   0  0  0  0  0  0  0  0  0  0  0  0
   -2.3533   -4.6167    8.8664 Cl  0  0  0  0  0  0  0  0  0  0  0  0
   -0.0529   -5.6896    6.5738 C   0  0  0  0  0  0  0  0  0  0  0  0
    0.0620   -6.4193    5.3649 C   0  0  0  0  0  0  0  0  0  0  0  0
    0.4967   -7.7547    5.3927 C   0  0  0  0  0  0  0  0  0  0  0  0
    0.5464   -8.5478    4.1774 C   0  0  0  0  0  0  0  0  0  0  0  0
    1.9694   -9.4356    3.7195 S   0  0  0  0  0  0  0  0  0  0  0  0
    1.2244  -10.0409    2.2806 C   0  0  0  0  0  0  0  0  0  0  0  0
    1.9736  -10.8970    1.3201 C   0  0  0  0  0  0  0  0  0  0  0  0
    2.6950  -10.0431    0.2744 C   0  0  0  0  0  0  0  0  0  0  0  0
   -0.0503   -9.5699    2.1724 C   0  0  0  0  0  0  0  0  0  0  0  0
   -0.4411   -8.7278    3.2470 C   0  0  0  0  0  0  0  0  0  0  0  0
   -2.0269   -8.0842    3.3824 Cl  0  0  0  0  0  0  0  0  0  0  0  0
   -1.1034   -9.9550    0.8737 Cl  0  0  0  0  0  0  0  0  0  0  0  0
    0.8584   -8.2737    6.6309 C   0  0  0  0  0  0  0  0  0  0  0  0
    1.4165   -9.8958    6.9303 S   0  0  0  0  0  0  0  0  0  0  0  0
   -0.2519   -5.6215    4.2363 C   0  0  0  0  0  0  0  0  0  0  0  0
   -0.6206   -4.3501    4.5576 C   0  0  0  0  0  0  0  0  0  0  0  0
   -0.6024   -4.0668    6.2820 S   0  0  0  0  0  0  0  0  0  0  0  0
   -1.0371   -3.3024    3.6884 C   0  0  0  0  0  0  0  0  0  0  0  0
   -1.3831   -2.0335    4.0444 C   0  0  0  0  0  0  0  0  0  0  0  0
   -1.8034   -1.2315    2.9557 C   0  0  0  0  0  0  0  0  0  0  0  0
   -2.2472    0.1086    2.9891 C   0  0  0  0  0  0  0  0  0  0  0  0
   -2.5986    0.6904    4.2715 C   0  0  0  0  0  0  0  0  0  0  0  0
   -3.5020   -0.3047    5.3917 S   0  0  0  0  0  0  0  0  0  0  0  0
   -3.5792    0.9421    6.5856 C   0  0  0  0  0  0  0  0  0  0  0  0
   -4.1731    0.6783    7.9245 C   0  0  0  0  0  0  0  0  0  0  0  0
   -3.2889   -0.2768    8.7306 C   0  0  0  0  0  0  0  0  0  0  0  0
   -2.9611    2.0646    6.1247 C   0  0  0  0  0  0  0  0  0  0  0  0
   -2.8071    3.5185    7.0256 Cl  0  0  0  0  0  0  0  0  0  0  0  0
   -2.4169    1.9307    4.8174 C   0  0  0  0  0  0  0  0  0  0  0  0
   -1.5341    3.2011    4.1025 Cl  0  0  0  0  0  0  0  0  0  0  0  0
   -2.4351    0.7252    1.7528 C   0  0  0  0  0  0  0  0  0  0  0  0
   -2.3852    0.0000    0.5340 C   0  0  0  0  0  0  0  0  0  0  0  0
   -2.0812   -1.3720    0.5181 C   0  0  0  0  0  0  0  0  0  0  0  0
   -2.1285   -2.1584   -0.7008 C   0  0  0  0  0  0  0  0  0  0  0  0
   -0.8286   -3.2298   -1.1277 S   0  0  0  0  0  0  0  0  0  0  0  0
   -1.6160   -3.7411   -2.5787 C   0  0  0  0  0  0  0  0  0  0  0  0
   -0.9560   -4.6991   -3.5090 C   0  0  0  0  0  0  0  0  0  0  0  0
   -0.4192   -5.9250   -2.7745 C   0  0  0  0  0  0  0  0  0  0  0  0
   -2.8290   -3.1305   -2.6984 C   0  0  0  0  0  0  0  0  0  0  0  0
   -3.1221   -2.2318   -1.6389 C   0  0  0  0  0  0  0  0  0  0  0  0
   -4.6242   -1.4063   -1.5333 Cl  0  0  0  0  0  0  0  0  0  0  0  0
   -3.9190   -3.3986   -3.9995 Cl  0  0  0  0  0  0  0  0  0  0  0  0
   -1.7238   -1.9385    1.7337 C   0  0  0  0  0  0  0  0  0  0  0  0
   -1.1989   -3.5799    1.9697 S   0  0  0  0  0  0  0  0  0  0  0  0
   -2.6385    0.8293   -0.5849 C   0  0  0  0  0  0  0  0  0  0  0  0
   -2.8457    2.1376   -0.2746 C   0  0  0  0  0  0  0  0  0  0  0  0
   -2.7833    2.4067    1.4513 S   0  0  0  0  0  0  0  0  0  0  0  0
   -2.9682    3.2052   -1.2485 C   0  0  0  0  0  0  0  0  0  0  0  0
   -3.5588    2.9252   -2.4897 C   0  0  0  0  0  0  0  0  0  0  0  0
   -3.4384    3.8333   -3.5093 C   0  0  0  0  0  0  0  0  0  0  0  0
   -2.7264    5.0350   -3.3261 C   0  0  0  0  0  0  0  0  0  0  0  0
   -2.2580    5.3716   -2.0641 C   0  0  0  0  0  0  0  0  0  0  0  0
   -2.3879    4.4563   -1.0338 C   0  0  0  0  0  0  0  0  0  0  0  0
   -2.4774    5.6145   -4.6355 C   0  0  0  0  0  0  0  0  0  0  0  0
   -3.0391    4.7610   -5.6007 C   0  0  0  0  0  0  0  0  0  0  0  0
   -3.9149    3.7208   -4.9398 C   0  0  0  0  0  0  0  0  0  0  0  0
   -3.7688    2.3255   -5.5370 C   0  0  0  0  0  0  0  0  0  0  0  0
   -5.3842    4.1694   -5.0105 C   0  0  0  0  0  0  0  0  0  0  0  0
   -2.6573    4.8361   -6.9137 C   0  0  0  0  0  0  0  0  0  0  0  0
   -1.6794    5.7623   -7.3147 C   0  0  0  0  0  0  0  0  0  0  0  0
   -1.2899    6.7330   -6.3834 C   0  0  0  0  0  0  0  0  0  0  0  0
   -1.6743    6.6660   -5.0549 C   0  0  0  0  0  0  0  0  0  0  0  0
   -0.8905    5.4410   -8.5124 C   0  0  0  0  0  0  0  0  0  0  0  0
   -1.3483    4.4631   -9.4150 C   0  0  0  0  0  0  0  0  0  0  0  0
   -0.4421    3.6410  -10.0330 C   0  0  0  0  0  0  0  0  0  0  0  0
    0.9419    3.8447   -9.8719 C   0  0  0  0  0  0  0  0  0  0  0  0
    1.3860    5.0038   -9.2503 C   0  0  0  0  0  0  0  0  0  0  0  0
    0.4696    5.7713   -8.5542 C   0  0  0  0  0  0  0  0  0  0  0  0
    1.6036    2.5599  -10.0167 C   0  0  0  0  0  0  0  0  0  0  0  0
    0.5971    1.5909  -10.2099 C   0  0  0  0  0  0  0  0  0  0  0  0
   -0.6892    2.2725  -10.6416 C   0  0  0  0  0  0  0  0  0  0  0  0
   -1.9501    1.5936  -10.1173 C   0  0  0  0  0  0  0  0  0  0  0  0
   -0.7402    2.3691  -12.1730 C   0  0  0  0  0  0  0  0  0  0  0  0
    0.7637    0.3215   -9.7195 C   0  0  0  0  0  0  0  0  0  0  0  0
    1.9337    0.0143   -9.0050 C   0  0  0  0  0  0  0  0  0  0  0  0
    3.0227    0.8835   -9.0942 C   0  0  0  0  0  0  0  0  0  0  0  0
    2.8689    2.1606   -9.6081 C   0  0  0  0  0  0  0  0  0  0  0  0
    1.8215   -0.8142   -7.7904 C   0  0  0  0  0  0  0  0  0  0  0  0
    0.7724   -0.3723   -6.9718 C   0  0  0  0  0  0  0  0  0  0  0  0
    0.7597   -0.6903   -5.6423 C   0  0  0  0  0  0  0  0  0  0  0  0
    1.7292   -1.5436   -5.0903 C   0  0  0  0  0  0  0  0  0  0  0  0
    2.6966   -2.0890   -5.9239 C   0  0  0  0  0  0  0  0  0  0  0  0
    2.7559   -1.6960   -7.2565 C   0  0  0  0  0  0  0  0  0  0  0  0
    1.5745   -1.5125   -3.6405 C   0  0  0  0  0  0  0  0  0  0  0  0
    0.5505   -0.5979   -3.3345 C   0  0  0  0  0  0  0  0  0  0  0  0
   -0.1256   -0.0890   -4.5811 C   0  0  0  0  0  0  0  0  0  0  0  0
   -1.5565   -0.6190   -4.7023 C   0  0  0  0  0  0  0  0  0  0  0  0
   -0.0982    1.4422   -4.6335 C   0  0  0  0  0  0  0  0  0  0  0  0
    0.3442   -0.1681   -2.0513 C   0  0  0  0  0  0  0  0  0  0  0  0
    1.1405   -0.6725   -1.0185 C   0  0  0  0  0  0  0  0  0  0  0  0
    2.0679   -1.6759   -1.3027 C   0  0  0  0  0  0  0  0  0  0  0  0
    2.2964   -2.0907   -2.6054 C   0  0  0  0  0  0  0  0  0  0  0  0
    1.0797   -0.0017    0.2655 C   0  0  0  0  0  0  0  0  0  0  0  0
    0.9152    1.3415    0.3999 C   0  0  0  0  0  0  0  0  0  0  0  0
    1.1013    1.8204    1.7204 C   0  0  0  0  0  0  0  0  0  0  0  0
    1.1481    3.1585    2.1524 C   0  0  0  0  0  0  0  0  0  0  0  0
    0.9939    4.2634    1.2200 C   0  0  0  0  0  0  0  0  0  0  0  0
    1.8621    4.2558   -0.2941 S   0  0  0  0  0  0  0  0  0  0  0  0
    1.2399    5.7988   -0.7671 C   0  0  0  0  0  0  0  0  0  0  0  0
    1.5888    6.4001   -2.0842 C   0  0  0  0  0  0  0  0  0  0  0  0
    1.3067    5.4355   -3.2357 C   0  0  0  0  0  0  0  0  0  0  0  0
    0.4220    6.2860    0.2057 C   0  0  0  0  0  0  0  0  0  0  0  0
   -0.3846    7.7998    0.1137 Cl  0  0  0  0  0  0  0  0  0  0  0  0
    0.2804    5.4266    1.3310 C   0  0  0  0  0  0  0  0  0  0  0  0
   -0.7789    5.8300    2.6157 Cl  0  0  0  0  0  0  0  0  0  0  0  0
    1.4540    3.3616    3.4954 C   0  0  0  0  0  0  0  0  0  0  0  0
    1.6340    2.2993    4.4144 C   0  0  0  0  0  0  0  0  0  0  0  0
    1.5127    0.9629    3.9914 C   0  0  0  0  0  0  0  0  0  0  0  0
    1.6211   -0.1301    4.9404 C   0  0  0  0  0  0  0  0  0  0  0  0
    2.6226   -1.5220    4.6417 S   0  0  0  0  0  0  0  0  0  0  0  0
    2.2414   -2.2306    6.1735 C   0  0  0  0  0  0  0  0  0  0  0  0
    2.8744   -3.4983    6.6292 C   0  0  0  0  0  0  0  0  0  0  0  0
    4.1450   -3.2171    7.4339 C   0  0  0  0  0  0  0  0  0  0  0  0
    1.3773   -1.4314    6.8602 C   0  0  0  0  0  0  0  0  0  0  0  0
    1.0156   -0.2497    6.1634 C   0  0  0  0  0  0  0  0  0  0  0  0
   -0.1367    0.8528    6.7990 Cl  0  0  0  0  0  0  0  0  0  0  0  0
    0.7588   -1.8009    8.4162 Cl  0  0  0  0  0  0  0  0  0  0  0  0
    1.3202    0.7580    2.6293 C   0  0  0  0  0  0  0  0  0  0  0  0
    1.3712   -0.7780    1.8035 S   0  0  0  0  0  0  0  0  0  0  0  0
    2.0363    2.7813    5.6947 C   0  0  0  0  0  0  0  0  0  0  0  0
    2.1432    4.1244    5.7418 C   0  0  0  0  0  0  0  0  0  0  0  0
    1.7606    4.9002    4.2476 S   0  0  0  0  0  0  0  0  0  0  0  0
    1.8793  -10.3477    9.2736 H   0  0  0  0  0  0  0  0  0  0  0  0
    1.1955   -7.9322    9.9634 H   0  0  0  0  0  0  0  0  0  0  0  0
    0.9155   -2.8226   12.7524 H   0  0  0  0  0  0  0  0  0  0  0  0
    2.0786   -4.1592   12.7930 H   0  0  0  0  0  0  0  0  0  0  0  0
    3.2408   -1.9874   12.4556 H   0  0  0  0  0  0  0  0  0  0  0  0
    3.4509   -3.0382   11.0492 H   0  0  0  0  0  0  0  0  0  0  0  0
    2.2974   -1.7014   10.9892 H   0  0  0  0  0  0  0  0  0  0  0  0
    2.7017  -11.4996    1.8650 H   0  0  0  0  0  0  0  0  0  0  0  0
    1.2683  -11.5644    0.8210 H   0  0  0  0  0  0  0  0  0  0  0  0
    1.9783   -9.4435   -0.2811 H   0  0  0  0  0  0  0  0  0  0  0  0
    3.2308  -10.6814   -0.4228 H   0  0  0  0  0  0  0  0  0  0  0  0
    3.4061   -9.3770    0.7569 H   0  0  0  0  0  0  0  0  0  0  0  0
   -0.1911   -5.9645    3.2197 H   0  0  0  0  0  0  0  0  0  0  0  0
   -1.3086   -1.6880    5.0591 H   0  0  0  0  0  0  0  0  0  0  0  0
   -5.1648    0.2362    7.8047 H   0  0  0  0  0  0  0  0  0  0  0  0
   -4.2759    1.6270    8.4539 H   0  0  0  0  0  0  0  0  0  0  0  0
   -3.1877   -1.2276    8.2117 H   0  0  0  0  0  0  0  0  0  0  0  0
   -3.7269   -0.4581    9.7084 H   0  0  0  0  0  0  0  0  0  0  0  0
   -2.2977    0.1486    8.8680 H   0  0  0  0  0  0  0  0  0  0  0  0
   -1.6800   -4.9996   -4.2688 H   0  0  0  0  0  0  0  0  0  0  0  0
   -0.1271   -4.1905   -4.0124 H   0  0  0  0  0  0  0  0  0  0  0  0
    0.3135   -5.6238   -2.0294 H   0  0  0  0  0  0  0  0  0  0  0  0
   -1.2272   -6.4504   -2.2715 H   0  0  0  0  0  0  0  0  0  0  0  0
    0.0544   -6.6053   -3.4773 H   0  0  0  0  0  0  0  0  0  0  0  0
   -2.6159    0.4645   -1.5945 H   0  0  0  0  0  0  0  0  0  0  0  0
   -4.0754    1.9883   -2.6341 H   0  0  0  0  0  0  0  0  0  0  0  0
   -1.7631    6.3146   -1.8912 H   0  0  0  0  0  0  0  0  0  0  0  0
   -1.9846    4.6816   -0.0577 H   0  0  0  0  0  0  0  0  0  0  0  0
   -4.3335    1.6016   -4.9545 H   0  0  0  0  0  0  0  0  0  0  0  0
   -4.1508    2.3081   -6.5552 H   0  0  0  0  0  0  0  0  0  0  0  0
   -2.7243    2.0293   -5.5482 H   0  0  0  0  0  0  0  0  0  0  0  0
   -6.0139    3.4735   -4.4607 H   0  0  0  0  0  0  0  0  0  0  0  0
   -5.4997    5.1605   -4.5772 H   0  0  0  0  0  0  0  0  0  0  0  0
   -5.7161    4.2018   -6.0459 H   0  0  0  0  0  0  0  0  0  0  0  0
   -3.0313    4.1032   -7.6093 H   0  0  0  0  0  0  0  0  0  0  0  0
   -0.6224    7.5254   -6.6878 H   0  0  0  0  0  0  0  0  0  0  0  0
   -1.2952    7.3880   -4.3466 H   0  0  0  0  0  0  0  0  0  0  0  0
   -2.4055    4.2767   -9.5227 H   0  0  0  0  0  0  0  0  0  0  0  0
    2.4397    5.2313   -9.1865 H   0  0  0  0  0  0  0  0  0  0  0  0
    0.8425    6.5714   -7.9334 H   0  0  0  0  0  0  0  0  0  0  0  0
   -1.9304    1.5381   -9.0305 H   0  0  0  0  0  0  0  0  0  0  0  0
   -2.8339    2.1485  -10.4241 H   0  0  0  0  0  0  0  0  0  0  0  0
   -2.0325    0.5863  -10.5191 H   0  0  0  0  0  0  0  0  0  0  0  0
   -1.6051    2.9522  -12.4828 H   0  0  0  0  0  0  0  0  0  0  0  0
    0.1581    2.8509  -12.5524 H   0  0  0  0  0  0  0  0  0  0  0  0
   -0.8133    1.3751  -12.6094 H   0  0  0  0  0  0  0  0  0  0  0  0
   -0.0446   -0.3948   -9.7369 H   0  0  0  0  0  0  0  0  0  0  0  0
    3.9503    0.6143   -8.6097 H   0  0  0  0  0  0  0  0  0  0  0  0
    3.6825    2.8679   -9.5474 H   0  0  0  0  0  0  0  0  0  0  0  0
    0.0462    0.3198   -7.3713 H   0  0  0  0  0  0  0  0  0  0  0  0
    3.4448   -2.7617   -5.5303 H   0  0  0  0  0  0  0  0  0  0  0  0
    3.5607   -2.0581   -7.8801 H   0  0  0  0  0  0  0  0  0  0  0  0
   -2.1730   -0.2443   -3.8889 H   0  0  0  0  0  0  0  0  0  0  0  0
   -1.5567   -1.7055   -4.6673 H   0  0  0  0  0  0  0  0  0  0  0  0
   -1.9951   -0.3056   -5.6465 H   0  0  0  0  0  0  0  0  0  0  0  0
    0.9158    1.8028   -4.4731 H   0  0  0  0  0  0  0  0  0  0  0  0
   -0.7416    1.8649   -3.8644 H   0  0  0  0  0  0  0  0  0  0  0  0
   -0.4337    1.8033   -5.6030 H   0  0  0  0  0  0  0  0  0  0  0  0
   -0.3996    0.5803   -1.8330 H   0  0  0  0  0  0  0  0  0  0  0  0
    2.6549   -2.0879   -0.4949 H   0  0  0  0  0  0  0  0  0  0  0  0
    3.0614   -2.8252   -2.8098 H   0  0  0  0  0  0  0  0  0  0  0  0
    0.7237    1.9842   -0.4382 H   0  0  0  0  0  0  0  0  0  0  0  0
    2.6488    6.6695   -2.0922 H   0  0  0  0  0  0  0  0  0  0  0  0
    1.0070    7.3153   -2.2063 H   0  0  0  0  0  0  0  0  0  0  0  0
    1.5336    5.9083   -4.1874 H   0  0  0  0  0  0  0  0  0  0  0  0
    0.2607    5.1387   -3.2392 H   0  0  0  0  0  0  0  0  0  0  0  0
    1.9187    4.5419   -3.1361 H   0  0  0  0  0  0  0  0  0  0  0  0
    2.1678   -4.0392    7.2606 H   0  0  0  0  0  0  0  0  0  0  0  0
    3.1142   -4.1170    5.7632 H   0  0  0  0  0  0  0  0  0  0  0  0
    4.8767   -2.6985    6.8194 H   0  0  0  0  0  0  0  0  0  0  0  0
    4.5762   -4.1513    7.7829 H   0  0  0  0  0  0  0  0  0  0  0  0
    3.9112   -2.5976    8.2959 H   0  0  0  0  0  0  0  0  0  0  0  0
    2.2683    2.1418    6.5260 H   0  0  0  0  0  0  0  0  0  0  0  0
    2.4307    4.7332    6.5766 H   0  0  0  0  0  0  0  0  0  0  0  0
  1  2  2  0  0  0  0
  2  3  1  0  0  0  0
  3  4  2  0  0  0  0
  4  5  1  0  0  0  0
  5  6  1  0  0  0  0
  6  7  1  0  0  0  0
  7  8  1  0  0  0  0
  8  9  1  0  0  0  0
  7 10  2  0  0  0  0
 10 11  1  0  0  0  0
 10 12  1  0  0  0  0
 12 13  1  0  0  0  0
  4 14  1  0  0  0  0
 14 15  2  0  0  0  0
 15 16  1  0  0  0  0
 16 17  1  0  0  0  0
 17 18  1  0  0  0  0
 18 19  1  0  0  0  0
 19 20  1  0  0  0  0
 20 21  1  0  0  0  0
 19 22  2  0  0  0  0
 22 23  1  0  0  0  0
 23 24  1  0  0  0  0
 22 25  1  0  0  0  0
 16 26  2  0  0  0  0
 26 27  1  0  0  0  0
 15 28  1  0  0  0  0
 28 29  2  0  0  0  0
 29 30  1  0  0  0  0
 29 31  1  0  0  0  0
 31 32  2  0  0  0  0
 32 33  1  0  0  0  0
 33 34  2  0  0  0  0
 34 35  1  0  0  0  0
 35 36  1  0  0  0  0
 36 37  1  0  0  0  0
 37 38  1  0  0  0  0
 38 39  1  0  0  0  0
 37 40  2  0  0  0  0
 40 41  1  0  0  0  0
 40 42  1  0  0  0  0
 42 43  1  0  0  0  0
 34 44  1  0  0  0  0
 44 45  2  0  0  0  0
 45 46  1  0  0  0  0
 46 47  1  0  0  0  0
 47 48  1  0  0  0  0
 48 49  1  0  0  0  0
 49 50  1  0  0  0  0
 50 51  1  0  0  0  0
 49 52  2  0  0  0  0
 52 53  1  0  0  0  0
 53 54  1  0  0  0  0
 52 55  1  0  0  0  0
 46 56  2  0  0  0  0
 56 57  1  0  0  0  0
 45 58  1  0  0  0  0
 58 59  2  0  0  0  0
 59 60  1  0  0  0  0
 59 61  1  0  0  0  0
 61 62  2  0  0  0  0
 62 63  1  0  0  0  0
 63 64  2  0  0  0  0
 64 65  1  0  0  0  0
 65 66  2  0  0  0  0
 64 67  1  0  0  0  0
 67 68  2  0  0  0  0
 68 69  1  0  0  0  0
 69 70  1  0  0  0  0
 69 71  1  0  0  0  0
 68 72  1  0  0  0  0
 72 73  2  0  0  0  0
 73 74  1  0  0  0  0
 74 75  2  0  0  0  0
 73 76  1  0  0  0  0
 76 77  2  0  0  0  0
 77 78  1  0  0  0  0
 78 79  2  0  0  0  0
 79 80  1  0  0  0  0
 80 81  2  0  0  0  0
 79 82  1  0  0  0  0
 82 83  2  0  0  0  0
 83 84  1  0  0  0  0
 84 85  1  0  0  0  0
 84 86  1  0  0  0  0
 83 87  1  0  0  0  0
 87 88  2  0  0  0  0
 88 89  1  0  0  0  0
 89 90  2  0  0  0  0
 88 91  1  0  0  0  0
 91 92  2  0  0  0  0
 92 93  1  0  0  0  0
 93 94  2  0  0  0  0
 94 95  1  0  0  0  0
 95 96  2  0  0  0  0
 94 97  1  0  0  0  0
 97 98  2  0  0  0  0
 98 99  1  0  0  0  0
 99100  1  0  0  0  0
 99101  1  0  0  0  0
 98102  1  0  0  0  0
102103  2  0  0  0  0
103104  1  0  0  0  0
104105  2  0  0  0  0
103106  1  0  0  0  0
106107  2  0  0  0  0
107108  1  0  0  0  0
108109  2  0  0  0  0
109110  1  0  0  0  0
110111  1  0  0  0  0
111112  1  0  0  0  0
112113  1  0  0  0  0
113114  1  0  0  0  0
112115  2  0  0  0  0
115116  1  0  0  0  0
115117  1  0  0  0  0
117118  1  0  0  0  0
109119  1  0  0  0  0
119120  2  0  0  0  0
120121  1  0  0  0  0
121122  1  0  0  0  0
122123  1  0  0  0  0
123124  1  0  0  0  0
124125  1  0  0  0  0
125126  1  0  0  0  0
124127  2  0  0  0  0
127128  1  0  0  0  0
128129  1  0  0  0  0
127130  1  0  0  0  0
121131  2  0  0  0  0
131132  1  0  0  0  0
120133  1  0  0  0  0
133134  2  0  0  0  0
134135  1  0  0  0  0
 27  1  1  0  0  0  0
 57 31  1  0  0  0  0
 66 61  1  0  0  0  0
 75 67  1  0  0  0  0
 81 76  1  0  0  0  0
 90 82  1  0  0  0  0
 96 91  1  0  0  0  0
105 97  1  0  0  0  0
132106  1  0  0  0  0
 26  3  1  0  0  0  0
 56 33  1  0  0  0  0
 69 63  1  0  0  0  0
 84 78  1  0  0  0  0
 99 93  1  0  0  0  0
131108  1  0  0  0  0
 12  5  2  0  0  0  0
 30 14  1  0  0  0  0
 42 35  2  0  0  0  0
 60 44  1  0  0  0  0
117110  2  0  0  0  0
135119  1  0  0  0  0
 23 17  2  0  0  0  0
 53 47  2  0  0  0  0
128122  2  0  0  0  0
  1136  1  0  0  0  0
  2137  1  0  0  0  0
  8138  1  0  0  0  0
  8139  1  0  0  0  0
  9140  1  0  0  0  0
  9141  1  0  0  0  0
  9142  1  0  0  0  0
 20143  1  0  0  0  0
 20144  1  0  0  0  0
 21145  1  0  0  0  0
 21146  1  0  0  0  0
 21147  1  0  0  0  0
 28148  1  0  0  0  0
 32149  1  0  0  0  0
 38150  1  0  0  0  0
 38151  1  0  0  0  0
 39152  1  0  0  0  0
 39153  1  0  0  0  0
 39154  1  0  0  0  0
 50155  1  0  0  0  0
 50156  1  0  0  0  0
 51157  1  0  0  0  0
 51158  1  0  0  0  0
 51159  1  0  0  0  0
 58160  1  0  0  0  0
 62161  1  0  0  0  0
 65162  1  0  0  0  0
 66163  1  0  0  0  0
 70164  1  0  0  0  0
 70165  1  0  0  0  0
 70166  1  0  0  0  0
 71167  1  0  0  0  0
 71168  1  0  0  0  0
 71169  1  0  0  0  0
 72170  1  0  0  0  0
 74171  1  0  0  0  0
 75172  1  0  0  0  0
 77173  1  0  0  0  0
 80174  1  0  0  0  0
 81175  1  0  0  0  0
 85176  1  0  0  0  0
 85177  1  0  0  0  0
 85178  1  0  0  0  0
 86179  1  0  0  0  0
 86180  1  0  0  0  0
 86181  1  0  0  0  0
 87182  1  0  0  0  0
 89183  1  0  0  0  0
 90184  1  0  0  0  0
 92185  1  0  0  0  0
 95186  1  0  0  0  0
 96187  1  0  0  0  0
100188  1  0  0  0  0
100189  1  0  0  0  0
100190  1  0  0  0  0
101191  1  0  0  0  0
101192  1  0  0  0  0
101193  1  0  0  0  0
102194  1  0  0  0  0
104195  1  0  0  0  0
105196  1  0  0  0  0
107197  1  0  0  0  0
113198  1  0  0  0  0
113199  1  0  0  0  0
114200  1  0  0  0  0
114201  1  0  0  0  0
114202  1  0  0  0  0
125203  1  0  0  0  0
125204  1  0  0  0  0
126205  1  0  0  0  0
126206  1  0  0  0  0
126207  1  0  0  0  0
133208  1  0  0  0  0
134209  1  0  0  0  0
M  END
