138

N          3.91600        2.04910       -1.36360
C          4.71170        1.02990       -0.72070
C          5.27580        0.08930       -1.77480
C          3.30060        3.03330       -0.62510
C          3.54970        3.39450        0.66350
S          2.56850        4.72950        1.16650
C          1.80510        4.79830       -0.37180
C          2.27900        3.85220       -1.22580
N          1.89130        3.64430       -2.55790
C          2.79100        4.15370       -3.57980
C          3.12290        3.11910       -4.65320
C          0.55020        3.48450       -2.89820
C         -0.44150        3.22550       -2.04280
N         -1.73800        2.80250       -2.37970
C         -2.04550        2.61960       -3.78790
C         -3.40790        1.96800       -3.98390
C         -2.77770        3.39070       -1.61290
C         -3.07270        4.71870       -1.66160
S         -4.43000        5.14150       -0.70580
C         -4.60310        3.50900       -0.19370
C         -3.66810        2.67180       -0.74160
N         -3.63390        1.32360       -0.43400
C         -2.38350        0.57800       -0.45000
C         -2.52990       -0.79510       -1.09510
C         -4.80330        0.72060       -0.02060
C         -4.90140       -0.17230        0.97830
C         -3.88260       -0.35310        1.98300
C         -3.23210       -1.44690        2.45400
C         -3.21720       -2.87660        2.14000
O         -3.81930       -3.50410        1.29750
N         -2.31780       -3.42360        3.04130
C         -2.01670       -4.83120        3.09730
C         -1.72510       -2.48670        3.89770
O         -0.89440       -2.78330        4.72920
C         -2.31370       -1.20980        3.52730
C         -2.26420        0.10770        3.92010
S         -3.36690        1.05850        2.92270
N         -1.52520        0.71060        4.87460
C         -1.91780        1.98510        5.43900
C         -3.12520        1.86010        6.36420
C         -0.38400        0.04550        5.35770
C         -0.19980       -0.40790        6.62630
S          1.28140       -1.25120        6.79290
C          1.68430       -0.96500        5.15190
C          0.72130       -0.25700        4.49820
N          0.77160        0.16830        3.16370
C          1.06270        1.57120        2.93220
C          0.03190        2.25590        2.04010
C          1.03150       -0.79340        2.20130
C          1.48670       -0.57130        0.96420
N          1.69240       -1.55060       -0.01850
C          1.60260       -2.93890        0.38480
C          0.16890       -3.46460        0.45690
C          1.58410       -1.17150       -1.34320
C          1.15520        0.07440       -1.73590
S          1.24380        0.34270       -3.43130
C          1.84060       -1.23790       -3.66600
C          1.97880       -1.93570       -2.50330
N          2.42440       -3.28150       -2.55240
C          3.82650       -3.53970       -2.80840
C          4.61860       -3.80450       -1.52880
C          1.47960       -4.24440       -2.57210
C          1.65870       -5.58760       -2.62300
C          0.55770       -6.47790       -2.54870
C         -0.79400       -6.27180       -2.35900
C         -1.72730       -5.16330       -2.20110
O         -1.54990       -3.96100       -2.24800
N         -2.97030       -5.74540       -1.98460
C         -4.15810       -4.96830       -1.72480
C         -2.95810       -7.13180       -2.02870
O         -3.92550       -7.84000       -1.88960
C         -1.54790       -7.48100       -2.27260
C         -0.81080       -8.60740       -2.40700
S          0.85840       -8.21050       -2.63730
H          3.31230        1.70110       -2.09960
H          4.12780        0.45450        0.01620
H          5.52830        1.52690       -0.18790
H          5.86190        0.64820       -2.50010
H          5.91360       -0.65870       -1.31200
H          4.46550       -0.41650       -2.29640
H          4.25230        2.98180        1.35730
H          1.04270        5.52910       -0.55400
H          2.35290        5.04190       -4.05750
H          3.71320        4.46220       -3.08280
H          3.67460        2.28630       -4.22660
H          2.21830        2.73150       -5.11360
H          3.73480        3.58120       -5.42380
H          0.38530        3.48810       -3.96300
H         -0.28020        3.26340       -0.97390
H         -2.01790        3.57590       -4.33540
H         -1.26830        1.96620       -4.19530
H         -3.55400        1.74170       -5.03690
H         -3.46890        1.04390       -3.41650
H         -4.20780        2.62950       -3.65910
H         -2.56490        5.47140       -2.23230
H         -5.37700        3.25590        0.50200
H         -1.97840        0.46280        0.56170
H         -1.68220        1.16750       -1.03710
H         -2.97020       -0.71060       -2.08530
H         -1.54920       -1.24980       -1.19980
H         -3.15070       -1.46060       -0.50240
H         -5.67740        0.97370       -0.61220
H         -5.79740       -0.76570        1.08730
H         -2.65930       -5.33430        3.82380
H         -0.97670       -4.95640        3.39720
H         -2.18720       -5.25960        2.11040
H         -2.15360        2.67720        4.62210
H         -1.06040        2.37730        5.98970
H         -3.98180        1.47270        5.81840
H         -3.38320        2.83560        6.76670
H         -2.90660        1.18760        7.18970
H         -0.86440       -0.33080        7.46270
H          2.60580       -1.34060        4.75400
H          1.08510        2.07140        3.90340
H          2.05960        1.67670        2.48310
H          0.30440        3.29980        1.91090
H         -0.00950        1.78020        1.06570
H         -0.95770        2.21010        2.48330
H          0.77160       -1.77890        2.55220
H          1.76860        0.41970        0.65030
H          2.08270       -3.02200        1.36440
H          2.17140       -3.54890       -0.31210
H          0.18230       -4.52580        0.69460
H         -0.34020       -3.33110       -0.49230
H         -0.40520       -2.94150        1.21520
H          0.77310        0.87390       -1.13850
H          2.06060       -1.59500       -4.65290
H          4.24420       -2.66750       -3.31920
H          3.90780       -4.39810       -3.48050
H          4.24380       -4.69060       -1.02250
H          5.66580       -3.96230       -1.77290
H          4.54230       -2.95620       -0.85290
H          0.47010       -3.86310       -2.51040
H          2.63550       -6.04040       -2.69960
H         -5.00730       -5.64860       -1.73280
H         -4.27370       -4.20770       -2.49720
H         -4.08480       -4.47770       -0.75250
H         -1.11810       -9.63310       -2.38570
