
  xtb     03042223083D
 energy: -413.983929496918 gnorm: 0.000187423777 xtb: 6.4.1 (unknown)
250271  0     0  0            999 V2000
   -3.9858    6.2317    6.8091 C   0  0  0  0  0  0  0  0  0  0  0  0
   -3.2404    5.8409    5.7568 C   0  0  0  0  0  0  0  0  0  0  0  0
   -3.4456    4.4722    5.4091 C   0  0  0  0  0  0  0  0  0  0  0  0
   -2.7904    3.7217    4.4255 C   0  0  0  0  0  0  0  0  0  0  0  0
   -1.8842    4.3020    3.4268 C   0  0  0  0  0  0  0  0  0  0  0  0
   -0.6616    3.7090    3.1102 C   0  0  0  0  0  0  0  0  0  0  0  0
    0.1080    4.1937    2.0761 C   0  0  0  0  0  0  0  0  0  0  0  0
   -0.3022    5.2844    1.3052 C   0  0  0  0  0  0  0  0  0  0  0  0
    0.7906    5.7315   -0.0017 S   0  0  0  0  0  0  0  0  0  0  0  0
    0.2108    7.3495   -0.6486 C   0  0  0  0  0  0  0  0  0  0  0  0
    1.2585    7.8926   -1.6016 C   0  0  0  0  0  0  0  0  0  0  0  0
   -1.5206    5.8689    1.6362 C   0  0  0  0  0  0  0  0  0  0  0  0
   -2.0136    6.9200    0.9388 F   0  0  0  0  0  0  0  0  0  0  0  0
   -2.2958    5.3985    2.6779 C   0  0  0  0  0  0  0  0  0  0  0  0
   -3.1294    2.3781    4.3483 C   0  0  0  0  0  0  0  0  0  0  0  0
   -4.1459    1.7759    5.1246 C   0  0  0  0  0  0  0  0  0  0  0  0
   -4.7732    2.5174    6.1366 C   0  0  0  0  0  0  0  0  0  0  0  0
   -5.7170    1.8931    7.0692 C   0  0  0  0  0  0  0  0  0  0  0  0
   -5.3934    0.6794    7.6780 C   0  0  0  0  0  0  0  0  0  0  0  0
   -6.2293    0.1177    8.6172 C   0  0  0  0  0  0  0  0  0  0  0  0
   -7.4257    0.7336    8.9814 C   0  0  0  0  0  0  0  0  0  0  0  0
   -8.4222   -0.0729   10.1944 S   0  0  0  0  0  0  0  0  0  0  0  0
   -9.1556    1.3256   11.1364 C   0  0  0  0  0  0  0  0  0  0  0  0
   -9.4446    0.8658   12.5517 C   0  0  0  0  0  0  0  0  0  0  0  0
   -7.7574    1.9207    8.3350 C   0  0  0  0  0  0  0  0  0  0  0  0
   -6.9190    2.5051    7.4076 C   0  0  0  0  0  0  0  0  0  0  0  0
   -8.9285    2.5433    8.5960 F   0  0  0  0  0  0  0  0  0  0  0  0
   -4.3974    3.8517    6.2543 C   0  0  0  0  0  0  0  0  0  0  0  0
   -4.9936    4.9781    7.4477 S   0  0  0  0  0  0  0  0  0  0  0  0
   -4.4377    0.4488    4.6788 C   0  0  0  0  0  0  0  0  0  0  0  0
   -3.6409    0.0397    3.6681 C   0  0  0  0  0  0  0  0  0  0  0  0
   -2.4481    1.2498    3.2220 S   0  0  0  0  0  0  0  0  0  0  0  0
   -3.5610   -1.1408    2.8316 C   0  0  0  0  0  0  0  0  0  0  0  0
   -2.5333   -2.0235    2.8315 C   0  0  0  0  0  0  0  0  0  0  0  0
   -2.4396   -2.7933    1.6396 C   0  0  0  0  0  0  0  0  0  0  0  0
   -1.4048   -3.6610    1.2578 C   0  0  0  0  0  0  0  0  0  0  0  0
   -0.3330   -3.9903    2.2066 C   0  0  0  0  0  0  0  0  0  0  0  0
    0.3440   -2.9908    2.9048 C   0  0  0  0  0  0  0  0  0  0  0  0
    1.2441   -3.3022    3.9030 C   0  0  0  0  0  0  0  0  0  0  0  0
    1.4967   -4.6263    4.2406 C   0  0  0  0  0  0  0  0  0  0  0  0
    2.5492   -5.1154    5.5702 S   0  0  0  0  0  0  0  0  0  0  0  0
    2.2461   -3.8061    6.8115 C   0  0  0  0  0  0  0  0  0  0  0  0
    0.7973   -3.7640    7.2543 C   0  0  0  0  0  0  0  0  0  0  0  0
    0.8831   -5.6147    3.4763 C   0  0  0  0  0  0  0  0  0  0  0  0
    1.1510   -6.9090    3.7427 F   0  0  0  0  0  0  0  0  0  0  0  0
   -0.0176   -5.3187    2.4751 C   0  0  0  0  0  0  0  0  0  0  0  0
   -1.4512   -4.1430   -0.0417 C   0  0  0  0  0  0  0  0  0  0  0  0
   -2.4918   -3.8228   -0.9481 C   0  0  0  0  0  0  0  0  0  0  0  0
   -3.5533   -2.9981   -0.5479 C   0  0  0  0  0  0  0  0  0  0  0  0
   -4.6407   -2.6350   -1.4649 C   0  0  0  0  0  0  0  0  0  0  0  0
   -4.3784   -2.1623   -2.7474 C   0  0  0  0  0  0  0  0  0  0  0  0
   -5.4043   -1.8575   -3.6209 C   0  0  0  0  0  0  0  0  0  0  0  0
   -6.7324   -2.0072   -3.2400 C   0  0  0  0  0  0  0  0  0  0  0  0
   -8.1284   -1.6283   -4.2515 S   0  0  0  0  0  0  0  0  0  0  0  0
   -7.4594   -1.6615   -5.9520 C   0  0  0  0  0  0  0  0  0  0  0  0
   -7.0264   -3.0519   -6.3753 C   0  0  0  0  0  0  0  0  0  0  0  0
   -6.9817   -2.4441   -1.9386 C   0  0  0  0  0  0  0  0  0  0  0  0
   -5.9682   -2.7577   -1.0612 C   0  0  0  0  0  0  0  0  0  0  0  0
   -8.2572   -2.5819   -1.5318 F   0  0  0  0  0  0  0  0  0  0  0  0
   -3.4907   -2.4891    0.7427 C   0  0  0  0  0  0  0  0  0  0  0  0
   -4.5627   -1.2783    1.3997 S   0  0  0  0  0  0  0  0  0  0  0  0
   -2.2241   -4.3405   -2.2476 C   0  0  0  0  0  0  0  0  0  0  0  0
   -1.0162   -4.9432   -2.3591 C   0  0  0  0  0  0  0  0  0  0  0  0
   -0.1887   -5.0577   -0.8234 S   0  0  0  0  0  0  0  0  0  0  0  0
   -0.3780   -5.2779   -3.6330 C   0  0  0  0  0  0  0  0  0  0  0  0
    0.6775   -4.4774   -4.0873 C   0  0  0  0  0  0  0  0  0  0  0  0
    1.2439   -3.3715   -3.2520 C   0  0  0  0  0  0  0  0  0  0  0  0
    1.1455   -4.6798   -5.3724 C   0  0  0  0  0  0  0  0  0  0  0  0
    0.5751   -5.6125   -6.2385 C   0  0  0  0  0  0  0  0  0  0  0  0
   -0.4360   -6.4543   -5.7551 C   0  0  0  0  0  0  0  0  0  0  0  0
   -0.8937   -6.2694   -4.4596 C   0  0  0  0  0  0  0  0  0  0  0  0
   -1.0599   -7.4893   -6.6403 C   0  0  0  0  0  0  0  0  0  0  0  0
    1.0050   -5.6385   -7.6342 C   0  0  0  0  0  0  0  0  0  0  0  0
    1.1665   -4.5292   -8.3772 C   0  0  0  0  0  0  0  0  0  0  0  0
    0.8375   -3.2036   -7.9261 C   0  0  0  0  0  0  0  0  0  0  0  0
    1.1910   -2.0670   -8.5469 C   0  0  0  0  0  0  0  0  0  0  0  0
    0.9239   -0.7229   -8.0571 C   0  0  0  0  0  0  0  0  0  0  0  0
   -0.2233   -0.3441   -7.3391 C   0  0  0  0  0  0  0  0  0  0  0  0
   -1.3896   -1.2581   -7.0985 C   0  0  0  0  0  0  0  0  0  0  0  0
   -0.2988    0.9518   -6.8643 C   0  0  0  0  0  0  0  0  0  0  0  0
    0.6855    1.9205   -7.0818 C   0  0  0  0  0  0  0  0  0  0  0  0
    1.8207    1.5488   -7.8187 C   0  0  0  0  0  0  0  0  0  0  0  0
    1.9005    0.2498   -8.2897 C   0  0  0  0  0  0  0  0  0  0  0  0
    2.9629    2.4854   -8.0729 C   0  0  0  0  0  0  0  0  0  0  0  0
    0.4331    3.2292   -6.5036 C   0  0  0  0  0  0  0  0  0  0  0  0
    0.7839    4.4393   -6.9625 C   0  0  0  0  0  0  0  0  0  0  0  0
    0.3737    5.6866   -6.3494 C   0  0  0  0  0  0  0  0  0  0  0  0
    0.1406    5.9155   -5.0521 C   0  0  0  0  0  0  0  0  0  0  0  0
    0.4004    4.9587   -3.9818 C   0  0  0  0  0  0  0  0  0  0  0  0
    1.6019    4.6274   -3.4558 C   0  0  0  0  0  0  0  0  0  0  0  0
    1.5344    3.6132   -2.4576 C   0  0  0  0  0  0  0  0  0  0  0  0
    2.5783    3.0411   -1.7208 C   0  0  0  0  0  0  0  0  0  0  0  0
    3.9353    3.5986   -1.7716 C   0  0  0  0  0  0  0  0  0  0  0  0
    5.0548    2.8077   -2.0193 C   0  0  0  0  0  0  0  0  0  0  0  0
    6.3129    3.3698   -2.0586 C   0  0  0  0  0  0  0  0  0  0  0  0
    6.5107    4.7320   -1.8380 C   0  0  0  0  0  0  0  0  0  0  0  0
    8.1816    5.3119   -1.8565 S   0  0  0  0  0  0  0  0  0  0  0  0
    8.0849    6.9698   -2.6278 C   0  0  0  0  0  0  0  0  0  0  0  0
    7.4752    6.9177   -4.0142 C   0  0  0  0  0  0  0  0  0  0  0  0
    5.3851    5.5033   -1.5648 C   0  0  0  0  0  0  0  0  0  0  0  0
    5.4921    6.8264   -1.3007 F   0  0  0  0  0  0  0  0  0  0  0  0
    4.1178    4.9594   -1.5486 C   0  0  0  0  0  0  0  0  0  0  0  0
    2.2539    1.9397   -0.9419 C   0  0  0  0  0  0  0  0  0  0  0  0
    0.9427    1.4114   -0.8351 C   0  0  0  0  0  0  0  0  0  0  0  0
   -0.1156    2.0667   -1.4761 C   0  0  0  0  0  0  0  0  0  0  0  0
   -1.5361    1.6894   -1.3627 C   0  0  0  0  0  0  0  0  0  0  0  0
   -2.2252    1.2281   -2.4799 C   0  0  0  0  0  0  0  0  0  0  0  0
   -3.5874    1.0101   -2.4326 C   0  0  0  0  0  0  0  0  0  0  0  0
   -4.3081    1.2670   -1.2730 C   0  0  0  0  0  0  0  0  0  0  0  0
   -6.0497    1.0240   -1.1149 S   0  0  0  0  0  0  0  0  0  0  0  0
   -6.6687    1.4454   -2.7816 C   0  0  0  0  0  0  0  0  0  0  0  0
   -6.4013    2.8935   -3.1402 C   0  0  0  0  0  0  0  0  0  0  0  0
   -3.6023    1.7235   -0.1610 C   0  0  0  0  0  0  0  0  0  0  0  0
   -2.2380    1.9258   -0.1861 C   0  0  0  0  0  0  0  0  0  0  0  0
   -4.2800    2.0194    0.9645 F   0  0  0  0  0  0  0  0  0  0  0  0
    0.2150    3.1434   -2.2824 C   0  0  0  0  0  0  0  0  0  0  0  0
   -0.9193    4.0689   -3.2319 S   0  0  0  0  0  0  0  0  0  0  0  0
    0.9212    0.1867   -0.1062 C   0  0  0  0  0  0  0  0  0  0  0  0
    2.1401   -0.1804    0.3665 C   0  0  0  0  0  0  0  0  0  0  0  0
    3.3881    0.9962   -0.0166 S   0  0  0  0  0  0  0  0  0  0  0  0
    2.5870   -1.4119    0.9669 C   0  0  0  0  0  0  0  0  0  0  0  0
    3.4658   -1.5731    1.9884 C   0  0  0  0  0  0  0  0  0  0  0  0
    3.8557   -2.9251    2.2029 C   0  0  0  0  0  0  0  0  0  0  0  0
    4.7343   -3.4344    3.1718 C   0  0  0  0  0  0  0  0  0  0  0  0
    5.4351   -2.5525    4.1126 C   0  0  0  0  0  0  0  0  0  0  0  0
    5.4621   -2.8352    5.4773 C   0  0  0  0  0  0  0  0  0  0  0  0
    6.1186   -2.0014    6.3562 C   0  0  0  0  0  0  0  0  0  0  0  0
    6.7767   -0.8547    5.9160 C   0  0  0  0  0  0  0  0  0  0  0  0
    7.5328    0.1670    7.1470 S   0  0  0  0  0  0  0  0  0  0  0  0
    9.1012    0.7125    6.3767 C   0  0  0  0  0  0  0  0  0  0  0  0
    9.9692   -0.4603    5.9681 C   0  0  0  0  0  0  0  0  0  0  0  0
    6.7384   -0.5814    4.5522 C   0  0  0  0  0  0  0  0  0  0  0  0
    7.3358    0.5216    4.0480 F   0  0  0  0  0  0  0  0  0  0  0  0
    6.0949   -1.4140    3.6589 C   0  0  0  0  0  0  0  0  0  0  0  0
    4.9174   -4.8115    3.1842 C   0  0  0  0  0  0  0  0  0  0  0  0
    4.3039   -5.6828    2.2521 C   0  0  0  0  0  0  0  0  0  0  0  0
    3.4573   -5.1707    1.2605 C   0  0  0  0  0  0  0  0  0  0  0  0
    2.8932   -6.0287    0.2086 C   0  0  0  0  0  0  0  0  0  0  0  0
    3.1272   -5.7204   -1.1284 C   0  0  0  0  0  0  0  0  0  0  0  0
    2.6193   -6.5047   -2.1458 C   0  0  0  0  0  0  0  0  0  0  0  0
    1.8543   -7.6282   -1.8587 C   0  0  0  0  0  0  0  0  0  0  0  0
    1.1214   -8.6793   -3.0686 S   0  0  0  0  0  0  0  0  0  0  0  0
    2.1727   -8.4350   -4.5406 C   0  0  0  0  0  0  0  0  0  0  0  0
    3.5884   -8.9323   -4.3227 C   0  0  0  0  0  0  0  0  0  0  0  0
    1.6294   -7.9276   -0.5148 C   0  0  0  0  0  0  0  0  0  0  0  0
    2.1413   -7.1609    0.5091 C   0  0  0  0  0  0  0  0  0  0  0  0
    0.8871   -9.0073   -0.2001 F   0  0  0  0  0  0  0  0  0  0  0  0
    3.2390   -3.8006    1.2771 C   0  0  0  0  0  0  0  0  0  0  0  0
    2.1819   -2.9330    0.1959 S   0  0  0  0  0  0  0  0  0  0  0  0
    4.7174   -7.0348    2.4435 C   0  0  0  0  0  0  0  0  0  0  0  0
    5.5871   -7.1772    3.4623 C   0  0  0  0  0  0  0  0  0  0  0  0
    5.9764   -5.6905    4.2543 S   0  0  0  0  0  0  0  0  0  0  0  0
   -4.0191    7.1983    7.2726 H   0  0  0  0  0  0  0  0  0  0  0  0
   -2.5449    6.4806    5.2442 H   0  0  0  0  0  0  0  0  0  0  0  0
   -0.3053    2.8707    3.6888 H   0  0  0  0  0  0  0  0  0  0  0  0
    1.0519    3.7290    1.8336 H   0  0  0  0  0  0  0  0  0  0  0  0
    0.0723    8.0170    0.1999 H   0  0  0  0  0  0  0  0  0  0  0  0
   -0.7390    7.1905   -1.1571 H   0  0  0  0  0  0  0  0  0  0  0  0
    0.9302    8.8525   -1.9943 H   0  0  0  0  0  0  0  0  0  0  0  0
    2.2076    8.0352   -1.0890 H   0  0  0  0  0  0  0  0  0  0  0  0
    1.4107    7.2085   -2.4341 H   0  0  0  0  0  0  0  0  0  0  0  0
   -3.2458    5.8740    2.8667 H   0  0  0  0  0  0  0  0  0  0  0  0
   -4.4588    0.1960    7.4374 H   0  0  0  0  0  0  0  0  0  0  0  0
   -5.9654   -0.8105    9.0998 H   0  0  0  0  0  0  0  0  0  0  0  0
   -8.4271    2.1348   11.1269 H   0  0  0  0  0  0  0  0  0  0  0  0
  -10.0658    1.6423   10.6293 H   0  0  0  0  0  0  0  0  0  0  0  0
  -10.1441    0.0330   12.5471 H   0  0  0  0  0  0  0  0  0  0  0  0
   -9.8797    1.6839   13.1218 H   0  0  0  0  0  0  0  0  0  0  0  0
   -8.5291    0.5438   13.0430 H   0  0  0  0  0  0  0  0  0  0  0  0
   -7.2318    3.4232    6.9359 H   0  0  0  0  0  0  0  0  0  0  0  0
   -5.2343   -0.1488    5.0840 H   0  0  0  0  0  0  0  0  0  0  0  0
   -1.8388   -2.0941    3.6481 H   0  0  0  0  0  0  0  0  0  0  0  0
    0.1783   -1.9547    2.6500 H   0  0  0  0  0  0  0  0  0  0  0  0
    1.7477   -2.5064    4.4294 H   0  0  0  0  0  0  0  0  0  0  0  0
    2.5821   -2.8507    6.4094 H   0  0  0  0  0  0  0  0  0  0  0  0
    2.8984   -4.0851    7.6389 H   0  0  0  0  0  0  0  0  0  0  0  0
    0.1452   -3.5043    6.4223 H   0  0  0  0  0  0  0  0  0  0  0  0
    0.6727   -3.0193    8.0381 H   0  0  0  0  0  0  0  0  0  0  0  0
    0.4925   -4.7333    7.6421 H   0  0  0  0  0  0  0  0  0  0  0  0
   -0.4991   -6.1230    1.9413 H   0  0  0  0  0  0  0  0  0  0  0  0
   -3.3571   -2.0011   -3.0576 H   0  0  0  0  0  0  0  0  0  0  0  0
   -5.1584   -1.4957   -4.6078 H   0  0  0  0  0  0  0  0  0  0  0  0
   -6.6527   -0.9332   -6.0311 H   0  0  0  0  0  0  0  0  0  0  0  0
   -8.2964   -1.3142   -6.5576 H   0  0  0  0  0  0  0  0  0  0  0  0
   -6.6758   -3.0333   -7.4056 H   0  0  0  0  0  0  0  0  0  0  0  0
   -7.8635   -3.7421   -6.3045 H   0  0  0  0  0  0  0  0  0  0  0  0
   -6.2229   -3.4212   -5.7413 H   0  0  0  0  0  0  0  0  0  0  0  0
   -6.2212   -3.1133   -0.0752 H   0  0  0  0  0  0  0  0  0  0  0  0
   -2.8873   -4.2217   -3.0850 H   0  0  0  0  0  0  0  0  0  0  0  0
    0.4493   -2.7225   -2.8844 H   0  0  0  0  0  0  0  0  0  0  0  0
    1.9403   -2.7719   -3.8335 H   0  0  0  0  0  0  0  0  0  0  0  0
    1.7658   -3.7691   -2.3845 H   0  0  0  0  0  0  0  0  0  0  0  0
    1.9715   -4.0805   -5.7293 H   0  0  0  0  0  0  0  0  0  0  0  0
   -1.6920   -6.8929   -4.0840 H   0  0  0  0  0  0  0  0  0  0  0  0
   -1.8075   -8.0592   -6.0950 H   0  0  0  0  0  0  0  0  0  0  0  0
   -0.3062   -8.1802   -7.0169 H   0  0  0  0  0  0  0  0  0  0  0  0
   -1.5358   -7.0187   -7.5004 H   0  0  0  0  0  0  0  0  0  0  0  0
    1.1835   -6.6087   -8.0787 H   0  0  0  0  0  0  0  0  0  0  0  0
    1.5295   -4.6211   -9.3933 H   0  0  0  0  0  0  0  0  0  0  0  0
    0.2905   -3.1505   -6.9986 H   0  0  0  0  0  0  0  0  0  0  0  0
    1.8112   -2.1228   -9.4345 H   0  0  0  0  0  0  0  0  0  0  0  0
   -1.4966   -1.9791   -7.9054 H   0  0  0  0  0  0  0  0  0  0  0  0
   -2.3057   -0.6737   -7.0268 H   0  0  0  0  0  0  0  0  0  0  0  0
   -1.2709   -1.8046   -6.1617 H   0  0  0  0  0  0  0  0  0  0  0  0
   -1.1811    1.2450   -6.3098 H   0  0  0  0  0  0  0  0  0  0  0  0
    2.7821   -0.0409   -8.8458 H   0  0  0  0  0  0  0  0  0  0  0  0
    3.1123    3.1524   -7.2264 H   0  0  0  0  0  0  0  0  0  0  0  0
    2.7741    3.0910   -8.9596 H   0  0  0  0  0  0  0  0  0  0  0  0
    3.8788    1.9237   -8.2451 H   0  0  0  0  0  0  0  0  0  0  0  0
   -0.2066    3.1933   -5.6320 H   0  0  0  0  0  0  0  0  0  0  0  0
    1.3132    4.5415   -7.8987 H   0  0  0  0  0  0  0  0  0  0  0  0
    0.2373    6.5098   -7.0406 H   0  0  0  0  0  0  0  0  0  0  0  0
   -0.2413    6.8805   -4.7404 H   0  0  0  0  0  0  0  0  0  0  0  0
    2.5262    5.0655   -3.7885 H   0  0  0  0  0  0  0  0  0  0  0  0
    4.9363    1.7522   -2.2081 H   0  0  0  0  0  0  0  0  0  0  0  0
    7.1776    2.7574   -2.2618 H   0  0  0  0  0  0  0  0  0  0  0  0
    7.5392    7.6389   -1.9665 H   0  0  0  0  0  0  0  0  0  0  0  0
    9.1277    7.2845   -2.6691 H   0  0  0  0  0  0  0  0  0  0  0  0
    8.0224    6.2209   -4.6458 H   0  0  0  0  0  0  0  0  0  0  0  0
    6.4353    6.5996   -3.9689 H   0  0  0  0  0  0  0  0  0  0  0  0
    7.5123    7.9059   -4.4682 H   0  0  0  0  0  0  0  0  0  0  0  0
    3.2774    5.5943   -1.3170 H   0  0  0  0  0  0  0  0  0  0  0  0
   -1.6838    1.0386   -3.3954 H   0  0  0  0  0  0  0  0  0  0  0  0
   -4.0970    0.6503   -3.3111 H   0  0  0  0  0  0  0  0  0  0  0  0
   -6.2319    0.7577   -3.5028 H   0  0  0  0  0  0  0  0  0  0  0  0
   -7.7375    1.2441   -2.7139 H   0  0  0  0  0  0  0  0  0  0  0  0
   -5.3313    3.0894   -3.1863 H   0  0  0  0  0  0  0  0  0  0  0  0
   -6.8405    3.5529   -2.3956 H   0  0  0  0  0  0  0  0  0  0  0  0
   -6.8396    3.1219   -4.1099 H   0  0  0  0  0  0  0  0  0  0  0  0
   -1.7370    2.3050    0.6913 H   0  0  0  0  0  0  0  0  0  0  0  0
    0.0291   -0.4000    0.0317 H   0  0  0  0  0  0  0  0  0  0  0  0
    3.8113   -0.7490    2.5864 H   0  0  0  0  0  0  0  0  0  0  0  0
    4.9618   -3.7148    5.8492 H   0  0  0  0  0  0  0  0  0  0  0  0
    6.1346   -2.2245    7.4116 H   0  0  0  0  0  0  0  0  0  0  0  0
    9.5747    1.2973    7.1655 H   0  0  0  0  0  0  0  0  0  0  0  0
    8.8758    1.3665    5.5373 H   0  0  0  0  0  0  0  0  0  0  0  0
    9.4871   -1.0471    5.1883 H   0  0  0  0  0  0  0  0  0  0  0  0
   10.9199   -0.0953    5.5847 H   0  0  0  0  0  0  0  0  0  0  0  0
   10.1605   -1.1096    6.8200 H   0  0  0  0  0  0  0  0  0  0  0  0
    6.1279   -1.1682    2.6087 H   0  0  0  0  0  0  0  0  0  0  0  0
    3.7335   -4.8615   -1.3756 H   0  0  0  0  0  0  0  0  0  0  0  0
    2.8137   -6.2271   -3.1692 H   0  0  0  0  0  0  0  0  0  0  0  0
    1.6689   -9.0222   -5.3079 H   0  0  0  0  0  0  0  0  0  0  0  0
    2.1373   -7.3854   -4.8286 H   0  0  0  0  0  0  0  0  0  0  0  0
    4.0783   -8.3737   -3.5277 H   0  0  0  0  0  0  0  0  0  0  0  0
    4.1672   -8.8147   -5.2369 H   0  0  0  0  0  0  0  0  0  0  0  0
    3.5796   -9.9846   -4.0481 H   0  0  0  0  0  0  0  0  0  0  0  0
    1.9392   -7.4480    1.5276 H   0  0  0  0  0  0  0  0  0  0  0  0
    4.3729   -7.8493    1.8334 H   0  0  0  0  0  0  0  0  0  0  0  0
    6.0425   -8.0800    3.8195 H   0  0  0  0  0  0  0  0  0  0  0  0
  1  2  2  0  0  0  0
  2  3  1  0  0  0  0
  3  4  2  0  0  0  0
  4  5  1  0  0  0  0
  5  6  2  0  0  0  0
  6  7  1  0  0  0  0
  7  8  2  0  0  0  0
  8  9  1  0  0  0  0
  9 10  1  0  0  0  0
 10 11  1  0  0  0  0
  8 12  1  0  0  0  0
 12 13  1  0  0  0  0
 12 14  2  0  0  0  0
  4 15  1  0  0  0  0
 15 16  2  0  0  0  0
 16 17  1  0  0  0  0
 17 18  1  0  0  0  0
 18 19  2  0  0  0  0
 19 20  1  0  0  0  0
 20 21  2  0  0  0  0
 21 22  1  0  0  0  0
 22 23  1  0  0  0  0
 23 24  1  0  0  0  0
 21 25  1  0  0  0  0
 25 26  2  0  0  0  0
 25 27  1  0  0  0  0
 17 28  2  0  0  0  0
 28 29  1  0  0  0  0
 16 30  1  0  0  0  0
 30 31  2  0  0  0  0
 31 32  1  0  0  0  0
 31 33  1  0  0  0  0
 33 34  2  0  0  0  0
 34 35  1  0  0  0  0
 35 36  2  0  0  0  0
 36 37  1  0  0  0  0
 37 38  2  0  0  0  0
 38 39  1  0  0  0  0
 39 40  2  0  0  0  0
 40 41  1  0  0  0  0
 41 42  1  0  0  0  0
 42 43  1  0  0  0  0
 40 44  1  0  0  0  0
 44 45  1  0  0  0  0
 44 46  2  0  0  0  0
 36 47  1  0  0  0  0
 47 48  2  0  0  0  0
 48 49  1  0  0  0  0
 49 50  1  0  0  0  0
 50 51  2  0  0  0  0
 51 52  1  0  0  0  0
 52 53  2  0  0  0  0
 53 54  1  0  0  0  0
 54 55  1  0  0  0  0
 55 56  1  0  0  0  0
 53 57  1  0  0  0  0
 57 58  2  0  0  0  0
 57 59  1  0  0  0  0
 49 60  2  0  0  0  0
 60 61  1  0  0  0  0
 48 62  1  0  0  0  0
 62 63  2  0  0  0  0
 63 64  1  0  0  0  0
 63 65  1  0  0  0  0
 65 66  2  0  0  0  0
 66 67  1  0  0  0  0
 66 68  1  0  0  0  0
 68 69  2  0  0  0  0
 69 70  1  0  0  0  0
 70 71  2  0  0  0  0
 70 72  1  0  0  0  0
 69 73  1  0  0  0  0
 73 74  2  0  0  0  0
 74 75  1  0  0  0  0
 75 76  2  0  0  0  0
 76 77  1  0  0  0  0
 77 78  2  0  0  0  0
 78 79  1  0  0  0  0
 78 80  1  0  0  0  0
 80 81  2  0  0  0  0
 81 82  1  0  0  0  0
 82 83  2  0  0  0  0
 82 84  1  0  0  0  0
 81 85  1  0  0  0  0
 85 86  2  0  0  0  0
 86 87  1  0  0  0  0
 87 88  2  0  0  0  0
 88 89  1  0  0  0  0
 89 90  2  0  0  0  0
 90 91  1  0  0  0  0
 91 92  2  0  0  0  0
 92 93  1  0  0  0  0
 93 94  2  0  0  0  0
 94 95  1  0  0  0  0
 95 96  2  0  0  0  0
 96 97  1  0  0  0  0
 97 98  1  0  0  0  0
 98 99  1  0  0  0  0
 96100  1  0  0  0  0
100101  1  0  0  0  0
100102  2  0  0  0  0
 92103  1  0  0  0  0
103104  2  0  0  0  0
104105  1  0  0  0  0
105106  1  0  0  0  0
106107  2  0  0  0  0
107108  1  0  0  0  0
108109  2  0  0  0  0
109110  1  0  0  0  0
110111  1  0  0  0  0
111112  1  0  0  0  0
109113  1  0  0  0  0
113114  2  0  0  0  0
113115  1  0  0  0  0
105116  2  0  0  0  0
116117  1  0  0  0  0
104118  1  0  0  0  0
118119  2  0  0  0  0
119120  1  0  0  0  0
119121  1  0  0  0  0
121122  2  0  0  0  0
122123  1  0  0  0  0
123124  2  0  0  0  0
124125  1  0  0  0  0
125126  2  0  0  0  0
126127  1  0  0  0  0
127128  2  0  0  0  0
128129  1  0  0  0  0
129130  1  0  0  0  0
130131  1  0  0  0  0
128132  1  0  0  0  0
132133  1  0  0  0  0
132134  2  0  0  0  0
124135  1  0  0  0  0
135136  2  0  0  0  0
136137  1  0  0  0  0
137138  1  0  0  0  0
138139  2  0  0  0  0
139140  1  0  0  0  0
140141  2  0  0  0  0
141142  1  0  0  0  0
142143  1  0  0  0  0
143144  1  0  0  0  0
141145  1  0  0  0  0
145146  2  0  0  0  0
145147  1  0  0  0  0
137148  2  0  0  0  0
148149  1  0  0  0  0
136150  1  0  0  0  0
150151  2  0  0  0  0
151152  1  0  0  0  0
 29  1  1  0  0  0  0
 61 33  1  0  0  0  0
 71 65  1  0  0  0  0
 83 77  1  0  0  0  0
117 89  1  0  0  0  0
149121  1  0  0  0  0
 28  3  1  0  0  0  0
 60 35  1  0  0  0  0
116 91  1  0  0  0  0
148123  1  0  0  0  0
 14  5  1  0  0  0  0
 32 15  1  0  0  0  0
 46 37  1  0  0  0  0
 64 47  1  0  0  0  0
102 93  1  0  0  0  0
120103  1  0  0  0  0
134125  1  0  0  0  0
152135  1  0  0  0  0
 26 18  1  0  0  0  0
 58 50  1  0  0  0  0
114106  1  0  0  0  0
146138  1  0  0  0  0
  1153  1  0  0  0  0
  2154  1  0  0  0  0
  6155  1  0  0  0  0
  7156  1  0  0  0  0
 10157  1  0  0  0  0
 10158  1  0  0  0  0
 11159  1  0  0  0  0
 11160  1  0  0  0  0
 11161  1  0  0  0  0
 14162  1  0  0  0  0
 19163  1  0  0  0  0
 20164  1  0  0  0  0
 23165  1  0  0  0  0
 23166  1  0  0  0  0
 24167  1  0  0  0  0
 24168  1  0  0  0  0
 24169  1  0  0  0  0
 26170  1  0  0  0  0
 30171  1  0  0  0  0
 34172  1  0  0  0  0
 38173  1  0  0  0  0
 39174  1  0  0  0  0
 42175  1  0  0  0  0
 42176  1  0  0  0  0
 43177  1  0  0  0  0
 43178  1  0  0  0  0
 43179  1  0  0  0  0
 46180  1  0  0  0  0
 51181  1  0  0  0  0
 52182  1  0  0  0  0
 55183  1  0  0  0  0
 55184  1  0  0  0  0
 56185  1  0  0  0  0
 56186  1  0  0  0  0
 56187  1  0  0  0  0
 58188  1  0  0  0  0
 62189  1  0  0  0  0
 67190  1  0  0  0  0
 67191  1  0  0  0  0
 67192  1  0  0  0  0
 68193  1  0  0  0  0
 71194  1  0  0  0  0
 72195  1  0  0  0  0
 72196  1  0  0  0  0
 72197  1  0  0  0  0
 73198  1  0  0  0  0
 74199  1  0  0  0  0
 75200  1  0  0  0  0
 76201  1  0  0  0  0
 79202  1  0  0  0  0
 79203  1  0  0  0  0
 79204  1  0  0  0  0
 80205  1  0  0  0  0
 83206  1  0  0  0  0
 84207  1  0  0  0  0
 84208  1  0  0  0  0
 84209  1  0  0  0  0
 85210  1  0  0  0  0
 86211  1  0  0  0  0
 87212  1  0  0  0  0
 88213  1  0  0  0  0
 90214  1  0  0  0  0
 94215  1  0  0  0  0
 95216  1  0  0  0  0
 98217  1  0  0  0  0
 98218  1  0  0  0  0
 99219  1  0  0  0  0
 99220  1  0  0  0  0
 99221  1  0  0  0  0
102222  1  0  0  0  0
107223  1  0  0  0  0
108224  1  0  0  0  0
111225  1  0  0  0  0
111226  1  0  0  0  0
112227  1  0  0  0  0
112228  1  0  0  0  0
112229  1  0  0  0  0
114230  1  0  0  0  0
118231  1  0  0  0  0
122232  1  0  0  0  0
126233  1  0  0  0  0
127234  1  0  0  0  0
130235  1  0  0  0  0
130236  1  0  0  0  0
131237  1  0  0  0  0
131238  1  0  0  0  0
131239  1  0  0  0  0
134240  1  0  0  0  0
139241  1  0  0  0  0
140242  1  0  0  0  0
143243  1  0  0  0  0
143244  1  0  0  0  0
144245  1  0  0  0  0
144246  1  0  0  0  0
144247  1  0  0  0  0
146248  1  0  0  0  0
150249  1  0  0  0  0
151250  1  0  0  0  0
M  END
