250

C         -3.98580        6.23170        6.80910
C         -3.24040        5.84090        5.75680
C         -3.44560        4.47220        5.40910
C         -2.79040        3.72170        4.42550
C         -1.88420        4.30200        3.42680
C         -0.66160        3.70900        3.11020
C          0.10800        4.19370        2.07610
C         -0.30220        5.28440        1.30520
S          0.79060        5.73150       -0.00170
C          0.21080        7.34950       -0.64860
C          1.25850        7.89260       -1.60160
C         -1.52060        5.86890        1.63620
F         -2.01360        6.92000        0.93880
C         -2.29580        5.39850        2.67790
C         -3.12940        2.37810        4.34830
C         -4.14590        1.77590        5.12460
C         -4.77320        2.51740        6.13660
C         -5.71700        1.89310        7.06920
C         -5.39340        0.67940        7.67800
C         -6.22930        0.11770        8.61720
C         -7.42570        0.73360        8.98140
S         -8.42220       -0.07290       10.19440
C         -9.15560        1.32560       11.13640
C         -9.44460        0.86580       12.55170
C         -7.75740        1.92070        8.33500
C         -6.91900        2.50510        7.40760
F         -8.92850        2.54330        8.59600
C         -4.39740        3.85170        6.25430
S         -4.99360        4.97810        7.44770
C         -4.43770        0.44880        4.67880
C         -3.64090        0.03970        3.66810
S         -2.44810        1.24980        3.22200
C         -3.56100       -1.14080        2.83160
C         -2.53330       -2.02350        2.83150
C         -2.43960       -2.79330        1.63960
C         -1.40480       -3.66100        1.25780
C         -0.33300       -3.99030        2.20660
C          0.34400       -2.99080        2.90480
C          1.24410       -3.30220        3.90300
C          1.49670       -4.62630        4.24060
S          2.54920       -5.11540        5.57020
C          2.24610       -3.80610        6.81150
C          0.79730       -3.76400        7.25430
C          0.88310       -5.61470        3.47630
F          1.15100       -6.90900        3.74270
C         -0.01760       -5.31870        2.47510
C         -1.45120       -4.14300       -0.04170
C         -2.49180       -3.82280       -0.94810
C         -3.55330       -2.99810       -0.54790
C         -4.64070       -2.63500       -1.46490
C         -4.37840       -2.16230       -2.74740
C         -5.40430       -1.85750       -3.62090
C         -6.73240       -2.00720       -3.24000
S         -8.12840       -1.62830       -4.25150
C         -7.45940       -1.66150       -5.95200
C         -7.02640       -3.05190       -6.37530
C         -6.98170       -2.44410       -1.93860
C         -5.96820       -2.75770       -1.06120
F         -8.25720       -2.58190       -1.53180
C         -3.49070       -2.48910        0.74270
S         -4.56270       -1.27830        1.39970
C         -2.22410       -4.34050       -2.24760
C         -1.01620       -4.94320       -2.35910
S         -0.18870       -5.05770       -0.82340
C         -0.37800       -5.27790       -3.63300
C          0.67750       -4.47740       -4.08730
C          1.24390       -3.37150       -3.25200
C          1.14550       -4.67980       -5.37240
C          0.57510       -5.61250       -6.23850
C         -0.43600       -6.45430       -5.75510
C         -0.89370       -6.26940       -4.45960
C         -1.05990       -7.48930       -6.64030
C          1.00500       -5.63850       -7.63420
C          1.16650       -4.52920       -8.37720
C          0.83750       -3.20360       -7.92610
C          1.19100       -2.06700       -8.54690
C          0.92390       -0.72290       -8.05710
C         -0.22330       -0.34410       -7.33910
C         -1.38960       -1.25810       -7.09850
C         -0.29880        0.95180       -6.86430
C          0.68550        1.92050       -7.08180
C          1.82070        1.54880       -7.81870
C          1.90050        0.24980       -8.28970
C          2.96290        2.48540       -8.07290
C          0.43310        3.22920       -6.50360
C          0.78390        4.43930       -6.96250
C          0.37370        5.68660       -6.34940
C          0.14060        5.91550       -5.05210
C          0.40040        4.95870       -3.98180
C          1.60190        4.62740       -3.45580
C          1.53440        3.61320       -2.45760
C          2.57830        3.04110       -1.72080
C          3.93530        3.59860       -1.77160
C          5.05480        2.80770       -2.01930
C          6.31290        3.36980       -2.05860
C          6.51070        4.73200       -1.83800
S          8.18160        5.31190       -1.85650
C          8.08490        6.96980       -2.62780
C          7.47520        6.91770       -4.01420
C          5.38510        5.50330       -1.56480
F          5.49210        6.82640       -1.30070
C          4.11780        4.95940       -1.54860
C          2.25390        1.93970       -0.94190
C          0.94270        1.41140       -0.83510
C         -0.11560        2.06670       -1.47610
C         -1.53610        1.68940       -1.36270
C         -2.22520        1.22810       -2.47990
C         -3.58740        1.01010       -2.43260
C         -4.30810        1.26700       -1.27300
S         -6.04970        1.02400       -1.11490
C         -6.66870        1.44540       -2.78160
C         -6.40130        2.89350       -3.14020
C         -3.60230        1.72350       -0.16100
C         -2.23800        1.92580       -0.18610
F         -4.28000        2.01940        0.96450
C          0.21500        3.14340       -2.28240
S         -0.91930        4.06890       -3.23190
C          0.92120        0.18670       -0.10620
C          2.14010       -0.18040        0.36650
S          3.38810        0.99620       -0.01660
C          2.58700       -1.41190        0.96690
C          3.46580       -1.57310        1.98840
C          3.85570       -2.92510        2.20290
C          4.73430       -3.43440        3.17180
C          5.43510       -2.55250        4.11260
C          5.46210       -2.83520        5.47730
C          6.11860       -2.00140        6.35620
C          6.77670       -0.85470        5.91600
S          7.53280        0.16700        7.14700
C          9.10120        0.71250        6.37670
C          9.96920       -0.46030        5.96810
C          6.73840       -0.58140        4.55220
F          7.33580        0.52160        4.04800
C          6.09490       -1.41400        3.65890
C          4.91740       -4.81150        3.18420
C          4.30390       -5.68280        2.25210
C          3.45730       -5.17070        1.26050
C          2.89320       -6.02870        0.20860
C          3.12720       -5.72040       -1.12840
C          2.61930       -6.50470       -2.14580
C          1.85430       -7.62820       -1.85870
S          1.12140       -8.67930       -3.06860
C          2.17270       -8.43500       -4.54060
C          3.58840       -8.93230       -4.32270
C          1.62940       -7.92760       -0.51480
C          2.14130       -7.16090        0.50910
F          0.88710       -9.00730       -0.20010
C          3.23900       -3.80060        1.27710
S          2.18190       -2.93300        0.19590
C          4.71740       -7.03480        2.44350
C          5.58710       -7.17720        3.46230
S          5.97640       -5.69050        4.25430
H         -4.01910        7.19830        7.27260
H         -2.54490        6.48060        5.24420
H         -0.30530        2.87070        3.68880
H          1.05190        3.72900        1.83360
H          0.07230        8.01700        0.19990
H         -0.73900        7.19050       -1.15710
H          0.93020        8.85250       -1.99430
H          2.20760        8.03520       -1.08900
H          1.41070        7.20850       -2.43410
H         -3.24580        5.87400        2.86670
H         -4.45880        0.19600        7.43740
H         -5.96540       -0.81050        9.09980
H         -8.42710        2.13480       11.12690
H        -10.06580        1.64230       10.62930
H        -10.14410        0.03300       12.54710
H         -9.87970        1.68390       13.12180
H         -8.52910        0.54380       13.04300
H         -7.23180        3.42320        6.93590
H         -5.23430       -0.14880        5.08400
H         -1.83880       -2.09410        3.64810
H          0.17830       -1.95470        2.65000
H          1.74770       -2.50640        4.42940
H          2.58210       -2.85070        6.40940
H          2.89840       -4.08510        7.63890
H          0.14520       -3.50430        6.42230
H          0.67270       -3.01930        8.03810
H          0.49250       -4.73330        7.64210
H         -0.49910       -6.12300        1.94130
H         -3.35710       -2.00110       -3.05760
H         -5.15840       -1.49570       -4.60780
H         -6.65270       -0.93320       -6.03110
H         -8.29640       -1.31420       -6.55760
H         -6.67580       -3.03330       -7.40560
H         -7.86350       -3.74210       -6.30450
H         -6.22290       -3.42120       -5.74130
H         -6.22120       -3.11330       -0.07520
H         -2.88730       -4.22170       -3.08500
H          0.44930       -2.72250       -2.88440
H          1.94030       -2.77190       -3.83350
H          1.76580       -3.76910       -2.38450
H          1.97150       -4.08050       -5.72930
H         -1.69200       -6.89290       -4.08400
H         -1.80750       -8.05920       -6.09500
H         -0.30620       -8.18020       -7.01690
H         -1.53580       -7.01870       -7.50040
H          1.18350       -6.60870       -8.07870
H          1.52950       -4.62110       -9.39330
H          0.29050       -3.15050       -6.99860
H          1.81120       -2.12280       -9.43450
H         -1.49660       -1.97910       -7.90540
H         -2.30570       -0.67370       -7.02680
H         -1.27090       -1.80460       -6.16170
H         -1.18110        1.24500       -6.30980
H          2.78210       -0.04090       -8.84580
H          3.11230        3.15240       -7.22640
H          2.77410        3.09100       -8.95960
H          3.87880        1.92370       -8.24510
H         -0.20660        3.19330       -5.63200
H          1.31320        4.54150       -7.89870
H          0.23730        6.50980       -7.04060
H         -0.24130        6.88050       -4.74040
H          2.52620        5.06550       -3.78850
H          4.93630        1.75220       -2.20810
H          7.17760        2.75740       -2.26180
H          7.53920        7.63890       -1.96650
H          9.12770        7.28450       -2.66910
H          8.02240        6.22090       -4.64580
H          6.43530        6.59960       -3.96890
H          7.51230        7.90590       -4.46820
H          3.27740        5.59430       -1.31700
H         -1.68380        1.03860       -3.39540
H         -4.09700        0.65030       -3.31110
H         -6.23190        0.75770       -3.50280
H         -7.73750        1.24410       -2.71390
H         -5.33130        3.08940       -3.18630
H         -6.84050        3.55290       -2.39560
H         -6.83960        3.12190       -4.10990
H         -1.73700        2.30500        0.69130
H          0.02910       -0.40000        0.03170
H          3.81130       -0.74900        2.58640
H          4.96180       -3.71480        5.84920
H          6.13460       -2.22450        7.41160
H          9.57470        1.29730        7.16550
H          8.87580        1.36650        5.53730
H          9.48710       -1.04710        5.18830
H         10.91990       -0.09530        5.58470
H         10.16050       -1.10960        6.82000
H          6.12790       -1.16820        2.60870
H          3.73350       -4.86150       -1.37560
H          2.81370       -6.22710       -3.16920
H          1.66890       -9.02220       -5.30790
H          2.13730       -7.38540       -4.82860
H          4.07830       -8.37370       -3.52770
H          4.16720       -8.81470       -5.23690
H          3.57960       -9.98460       -4.04810
H          1.93920       -7.44800        1.52760
H          4.37290       -7.84930        1.83340
H          6.04250       -8.08000        3.81950
