246

C          0.09950       -2.07270       -6.38330
C         -0.92410       -2.76030       -5.83840
C         -1.28790       -2.27820       -4.54590
C         -2.30300       -2.74250       -3.69970
C         -3.19910       -3.84580       -4.06840
C         -3.93080       -3.82260       -5.25360
C         -4.79650       -4.85000       -5.56040
C         -4.97730       -5.93290       -4.70040
S         -6.16660       -7.14490       -5.19160
C         -5.48640       -8.73780       -4.59880
C         -4.11030       -9.01810       -5.16790
C         -4.25260       -5.93100       -3.51270
F         -4.39190       -6.92720       -2.60780
C         -3.36650       -4.91990       -3.20170
C         -2.45050       -2.08340       -2.49000
C         -1.65710       -0.98000       -2.09070
C         -0.61550       -0.53790       -2.92410
C          0.28430        0.56290       -2.55670
C         -0.19940        1.80240       -2.15680
C          0.65510        2.84590       -1.85170
C          2.03280        2.67350       -1.90190
S          3.23870        3.90060       -1.54340
C          2.25540        5.39940       -1.17830
C          3.19370        6.48460       -0.68610
C          2.50550        1.41840       -2.29010
C          1.66530        0.38820       -2.63760
F          3.83900        1.21010       -2.33340
C         -0.46300       -1.20470       -4.13360
S          0.70440       -0.80670       -5.36940
C         -2.06780       -0.47820       -0.82970
C         -3.14000       -1.13060       -0.28810
S         -3.67270       -2.45330       -1.31040
C         -3.71200       -0.88840        1.00110
S         -2.80850        0.15790        2.08140
C         -3.83840       -0.19520        3.40220
C         -4.83480       -1.04050        3.04050
C         -4.81740       -1.40850        1.65390
N         -5.88770       -2.13300        1.14220
C         -6.61640       -3.02190        2.03230
C         -6.02740       -3.02930        3.43510
N         -5.78300       -1.66410        3.85670
C         -6.50010       -1.10290        4.85640
O         -7.44860       -1.63710        5.38360
O         -6.05000        0.11510        5.20780
C         -6.43730       -1.83540       -0.08120
C         -7.64950       -2.11060       -0.59350
C         -8.83390       -2.77510       -0.06850
S         -9.47370       -4.06980       -1.06190
C        -10.78280       -4.34440        0.00850
C        -10.76290       -3.47390        1.04960
C         -9.67670       -2.54060        0.99930
N         -9.60470       -1.51380        1.94190
C        -10.42230       -1.58600        3.13970
C        -10.98040       -2.98580        3.36050
N        -11.62540       -3.45740        2.15270
C        -12.89920       -3.91260        2.08620
O        -13.43220       -4.34310        1.09470
O        -13.54010       -3.82560        3.27670
C         -8.82790       -0.41800        1.73370
C         -8.55900        0.58380        2.59720
C         -7.52940        1.52830        2.30260
C         -6.81350        2.28010        3.18650
C         -5.62400        2.83100        2.64280
C         -4.55850        3.40380        3.35940
C         -4.70350        3.69190        4.79090
C         -3.80760        3.19440        5.73470
C         -3.97890        3.46270        7.07610
C         -5.04750        4.23080        7.53140
S         -5.20610        4.46780        9.27960
C         -5.62360        6.24400        9.43080
C         -4.56250        7.12760        8.80650
C         -5.94650        4.70460        6.58090
F         -7.02870        5.42580        6.95170
C         -5.78070        4.45390        5.23440
C         -3.36380        3.55300        2.66930
C         -3.25330        3.29690        1.28400
C         -4.35620        2.85390        0.53130
C         -4.18910        2.61490       -0.90550
C         -3.52540        3.54640       -1.70920
C         -3.23930        3.26350       -3.02500
C         -3.58460        2.04020       -3.61320
S         -2.95680        1.80730       -5.24420
C         -3.55140        0.19360       -5.86350
C         -4.98450        0.24960       -6.35440
C         -4.31310        1.15940       -2.82350
C         -4.61460        1.43810       -1.50500
F         -4.74920       -0.03320       -3.29650
C         -5.49270        2.54640        1.26030
S         -6.86530        1.63980        0.68040
C         -1.89950        3.26650        0.86440
C         -1.00570        3.48440        1.86180
S         -1.79580        3.89510        3.37230
C          0.36260        3.03460        1.76520
C          0.62630        1.75510        1.39220
C          2.00560        1.44590        1.31020
C          2.57960        0.21690        0.94400
C          1.72490       -0.96240        0.76300
C          1.84540       -1.81180       -0.33570
C          0.95720       -2.84620       -0.52650
C         -0.06420       -3.11960        0.38730
S         -1.11870       -4.46640       -0.03440
C         -2.43480       -4.53590        1.24470
C         -3.49530       -5.52540        0.80140
C         -0.11920       -2.31710        1.52170
F         -1.01740       -2.54740        2.51180
C          0.73940       -1.25230        1.70250
C          3.95760        0.21260        0.78970
C          4.76000        1.36110        1.01480
C          4.18230        2.57430        1.42730
C          4.98300        3.78720        1.61950
C          4.83320        4.58120        2.75530
C          5.57710        5.73090        2.91110
C          6.48580        6.14700        1.93910
S          7.33470        7.66860        2.23680
C          9.01260        7.40370        1.55120
C          9.69270        6.18840        2.14630
C          6.60020        5.36090        0.79580
C          5.88050        4.19480        0.63610
F          7.42680        5.72170       -0.21300
C          2.80500        2.57780        1.58790
S          1.82140        3.95180        2.05020
C          6.13660        1.08280        0.83030
C          6.39310       -0.20640        0.46710
S          4.93230       -1.16030        0.34550
C          7.67370       -0.77930        0.19560
C          8.85400       -0.11060        0.05840
C          9.96040       -0.95700       -0.20530
C         11.30080       -0.58610       -0.39420
C         11.71340        0.81730       -0.26640
C         11.37890        1.55160        0.87090
C         11.71640        2.88430        0.97190
C         12.40150        3.53240       -0.05210
S         12.77600        5.25060        0.15600
C         12.32620        5.96970       -1.46840
C         10.90730        5.62800       -1.87520
C         12.77530        2.77540       -1.15780
F         13.48160        3.33320       -2.16390
C         12.43280        1.44350       -1.27800
C         12.19200       -1.60520       -0.69480
C         11.81180       -2.96770       -0.76600
C         10.47740       -3.34160       -0.54810
C         10.05550       -4.74760       -0.56400
C          8.96520       -5.16120       -1.32300
C          8.55180       -6.47910       -1.32080
C          9.20590       -7.42980       -0.54580
S          8.78100       -9.13790       -0.45900
C          7.05590       -9.18990       -1.05580
C          6.09780       -8.49660       -0.10640
C         10.30410       -7.00290        0.20270
C         10.73190       -5.69450        0.20280
F         10.97010       -7.89780        0.96040
C          9.57620       -2.31700       -0.29620
S          7.86610       -2.50800       -0.00670
C         12.92170       -3.80340       -1.09310
C         14.07340       -3.11710       -1.23250
S         13.90150       -1.41270       -0.98600
H          0.56380       -2.22750       -7.33770
H         -1.41320       -3.58920       -6.31710
H         -3.82930       -2.98710       -5.92940
H         -5.36300       -4.83130       -6.47850
H         -6.21510       -9.46470       -4.95810
H         -5.48800       -8.74250       -3.51120
H         -4.13110       -8.97750       -6.25500
H         -3.78240      -10.00910       -4.86060
H         -3.38540       -8.29070       -4.80790
H         -2.80260       -4.98420       -2.28390
H         -1.26510        1.96720       -2.13340
H          0.23760        3.80250       -1.58200
H          1.74970        5.69740       -2.09730
H          1.52660        5.14950       -0.40850
H          3.66500        6.18240        0.24680
H          3.97180        6.68140       -1.41980
H          2.63650        7.40240       -0.51260
H          2.08900       -0.54720       -2.96440
H         -1.59110        0.35160       -0.34080
H         -3.66280        0.24740        4.35990
H         -6.60040       -4.03130        1.60390
H         -7.65180       -2.69600        2.10160
H         -5.07320       -3.56710        3.45960
H         -6.72320       -3.48800        4.13820
H         -6.59830        0.45510        5.92970
H         -5.77520       -1.27140       -0.71650
H         -7.75810       -1.83870       -1.63680
H        -11.50300       -5.10880       -0.19310
H        -11.24330       -0.86240        3.05970
H         -9.80250       -1.32380        4.00360
H        -11.70090       -2.97330        4.17580
H        -10.16360       -3.67200        3.61640
H        -14.44210       -4.15520        3.15900
H         -8.35420       -0.39970        0.76350
H         -8.98790        0.64000        3.58540
H         -7.06710        2.35420        4.22770
H         -2.97570        2.58590        5.41720
H         -3.28290        3.07540        7.80370
H         -6.60570        6.41520        8.99560
H         -5.68100        6.39730       10.50830
H         -4.80880        8.17330        8.97900
H         -3.58770        6.92070        9.24330
H         -4.50140        6.96100        7.73240
H         -6.49740        4.85860        4.53610
H         -3.23230        4.49770       -1.29150
H         -2.70630        3.97890       -3.63270
H         -2.86510       -0.01860       -6.68510
H         -3.40590       -0.55090       -5.08500
H         -5.26110       -0.70840       -6.78990
H         -5.66760        0.46100       -5.53610
H         -5.09620        1.02340       -7.11080
H         -5.15960        0.69950       -0.94300
H         -1.59520        2.99340       -0.12770
H         -0.15480        1.04950        1.18150
H          2.63120       -1.64670       -1.05360
H          1.03480       -3.47530       -1.40030
H         -1.97110       -4.84570        2.18050
H         -2.85600       -3.53800        1.34880
H         -4.01100       -5.16450       -0.08540
H         -4.22520       -5.65990        1.59720
H         -3.05050       -6.49170        0.57490
H          0.64240       -0.67070        2.60600
H          4.14940        4.28090        3.53410
H          5.46770        6.33550        3.79780
H          9.53710        8.31920        1.82470
H          8.94290        7.34810        0.46690
H          9.17340        5.27420        1.86350
H         10.71710        6.12960        1.78320
H          9.70920        6.25490        3.23220
H          5.98460        3.63890       -0.28240
H          6.91000        1.81020        0.99150
H          8.93450        0.95910        0.11450
H         10.85590        1.06760        1.68180
H         11.44840        3.45200        1.84950
H         12.44400        7.04120       -1.30660
H         13.05210        5.64050       -2.20910
H         10.20040        5.91390       -1.10000
H         10.80050        4.56050       -2.05880
H         10.65350        6.15840       -2.79060
H         12.72300        0.91040       -2.16970
H          8.44350       -4.44780       -1.94220
H          7.71450       -6.76160       -1.93770
H          7.01880       -8.77490       -2.06240
H          6.84190      -10.25710       -1.11380
H          6.15070       -8.95360        0.87900
H          6.33940       -7.44020       -0.00790
H          5.07880       -8.58620       -0.47800
H         11.56950       -5.41470        0.82260
H         12.84120       -4.86630       -1.22980
H         15.04430       -3.50170       -1.47650
