138

C          5.94370        2.52070        0.59580
S          6.84540        3.75220       -0.20120
C          5.41120        4.59620       -0.62570
C          4.29630        3.95630       -0.18150
C          4.59790        2.74530        0.52840
N          3.60060        1.95710        1.06930
C          2.29120        2.56480        1.14900
C          1.97850        3.30880       -0.14880
N          2.96520        4.34790       -0.37640
C          2.63520        5.59600       -0.78920
O          3.41140        6.49460       -1.00270
O          1.29750        5.75380       -0.94110
C          3.83730        0.66130        1.44090
C          2.99810       -0.13360        2.12790
C          3.27490       -1.50380        2.42140
S          4.85830       -2.19190        2.17290
C          4.39050       -3.69390        2.87250
C          3.08650       -3.68810        3.25840
C          2.43380       -2.44440        2.98250
N          1.10600       -2.25340        3.32410
C          0.65000       -3.09840        4.40080
C          0.95360       -4.55350        4.04340
N          2.38290       -4.74270        3.85800
C          2.97340       -5.92830        4.14310
O          4.14080       -6.19700        3.99840
O          2.09250       -6.83440        4.63950
C          0.30360       -1.33130        2.70230
C         -0.72970       -0.69560        3.28810
C         -1.57470        0.24900        2.63830
S         -1.64970        0.33500        0.90700
C         -2.96040        1.46880        0.93900
C         -3.29790        1.80660        2.24020
C         -2.48020        1.13760        3.21930
C         -2.67700        1.42170        4.60350
C         -1.74650        1.05950        5.67450
C         -0.43150        1.22330        5.62290
C         -3.76470        2.18130        4.95370
C         -4.60940        2.76610        3.99450
C         -4.38000        2.63800        2.65500
C         -5.25440        3.33760        1.66310
C         -3.53510        1.93530       -0.31250
C         -4.33840        1.21300       -1.11020
C         -4.85290       -0.09530       -0.85100
S         -4.61160       -0.87340        0.69840
C         -5.65440       -2.16420        0.28670
C         -6.14490       -2.03810       -0.97330
C         -5.67180       -0.87410       -1.65980
N         -6.05070       -0.63010       -2.96100
C         -7.04360       -1.50160       -3.56560
C         -7.93880       -2.15230       -2.51990
N         -7.10480       -2.86430       -1.57630
C         -7.23710       -4.17430       -1.26900
O         -6.55580       -4.78070       -0.48040
O         -8.24420       -4.76720       -1.96020
C         -5.44510        0.23570       -3.85750
C         -4.13460        0.47700       -4.08110
C         -2.97680       -0.15810       -3.56270
S         -3.01680       -1.66110       -2.70950
C         -1.30210       -1.90310       -2.83480
C         -0.72430       -0.89210       -3.61740
C         -1.65220        0.16210       -3.90480
C         -1.19820        1.37820       -4.48460
C         -2.03610        2.57380       -4.51670
C         -2.02930        3.47890       -5.48720
C          0.10150        1.42420       -4.93170
C          0.92830        0.29630       -4.87730
C          0.55290       -0.85980       -4.24000
C          1.44410       -2.06060       -4.35240
C         -0.80530       -3.02590       -2.10520
C          0.37810       -3.23100       -1.48170
C          1.48600       -2.33900       -1.32620
S          1.29690       -0.60940       -1.25720
C          2.99670       -0.36530       -1.27550
C          3.69380       -1.53600       -1.27720
C          2.82680       -2.67860       -1.25000
N          3.34370       -3.96750       -1.32740
C          4.65310       -4.00570       -1.94030
C          5.58400       -3.05590       -1.19280
N          5.08280       -1.69530       -1.32200
C          6.01260       -0.72290       -1.51820
O          7.20130       -0.94000       -1.54880
O          5.51170        0.51640       -1.69230
C          2.97030       -4.99870       -0.49120
C          2.12440       -4.93640        0.53210
H          6.46660        1.71840        1.07330
H          5.47040        5.51580       -1.16750
H          2.24910        3.26480        1.99340
H          1.53940        1.78890        1.28990
H          0.99160        3.76430       -0.08820
H          1.98710        2.60210       -0.98730
H          1.13430        6.66370       -1.22690
H          4.78750        0.26910        1.11000
H          2.06350        0.24020        2.51470
H          5.10220       -4.48680        2.95170
H         -0.42570       -2.97800        4.52560
H          1.15480       -2.83380        5.33880
H          0.42430       -4.81520        3.11920
H          0.61540       -5.21570        4.84040
H          2.58010       -7.64570        4.84070
H          0.56450       -1.12390        1.67180
H         -0.94920       -0.87330        4.32920
H         -2.21100        0.74880        6.60340
H          0.06070        1.57040        4.72980
H          0.20090        1.01300        6.46880
H         -3.95010        2.38650        5.99860
H         -5.43980        3.36570        4.33940
H         -6.06230        3.85570        2.17480
H         -4.68260        4.06940        1.09480
H         -5.68180        2.62590        0.95930
H         -3.28880        2.94810       -0.60870
H         -4.70900        1.67840       -2.01180
H         -5.83650       -2.95870        0.97950
H         -6.53730       -2.28800       -4.14270
H         -7.65030       -0.90930       -4.25870
H         -8.50750       -1.38380       -1.98230
H         -8.62970       -2.84750       -2.99320
H         -8.27880       -5.69800       -1.69910
H         -6.16150        0.72160       -4.51260
H         -3.92390        1.23210       -4.82640
H         -2.66720        2.71740       -3.64770
H         -1.43470        3.35400       -6.37670
H         -2.63340        4.36900       -5.43790
H          0.48770        2.34170       -5.34970
H          1.89900        0.34010       -5.35100
H          1.66180       -2.23660       -5.40620
H          2.39360       -1.89170       -3.84740
H          0.97900       -2.95090       -3.94400
H         -1.54090       -3.81450       -1.98610
H          0.53070       -4.21560       -1.05740
H          3.37630        0.63170       -1.29550
H          5.04760       -5.02110       -1.90490
H          4.56900       -3.69290       -2.98790
H          6.59630       -3.07410       -1.59960
H          5.62150       -3.33500       -0.13400
H          6.25660        1.12630       -1.81230
H          3.43460       -5.93940       -0.75710
H          1.88450       -5.82380        1.08740
H          1.67380       -4.01400        0.85040
