214

C         -3.65470       -6.28810        8.11950
C         -3.03700       -5.09140        8.18380
C         -3.04730       -4.39670        6.93960
C         -2.47090       -3.15450        6.63050
C         -1.85510       -2.31450        7.64300
S         -0.26120       -1.65720        7.41560
C         -0.30160       -0.82190        8.92840
C          0.81730        0.06540        9.34870
C          0.58430        1.49430        8.85150
C         -1.48940       -1.04320        9.55960
Cl        -1.90140       -0.36990       11.08340
C         -2.37040       -1.89260        8.83730
Cl        -3.95340       -2.26180        9.38870
C         -2.49540       -2.76870        5.29790
C         -3.08760       -3.54020        4.27020
C         -3.76020       -4.73070        4.59820
C         -4.50180       -5.49070        3.60760
S         -3.80490       -5.95830        2.08420
C         -5.24930       -6.76520        1.57140
C         -5.31410       -7.45030        0.25040
C         -5.03460       -6.48740       -0.90290
C         -6.20910       -6.66120        2.53170
C         -5.78990       -5.94400        3.68480
Cl        -6.85640       -5.61700        4.98370
Cl        -7.78900       -7.32780        2.40330
C         -3.69940       -5.14090        5.92800
S         -4.29320       -6.65270        6.55520
C         -2.92020       -2.94310        2.99580
C         -2.27380       -1.74100        3.02960
S         -1.83740       -1.28770        4.66980
C         -1.80630       -0.89660        1.97470
S         -0.58050        0.27560        2.40880
C         -0.27910        0.67130        0.77310
C         -1.09590       -0.01600       -0.06840
C         -2.01820       -0.88640        0.60320
N         -2.99230       -1.55980       -0.10780
C         -2.87660       -1.62300       -1.55660
C         -1.46580       -1.30390       -2.02410
N         -1.04490       -0.03800       -1.46200
C         -0.54330        0.92900       -2.27170
O         -0.46560        0.80490       -3.47140
O         -0.16170        2.03280       -1.61770
C         -4.19010       -1.90880        0.46470
C         -5.14530       -2.66700       -0.10790
C         -6.34530       -3.06780        0.56050
S         -6.52900       -2.87370        2.28700
C         -8.00100       -3.75930        2.29410
C         -8.36090       -4.15280        1.04410
C         -7.44900       -3.71610        0.03230
N         -7.68240       -3.98080       -1.31320
C         -8.75790       -4.89850       -1.65950
C         -9.09700       -5.80940       -0.48970
N         -9.40710       -5.00090        0.67310
C        -10.58110       -5.18460        1.32700
O        -11.42430       -5.97600        0.97920
O        -10.72980       -4.37530        2.39280
C         -7.26840       -3.12900       -2.31290
C         -7.07150       -1.80670       -2.14670
C         -6.37520       -0.95180       -3.04880
C         -5.50570       -1.27590       -4.05340
C         -4.77400       -0.17100       -4.55310
C         -3.66880       -0.18420       -5.42690
C         -3.29220       -1.40460       -6.11630
S         -1.67090       -2.03250       -6.05090
C         -2.08210       -3.40350       -7.02590
C         -1.07460       -4.45340       -7.34140
C         -0.98820       -5.48780       -6.21650
C         -3.40100       -3.36630       -7.36750
Cl        -4.17460       -4.55530       -8.33450
C         -4.08990       -2.23530       -6.85440
Cl        -5.74270       -1.92470       -7.19800
C         -2.90900        0.97630       -5.50120
C         -3.26180        2.16930       -4.82170
C         -4.43340        2.21710       -4.05020
C         -4.84090        3.42580       -3.34160
S         -6.30030        4.26210       -3.77300
C         -6.06680        5.45840       -2.54460
C         -7.00970        6.60010       -2.38870
C         -6.65250        7.73940       -3.34630
C         -4.91890        5.21030       -1.85370
C         -4.22330        4.05400       -2.29980
Cl        -2.78290        3.47980       -1.55650
Cl        -4.35850        6.18050       -0.55520
C         -5.13880        1.03540       -3.90640
S         -6.40840        0.77600       -2.74330
C         -2.22980        3.13390       -4.87240
C         -1.10510        2.68610       -5.50560
S         -1.36020        1.13230       -6.27610
C          0.22500        3.11340       -5.22110
C          1.38350        2.45230       -5.49720
C          2.43960        2.75560       -4.59960
C          3.66530        2.08270       -4.47610
C          4.06530        1.09300       -5.46610
S          4.33450        1.53160       -7.12490
C          4.70190       -0.09880       -7.57530
C          5.11150       -0.44360       -8.96440
C          6.61680       -0.24290       -9.15580
C          4.61560       -0.92040       -6.49150
Cl         4.90140       -2.61100       -6.54780
C          4.24900       -0.24930       -5.29380
Cl         3.98810       -1.06860       -3.81220
C          4.40410        2.32220       -3.32510
C          3.98270        3.22780       -2.32140
C          2.82370        4.00310       -2.50860
C          2.43810        5.00510       -1.53090
S          0.83610        5.08410       -0.85900
C          1.23330        6.44400        0.13200
C          0.23470        7.05830        1.05120
C         -1.19530        6.85220        0.56880
C          2.53400        6.80700       -0.06050
C          3.22180        5.99280       -0.99820
Cl         4.84820        6.28830       -1.45930
Cl         3.28560        8.12430        0.74430
C          2.05930        3.71200       -3.62850
S          0.44520        4.30740       -3.93880
C          4.77570        3.12370       -1.15190
C          5.79100        2.22420       -1.26490
S          5.86000        1.49260       -2.85390
C          6.64450        1.76630       -0.20550
C          6.25670        1.55300        1.08240
C          7.28390        1.01630        1.90020
C          7.20400        0.61560        3.24430
C          5.94800        0.64350        3.97790
S          4.53560       -0.16350        3.35440
C          3.59910        0.20410        4.76450
C          2.18340       -0.23670        4.90110
C          1.95750       -1.63840        4.34660
C          4.34900        0.92240        5.64690
Cl         3.76900        1.47510        7.16250
C          5.67700        1.17470        5.20790
Cl         6.77540        2.12650        6.11620
C          8.37150        0.13020        3.82430
C          9.59730        0.03090        3.12210
C          9.66210        0.38840        1.76740
C         10.88530        0.22430        0.99790
S         11.58700        1.54810        0.11740
C         12.89340        0.57180       -0.46080
C         13.97880        1.15360       -1.29730
C         15.04630        1.81760       -0.42420
C         12.77930       -0.70170        0.01150
C         11.63970       -0.90390        0.83540
Cl        11.22860       -2.43800        1.48700
Cl        13.88850       -1.96050       -0.34990
C          8.49960        0.88010        1.18860
S          8.31710        1.34070       -0.48060
C         10.64040       -0.47290        3.95320
C         10.21480       -0.78450        5.19390
S          8.53400       -0.47220        5.44910
H         -3.78570       -7.00610        8.90520
H         -2.56740       -4.70980        9.07110
H          1.75580       -0.31230        8.94060
H          0.88240        0.06390       10.43810
H         -0.33410        1.89500        9.27230
H          0.50630        1.50880        7.76680
H          1.41250        2.13140        9.14920
H         -6.30400       -7.89770        0.14320
H         -4.57640       -8.25690        0.22760
H         -5.10390       -7.01120       -1.85280
H         -5.74930       -5.66910       -0.89780
H         -4.03470       -6.07090       -0.80540
H         -3.24600       -3.41340        2.08850
H          0.46990        1.39240        0.52370
H         -3.58520       -0.91630       -2.00580
H         -3.13580       -2.63050       -1.89260
H         -0.77410       -2.08940       -1.69700
H         -1.43040       -1.22200       -3.11190
H          0.06980        2.72860       -2.26110
H         -4.34820       -1.51420        1.45700
H         -5.02320       -3.06070       -1.10380
H         -8.51340       -3.92730        3.21700
H         -9.65320       -4.32800       -1.94140
H         -8.44480       -5.49400       -2.52350
H         -9.97120       -6.42110       -0.71620
H         -8.24660       -6.45860       -0.25640
H        -11.59590       -4.54720        2.79020
H         -7.12800       -3.60630       -3.27520
H         -7.36950       -1.35190       -1.21220
H         -5.32680       -2.28830       -4.36500
H         -1.36190       -4.94800       -8.27100
H         -0.09820       -3.98640       -7.47910
H         -1.95130       -5.97140       -6.07400
H         -0.25070       -6.24650       -6.46360
H         -0.69700       -5.00730       -5.28550
H         -8.02660        6.26050       -2.59160
H         -6.95850        6.95840       -1.35880
H         -5.64570        8.09770       -3.14660
H         -6.70150        7.39510       -4.37660
H         -7.34760        8.56490       -3.22040
H         -2.27340        4.07470       -4.35290
H          1.44360        1.67550       -6.23780
H          4.56800        0.18680       -9.67010
H          4.85510       -1.48730       -9.15590
H          6.90160       -0.50140      -10.17200
H          7.17140       -0.87440       -8.46650
H          6.88580        0.79420       -8.97010
H          0.34940        6.61800        2.04730
H          0.45870        8.12420        1.13850
H         -1.33100        7.28770       -0.41820
H         -1.42600        5.79080        0.51030
H         -1.89580        7.32140        1.25470
H          4.58190        3.67470       -0.25030
H          5.25810        1.74340        1.42980
H          1.91310       -0.20760        5.95810
H          1.53010        0.46340        4.37170
H          2.59730       -2.35560        4.85330
H          0.92230       -1.92880        4.49740
H          2.17830       -1.66490        3.28230
H         13.55410        1.89380       -1.97740
H         14.43290        0.35500       -1.88660
H         15.48900        1.08850        0.24970
H         14.60560        2.61630        0.16760
H         15.83110        2.23690       -1.04790
H         11.65730       -0.58390        3.62560
H         10.78990       -1.18280        6.00690
