
  xtb     02282216483D
 energy: -150.374943527748 gnorm: 0.000844357392 xtb: 6.4.1 (unknown)
 80 85  0     0  0            999 V2000
    4.7188   -3.2609    3.3725 C   0  0  0  0  0  0  0  0  0  0  0  0
    3.4095   -3.5098    3.6624 C   0  0  0  0  0  0  0  0  0  0  0  0
    2.8746   -4.6852    4.4136 C   0  0  0  0  0  0  0  0  0  0  0  0
    1.7940   -5.4001    3.6044 C   0  0  0  0  0  0  0  0  0  0  0  0
    2.5509   -2.5774    3.1962 N   0  0  0  0  0  0  0  0  0  0  0  0
    3.1383   -1.6180    2.5584 C   0  0  0  0  0  0  0  0  0  0  0  0
    4.8898   -1.7986    2.4818 S   0  0  0  0  0  0  0  0  0  0  0  0
    2.4124   -0.5389    1.9870 C   0  0  0  0  0  0  0  0  0  0  0  0
    2.7845    0.5380    1.2025 C   0  0  0  0  0  0  0  0  0  0  0  0
    4.1558    0.8586    0.7115 C   0  0  0  0  0  0  0  0  0  0  0  0
    4.5316   -0.0189   -0.4846 C   0  0  0  0  0  0  0  0  0  0  0  0
    1.7617    1.3234    0.8349 N   0  0  0  0  0  0  0  0  0  0  0  0
    0.6046    0.9205    1.2784 C   0  0  0  0  0  0  0  0  0  0  0  0
    0.6966   -0.5191    2.2606 S   0  0  0  0  0  0  0  0  0  0  0  0
   -0.5738    1.6425    0.9274 C   0  0  0  0  0  0  0  0  0  0  0  0
   -0.2598    3.0791   -0.0081 S   0  0  0  0  0  0  0  0  0  0  0  0
   -1.9354    3.3715   -0.2127 C   0  0  0  0  0  0  0  0  0  0  0  0
   -2.7062    2.4220    0.3929 C   0  0  0  0  0  0  0  0  0  0  0  0
   -4.1086    2.4598    0.3852 N   0  0  0  0  0  0  0  0  0  0  0  0
   -4.7446    1.2250    0.4481 O   0  0  0  0  0  0  0  0  0  0  0  0
   -4.6230    3.2215   -0.6458 O   0  0  0  0  0  0  0  0  0  0  0  0
   -1.9298    1.4398    1.0830 C   0  0  0  0  0  0  0  0  0  0  0  0
   -2.6428    0.4408    1.7576 N   0  0  0  0  0  0  0  0  0  0  0  0
   -3.4056    0.9494    2.8260 O   0  0  0  0  0  0  0  0  0  0  0  0
   -1.8731   -0.6299    2.2659 O   0  0  0  0  0  0  0  0  0  0  0  0
   -2.3162   -1.8321    1.8448 C   0  0  0  0  0  0  0  0  0  0  0  0
   -2.3046   -3.1474    2.9598 S   0  0  0  0  0  0  0  0  0  0  0  0
   -2.9366   -4.2038    1.7534 C   0  0  0  0  0  0  0  0  0  0  0  0
   -3.1532   -3.5744    0.5653 C   0  0  0  0  0  0  0  0  0  0  0  0
   -3.6072   -4.1848   -0.6178 N   0  0  0  0  0  0  0  0  0  0  0  0
   -3.7717   -5.5420   -0.5389 O   0  0  0  0  0  0  0  0  0  0  0  0
   -4.7698   -3.5773   -1.1263 O   0  0  0  0  0  0  0  0  0  0  0  0
   -2.7820   -2.1903    0.6070 C   0  0  0  0  0  0  0  0  0  0  0  0
   -2.6696   -1.2669   -0.4573 N   0  0  0  0  0  0  0  0  0  0  0  0
   -3.8365   -0.9835   -1.1409 O   0  0  0  0  0  0  0  0  0  0  0  0
   -1.7052   -1.8219   -1.4040 O   0  0  0  0  0  0  0  0  0  0  0  0
   -0.6973   -0.9752   -1.6591 C   0  0  0  0  0  0  0  0  0  0  0  0
    0.6486   -1.1594   -1.4686 C   0  0  0  0  0  0  0  0  0  0  0  0
    1.3576   -2.3685   -0.9452 C   0  0  0  0  0  0  0  0  0  0  0  0
    0.5195   -3.2951   -0.0767 C   0  0  0  0  0  0  0  0  0  0  0  0
    1.4027   -0.1205   -1.8899 N   0  0  0  0  0  0  0  0  0  0  0  0
    0.7234    0.8570   -2.3900 C   0  0  0  0  0  0  0  0  0  0  0  0
   -1.0075    0.5746   -2.4099 S   0  0  0  0  0  0  0  0  0  0  0  0
    1.3024    2.0774   -2.8465 C   0  0  0  0  0  0  0  0  0  0  0  0
    0.8437    3.0096   -3.7566 C   0  0  0  0  0  0  0  0  0  0  0  0
   -0.4249    2.9668   -4.5417 C   0  0  0  0  0  0  0  0  0  0  0  0
   -1.5467    3.7178   -3.8236 C   0  0  0  0  0  0  0  0  0  0  0  0
    1.6802    4.0551   -3.9463 N   0  0  0  0  0  0  0  0  0  0  0  0
    2.7437    3.9666   -3.2316 C   0  0  0  0  0  0  0  0  0  0  0  0
    2.8536    2.5609   -2.2337 S   0  0  0  0  0  0  0  0  0  0  0  0
    5.5832   -3.8393    3.6276 H   0  0  0  0  0  0  0  0  0  0  0  0
    3.6932   -5.3667    4.6508 H   0  0  0  0  0  0  0  0  0  0  0  0
    2.4402   -4.3277    5.3509 H   0  0  0  0  0  0  0  0  0  0  0  0
    1.3684   -6.2176    4.1813 H   0  0  0  0  0  0  0  0  0  0  0  0
    2.2118   -5.8039    2.6845 H   0  0  0  0  0  0  0  0  0  0  0  0
    1.0050   -4.6980    3.3481 H   0  0  0  0  0  0  0  0  0  0  0  0
    4.1565    1.9054    0.4062 H   0  0  0  0  0  0  0  0  0  0  0  0
    4.8820    0.7215    1.5161 H   0  0  0  0  0  0  0  0  0  0  0  0
    5.4732    0.3182   -0.9093 H   0  0  0  0  0  0  0  0  0  0  0  0
    4.6448   -1.0572   -0.1816 H   0  0  0  0  0  0  0  0  0  0  0  0
    3.7568    0.0397   -1.2451 H   0  0  0  0  0  0  0  0  0  0  0  0
   -2.2751    4.2399   -0.7393 H   0  0  0  0  0  0  0  0  0  0  0  0
   -4.4212    0.6057   -0.2425 H   0  0  0  0  0  0  0  0  0  0  0  0
   -4.3360    2.8779   -1.5146 H   0  0  0  0  0  0  0  0  0  0  0  0
   -4.3217    0.9671    2.4979 H   0  0  0  0  0  0  0  0  0  0  0  0
   -3.0395   -5.2456    1.9818 H   0  0  0  0  0  0  0  0  0  0  0  0
   -4.3757   -5.7965    0.1863 H   0  0  0  0  0  0  0  0  0  0  0  0
   -5.5257   -3.6777   -0.5167 H   0  0  0  0  0  0  0  0  0  0  0  0
   -4.2461   -1.8111   -1.4783 H   0  0  0  0  0  0  0  0  0  0  0  0
    1.7403   -2.9234   -1.8080 H   0  0  0  0  0  0  0  0  0  0  0  0
    2.2244   -2.0108   -0.3854 H   0  0  0  0  0  0  0  0  0  0  0  0
   -0.3243   -3.6946   -0.6329 H   0  0  0  0  0  0  0  0  0  0  0  0
    0.1476   -2.7673    0.7985 H   0  0  0  0  0  0  0  0  0  0  0  0
    1.1336   -4.1245    0.2657 H   0  0  0  0  0  0  0  0  0  0  0  0
   -0.2320    3.4440   -5.5033 H   0  0  0  0  0  0  0  0  0  0  0  0
   -0.7261    1.9317   -4.7121 H   0  0  0  0  0  0  0  0  0  0  0  0
   -1.2414    4.7420   -3.6260 H   0  0  0  0  0  0  0  0  0  0  0  0
   -2.4423    3.7298   -4.4395 H   0  0  0  0  0  0  0  0  0  0  0  0
   -1.7745    3.2318   -2.8789 H   0  0  0  0  0  0  0  0  0  0  0  0
    3.5248    4.7006   -3.2437 H   0  0  0  0  0  0  0  0  0  0  0  0
  1  2  2  0  0  0  0
  2  3  1  0  0  0  0
  3  4  1  0  0  0  0
  2  5  1  0  0  0  0
  5  6  2  0  0  0  0
  6  7  1  0  0  0  0
  6  8  1  0  0  0  0
  8  9  2  0  0  0  0
  9 10  1  0  0  0  0
 10 11  1  0  0  0  0
  9 12  1  0  0  0  0
 12 13  2  0  0  0  0
 13 14  1  0  0  0  0
 13 15  1  0  0  0  0
 15 16  1  0  0  0  0
 16 17  1  0  0  0  0
 17 18  2  0  0  0  0
 18 19  1  0  0  0  0
 19 20  1  0  0  0  0
 19 21  1  0  0  0  0
 18 22  1  0  0  0  0
 22 23  1  0  0  0  0
 23 24  1  0  0  0  0
 23 25  1  0  0  0  0
 25 26  1  0  0  0  0
 26 27  1  0  0  0  0
 27 28  1  0  0  0  0
 28 29  2  0  0  0  0
 29 30  1  0  0  0  0
 30 31  1  0  0  0  0
 30 32  1  0  0  0  0
 29 33  1  0  0  0  0
 33 34  1  0  0  0  0
 34 35  1  0  0  0  0
 34 36  1  0  0  0  0
 36 37  1  0  0  0  0
 37 38  2  0  0  0  0
 38 39  1  0  0  0  0
 39 40  1  0  0  0  0
 38 41  1  0  0  0  0
 41 42  2  0  0  0  0
 42 43  1  0  0  0  0
 42 44  1  0  0  0  0
 44 45  2  0  0  0  0
 45 46  1  0  0  0  0
 46 47  1  0  0  0  0
 45 48  1  0  0  0  0
 48 49  2  0  0  0  0
 49 50  1  0  0  0  0
  7  1  1  0  0  0  0
 14  8  1  0  0  0  0
 22 15  2  0  0  0  0
 33 26  2  0  0  0  0
 43 37  1  0  0  0  0
 50 44  1  0  0  0  0
  1 51  1  0  0  0  0
  3 52  1  0  0  0  0
  3 53  1  0  0  0  0
  4 54  1  0  0  0  0
  4 55  1  0  0  0  0
  4 56  1  0  0  0  0
 10 57  1  0  0  0  0
 10 58  1  0  0  0  0
 11 59  1  0  0  0  0
 11 60  1  0  0  0  0
 11 61  1  0  0  0  0
 17 62  1  0  0  0  0
 20 63  1  0  0  0  0
 21 64  1  0  0  0  0
 24 65  1  0  0  0  0
 28 66  1  0  0  0  0
 31 67  1  0  0  0  0
 32 68  1  0  0  0  0
 35 69  1  0  0  0  0
 39 70  1  0  0  0  0
 39 71  1  0  0  0  0
 40 72  1  0  0  0  0
 40 73  1  0  0  0  0
 40 74  1  0  0  0  0
 46 75  1  0  0  0  0
 46 76  1  0  0  0  0
 47 77  1  0  0  0  0
 47 78  1  0  0  0  0
 47 79  1  0  0  0  0
 49 80  1  0  0  0  0
M  END
