80

C          4.71880       -3.26090        3.37250
C          3.40950       -3.50980        3.66240
C          2.87460       -4.68520        4.41360
C          1.79400       -5.40010        3.60440
N          2.55090       -2.57740        3.19620
C          3.13830       -1.61800        2.55840
S          4.88980       -1.79860        2.48180
C          2.41240       -0.53890        1.98700
C          2.78450        0.53800        1.20250
C          4.15580        0.85860        0.71150
C          4.53160       -0.01890       -0.48460
N          1.76170        1.32340        0.83490
C          0.60460        0.92050        1.27840
S          0.69660       -0.51910        2.26060
C         -0.57380        1.64250        0.92740
S         -0.25980        3.07910       -0.00810
C         -1.93540        3.37150       -0.21270
C         -2.70620        2.42200        0.39290
N         -4.10860        2.45980        0.38520
O         -4.74460        1.22500        0.44810
O         -4.62300        3.22150       -0.64580
C         -1.92980        1.43980        1.08300
N         -2.64280        0.44080        1.75760
O         -3.40560        0.94940        2.82600
O         -1.87310       -0.62990        2.26590
C         -2.31620       -1.83210        1.84480
S         -2.30460       -3.14740        2.95980
C         -2.93660       -4.20380        1.75340
C         -3.15320       -3.57440        0.56530
N         -3.60720       -4.18480       -0.61780
O         -3.77170       -5.54200       -0.53890
O         -4.76980       -3.57730       -1.12630
C         -2.78200       -2.19030        0.60700
N         -2.66960       -1.26690       -0.45730
O         -3.83650       -0.98350       -1.14090
O         -1.70520       -1.82190       -1.40400
C         -0.69730       -0.97520       -1.65910
C          0.64860       -1.15940       -1.46860
C          1.35760       -2.36850       -0.94520
C          0.51950       -3.29510       -0.07670
N          1.40270       -0.12050       -1.88990
C          0.72340        0.85700       -2.39000
S         -1.00750        0.57460       -2.40990
C          1.30240        2.07740       -2.84650
C          0.84370        3.00960       -3.75660
C         -0.42490        2.96680       -4.54170
C         -1.54670        3.71780       -3.82360
N          1.68020        4.05510       -3.94630
C          2.74370        3.96660       -3.23160
S          2.85360        2.56090       -2.23370
H          5.58320       -3.83930        3.62760
H          3.69320       -5.36670        4.65080
H          2.44020       -4.32770        5.35090
H          1.36840       -6.21760        4.18130
H          2.21180       -5.80390        2.68450
H          1.00500       -4.69800        3.34810
H          4.15650        1.90540        0.40620
H          4.88200        0.72150        1.51610
H          5.47320        0.31820       -0.90930
H          4.64480       -1.05720       -0.18160
H          3.75680        0.03970       -1.24510
H         -2.27510        4.23990       -0.73930
H         -4.42120        0.60570       -0.24250
H         -4.33600        2.87790       -1.51460
H         -4.32170        0.96710        2.49790
H         -3.03950       -5.24560        1.98180
H         -4.37570       -5.79650        0.18630
H         -5.52570       -3.67770       -0.51670
H         -4.24610       -1.81110       -1.47830
H          1.74030       -2.92340       -1.80800
H          2.22440       -2.01080       -0.38540
H         -0.32430       -3.69460       -0.63290
H          0.14760       -2.76730        0.79850
H          1.13360       -4.12450        0.26570
H         -0.23200        3.44400       -5.50330
H         -0.72610        1.93170       -4.71210
H         -1.24140        4.74200       -3.62600
H         -2.44230        3.72980       -4.43950
H         -1.77450        3.23180       -2.87890
H          3.52480        4.70060       -3.24370
