
  xtb     03012219443D
 energy: -468.775875382663 gnorm: 0.000735435359 xtb: 6.4.1 (unknown)
232258  0     0  0            999 V2000
    0.5964   -2.6722    9.2288 C   0  0  0  0  0  0  0  0  0  0  0  0
    0.8532   -1.3491    9.2784 C   0  0  0  0  0  0  0  0  0  0  0  0
    0.0675   -0.5980    8.3565 C   0  0  0  0  0  0  0  0  0  0  0  0
    0.1443    0.7753    8.0740 C   0  0  0  0  0  0  0  0  0  0  0  0
    1.0523    1.6578    8.7888 C   0  0  0  0  0  0  0  0  0  0  0  0
    2.1905    2.6514    7.9283 S   0  0  0  0  0  0  0  0  0  0  0  0
    2.7965    3.3574    9.3886 C   0  0  0  0  0  0  0  0  0  0  0  0
    3.8562    4.4025    9.3471 C   0  0  0  0  0  0  0  0  0  0  0  0
    3.3451    5.6816    8.6820 C   0  0  0  0  0  0  0  0  0  0  0  0
    2.1422    2.8454   10.4686 C   0  0  0  0  0  0  0  0  0  0  0  0
    2.4561    3.3056   12.0921 Cl  0  0  0  0  0  0  0  0  0  0  0  0
    1.1561    1.8772   10.1329 C   0  0  0  0  0  0  0  0  0  0  0  0
    0.1542    1.1301   11.3096 Cl  0  0  0  0  0  0  0  0  0  0  0  0
   -0.6698    1.2559    7.0569 C   0  0  0  0  0  0  0  0  0  0  0  0
   -1.5620    0.4296    6.3354 C   0  0  0  0  0  0  0  0  0  0  0  0
   -1.6012   -0.9554    6.5763 C   0  0  0  0  0  0  0  0  0  0  0  0
   -2.3598   -1.8189    5.6887 C   0  0  0  0  0  0  0  0  0  0  0  0
   -2.1650   -1.6420    3.9630 S   0  0  0  0  0  0  0  0  0  0  0  0
   -3.2801   -2.9122    3.6292 C   0  0  0  0  0  0  0  0  0  0  0  0
   -3.5831   -3.3016    2.2256 C   0  0  0  0  0  0  0  0  0  0  0  0
   -2.6340   -4.3992    1.7418 C   0  0  0  0  0  0  0  0  0  0  0  0
   -3.7589   -3.4454    4.7902 C   0  0  0  0  0  0  0  0  0  0  0  0
   -3.2399   -2.8305    5.9610 C   0  0  0  0  0  0  0  0  0  0  0  0
   -3.7598   -3.2661    7.5344 Cl  0  0  0  0  0  0  0  0  0  0  0  0
   -4.8984   -4.7276    4.8519 Cl  0  0  0  0  0  0  0  0  0  0  0  0
   -0.7966   -1.4333    7.6052 C   0  0  0  0  0  0  0  0  0  0  0  0
   -0.6097   -3.1015    8.0684 S   0  0  0  0  0  0  0  0  0  0  0  0
   -2.3278    1.1708    5.4022 C   0  0  0  0  0  0  0  0  0  0  0  0
   -1.9976    2.4903    5.3572 C   0  0  0  0  0  0  0  0  0  0  0  0
   -0.7423    2.9066    6.5028 S   0  0  0  0  0  0  0  0  0  0  0  0
   -2.5075    3.4479    4.4260 C   0  0  0  0  0  0  0  0  0  0  0  0
   -1.8198    4.4693    3.8384 C   0  0  0  0  0  0  0  0  0  0  0  0
   -2.5412    5.0926    2.7936 C   0  0  0  0  0  0  0  0  0  0  0  0
   -2.0577    6.0332    1.8643 C   0  0  0  0  0  0  0  0  0  0  0  0
   -0.6834    6.5103    1.9379 C   0  0  0  0  0  0  0  0  0  0  0  0
   -0.1022    7.3786    3.3257 S   0  0  0  0  0  0  0  0  0  0  0  0
    1.4975    7.5088    2.6737 C   0  0  0  0  0  0  0  0  0  0  0  0
    2.5890    8.1558    3.4522 C   0  0  0  0  0  0  0  0  0  0  0  0
    2.9979    7.2913    4.6470 C   0  0  0  0  0  0  0  0  0  0  0  0
    1.5602    6.9043    1.4543 C   0  0  0  0  0  0  0  0  0  0  0  0
    2.9783    6.8166    0.4916 Cl  0  0  0  0  0  0  0  0  0  0  0  0
    0.3261    6.3378    1.0329 C   0  0  0  0  0  0  0  0  0  0  0  0
    0.1826    5.4506   -0.4279 Cl  0  0  0  0  0  0  0  0  0  0  0  0
   -2.8971    6.3645    0.8155 C   0  0  0  0  0  0  0  0  0  0  0  0
   -4.2067    5.8383    0.6796 C   0  0  0  0  0  0  0  0  0  0  0  0
   -4.7066    4.9272    1.6292 C   0  0  0  0  0  0  0  0  0  0  0  0
   -6.0382    4.3728    1.4882 C   0  0  0  0  0  0  0  0  0  0  0  0
   -6.3428    2.6659    1.5706 S   0  0  0  0  0  0  0  0  0  0  0  0
   -8.0390    2.8835    1.3073 C   0  0  0  0  0  0  0  0  0  0  0  0
   -8.9727    1.7237    1.3103 C   0  0  0  0  0  0  0  0  0  0  0  0
   -9.3465    1.3336    2.7424 C   0  0  0  0  0  0  0  0  0  0  0  0
   -8.3391    4.2071    1.1690 C   0  0  0  0  0  0  0  0  0  0  0  0
   -7.2059    5.0542    1.2626 C   0  0  0  0  0  0  0  0  0  0  0  0
   -7.3234    6.7653    1.1855 Cl  0  0  0  0  0  0  0  0  0  0  0  0
   -9.9226    4.8121    0.8986 Cl  0  0  0  0  0  0  0  0  0  0  0  0
   -3.8350    4.5376    2.6374 C   0  0  0  0  0  0  0  0  0  0  0  0
   -4.1185    3.2651    3.7824 S   0  0  0  0  0  0  0  0  0  0  0  0
   -4.7577    6.1240   -0.5908 C   0  0  0  0  0  0  0  0  0  0  0  0
   -3.8965    6.7938   -1.4173 C   0  0  0  0  0  0  0  0  0  0  0  0
   -2.4418    7.2987   -0.5858 S   0  0  0  0  0  0  0  0  0  0  0  0
   -3.8879    6.6146   -2.8361 C   0  0  0  0  0  0  0  0  0  0  0  0
   -2.7635    6.2197   -3.5073 C   0  0  0  0  0  0  0  0  0  0  0  0
   -3.0400    5.3556   -4.5914 C   0  0  0  0  0  0  0  0  0  0  0  0
   -2.1118    4.4564   -5.1603 C   0  0  0  0  0  0  0  0  0  0  0  0
   -0.6963    4.6387   -4.9262 C   0  0  0  0  0  0  0  0  0  0  0  0
    0.3213    3.3428   -4.3620 S   0  0  0  0  0  0  0  0  0  0  0  0
    1.7013    4.3800   -4.2295 C   0  0  0  0  0  0  0  0  0  0  0  0
    3.0088    3.8541   -3.7504 C   0  0  0  0  0  0  0  0  0  0  0  0
    3.4705    2.6531   -4.5743 C   0  0  0  0  0  0  0  0  0  0  0  0
    1.3826    5.6480   -4.6175 C   0  0  0  0  0  0  0  0  0  0  0  0
    2.4907    6.9576   -4.6313 Cl  0  0  0  0  0  0  0  0  0  0  0  0
    0.0256    5.8014   -5.0055 C   0  0  0  0  0  0  0  0  0  0  0  0
   -0.6031    7.2875   -5.5847 Cl  0  0  0  0  0  0  0  0  0  0  0  0
   -2.6585    3.3074   -5.7185 C   0  0  0  0  0  0  0  0  0  0  0  0
   -4.0483    3.1408   -5.9199 C   0  0  0  0  0  0  0  0  0  0  0  0
   -4.9568    4.1652   -5.5746 C   0  0  0  0  0  0  0  0  0  0  0  0
   -6.3629    4.0267   -5.8780 C   0  0  0  0  0  0  0  0  0  0  0  0
   -7.6215    4.4136   -4.7397 S   0  0  0  0  0  0  0  0  0  0  0  0
   -8.8711    3.9817   -5.8548 C   0  0  0  0  0  0  0  0  0  0  0  0
  -10.3077    4.1374   -5.4993 C   0  0  0  0  0  0  0  0  0  0  0  0
  -10.7848    5.5642   -5.7826 C   0  0  0  0  0  0  0  0  0  0  0  0
   -8.3323    3.5789   -7.0417 C   0  0  0  0  0  0  0  0  0  0  0  0
   -6.9135    3.5915   -7.0580 C   0  0  0  0  0  0  0  0  0  0  0  0
   -6.0068    3.1755   -8.4540 Cl  0  0  0  0  0  0  0  0  0  0  0  0
   -9.2643    3.0928   -8.3977 Cl  0  0  0  0  0  0  0  0  0  0  0  0
   -4.4305    5.1911   -4.7984 C   0  0  0  0  0  0  0  0  0  0  0  0
   -5.3519    6.1914   -3.7005 S   0  0  0  0  0  0  0  0  0  0  0  0
   -4.3905    1.7763   -6.1140 C   0  0  0  0  0  0  0  0  0  0  0  0
   -3.3268    0.9380   -6.0313 C   0  0  0  0  0  0  0  0  0  0  0  0
   -1.8045    1.8080   -5.9457 S   0  0  0  0  0  0  0  0  0  0  0  0
   -3.3153   -0.4528   -5.6408 C   0  0  0  0  0  0  0  0  0  0  0  0
   -2.8589   -1.5690   -6.3191 C   0  0  0  0  0  0  0  0  0  0  0  0
   -2.4644   -1.5926   -7.6600 N   0  0  0  0  0  4  0  0  0  0  0  0
   -2.2588   -2.6745   -8.1827 O   0  0  0  0  0  1  0  0  0  0  0  0
   -2.3260   -0.5167   -8.2320 O   0  0  0  0  0  0  0  0  0  0  0  0
   -2.8369   -2.7005   -5.4279 C   0  0  0  0  0  0  0  0  0  0  0  0
   -3.1513   -2.2546   -4.1893 C   0  0  0  0  0  0  0  0  0  0  0  0
   -3.4569   -0.8380   -4.2565 C   0  0  0  0  0  0  0  0  0  0  0  0
   -3.6819    0.0110   -3.1658 C   0  0  0  0  0  0  0  0  0  0  0  0
   -4.5603    1.1201   -3.0534 C   0  0  0  0  0  0  0  0  0  0  0  0
   -4.5817    1.5454   -1.7528 C   0  0  0  0  0  0  0  0  0  0  0  0
   -3.6855    0.7428   -0.9853 C   0  0  0  0  0  0  0  0  0  0  0  0
   -3.4288    0.9289    0.3610 N   0  0  0  0  0  4  0  0  0  0  0  0
   -3.7518    1.9928    0.8797 O   0  0  0  0  0  1  0  0  0  0  0  0
   -2.8982    0.0117    0.9902 O   0  0  0  0  0  0  0  0  0  0  0  0
   -3.0737   -0.1802   -1.8452 C   0  0  0  0  0  0  0  0  0  0  0  0
   -1.8922   -0.9306   -1.6820 C   0  0  0  0  0  0  0  0  0  0  0  0
   -1.0399   -1.2240   -2.7384 C   0  0  0  0  0  0  0  0  0  0  0  0
    0.0302   -2.0511   -2.3891 C   0  0  0  0  0  0  0  0  0  0  0  0
    0.9813   -2.6284   -3.2664 C   0  0  0  0  0  0  0  0  0  0  0  0
    0.9538   -2.3117   -4.6800 C   0  0  0  0  0  0  0  0  0  0  0  0
    0.9441   -0.6560   -5.2287 S   0  0  0  0  0  0  0  0  0  0  0  0
    0.8526   -1.1214   -6.8919 C   0  0  0  0  0  0  0  0  0  0  0  0
    0.7943   -0.1142   -7.9823 C   0  0  0  0  0  0  0  0  0  0  0  0
    1.4940    1.1878   -7.6161 C   0  0  0  0  0  0  0  0  0  0  0  0
    0.8303   -2.4852   -7.0022 C   0  0  0  0  0  0  0  0  0  0  0  0
    0.7181   -3.3180   -8.4931 Cl  0  0  0  0  0  0  0  0  0  0  0  0
    0.8929   -3.1596   -5.7543 C   0  0  0  0  0  0  0  0  0  0  0  0
    0.7894   -4.8611   -5.6304 Cl  0  0  0  0  0  0  0  0  0  0  0  0
    1.8847   -3.5097   -2.6952 C   0  0  0  0  0  0  0  0  0  0  0  0
    1.9120   -3.7769   -1.2988 C   0  0  0  0  0  0  0  0  0  0  0  0
    0.9605   -3.1984   -0.4303 C   0  0  0  0  0  0  0  0  0  0  0  0
    1.0021   -3.4499    0.9998 C   0  0  0  0  0  0  0  0  0  0  0  0
    1.0262   -2.1147    2.1150 S   0  0  0  0  0  0  0  0  0  0  0  0
    1.1501   -3.1616    3.4815 C   0  0  0  0  0  0  0  0  0  0  0  0
    1.2436   -2.6386    4.8726 C   0  0  0  0  0  0  0  0  0  0  0  0
    1.4603   -1.1330    4.9153 C   0  0  0  0  0  0  0  0  0  0  0  0
    1.1505   -4.4678    3.0846 C   0  0  0  0  0  0  0  0  0  0  0  0
    1.0699   -4.6385    1.6781 C   0  0  0  0  0  0  0  0  0  0  0  0
    0.9801   -6.1901    0.9463 Cl  0  0  0  0  0  0  0  0  0  0  0  0
    1.2516   -5.7869    4.1769 Cl  0  0  0  0  0  0  0  0  0  0  0  0
    0.0208   -2.3604   -1.0032 C   0  0  0  0  0  0  0  0  0  0  0  0
   -1.3013   -1.5742   -0.1741 S   0  0  0  0  0  0  0  0  0  0  0  0
    2.9762   -4.6257   -0.9493 C   0  0  0  0  0  0  0  0  0  0  0  0
    3.7195   -5.0491   -2.0218 C   0  0  0  0  0  0  0  0  0  0  0  0
    3.1640   -4.3566   -3.5216 S   0  0  0  0  0  0  0  0  0  0  0  0
    4.7725   -6.0073   -1.9617 C   0  0  0  0  0  0  0  0  0  0  0  0
    5.1256   -6.7188   -0.8481 C   0  0  0  0  0  0  0  0  0  0  0  0
    6.1312   -7.6793   -1.0880 C   0  0  0  0  0  0  0  0  0  0  0  0
    6.6462   -8.6209   -0.1797 C   0  0  0  0  0  0  0  0  0  0  0  0
    6.0765   -8.7339    1.1519 C   0  0  0  0  0  0  0  0  0  0  0  0
    7.0545   -8.6667    2.5872 S   0  0  0  0  0  0  0  0  0  0  0  0
    5.6776   -8.8018    3.6251 C   0  0  0  0  0  0  0  0  0  0  0  0
    5.8069   -8.7369    5.1069 C   0  0  0  0  0  0  0  0  0  0  0  0
    5.5498   -7.3149    5.6129 C   0  0  0  0  0  0  0  0  0  0  0  0
    4.5331   -8.8981    2.8892 C   0  0  0  0  0  0  0  0  0  0  0  0
    2.9653   -9.0390    3.5715 Cl  0  0  0  0  0  0  0  0  0  0  0  0
    4.7549   -8.8653    1.4876 C   0  0  0  0  0  0  0  0  0  0  0  0
    3.4789   -9.0561    0.3536 Cl  0  0  0  0  0  0  0  0  0  0  0  0
    7.6741   -9.4323   -0.6387 C   0  0  0  0  0  0  0  0  0  0  0  0
    8.1649   -9.3716   -1.9659 C   0  0  0  0  0  0  0  0  0  0  0  0
    7.6161   -8.4616   -2.8855 C   0  0  0  0  0  0  0  0  0  0  0  0
    8.0766   -8.3997   -4.2640 C   0  0  0  0  0  0  0  0  0  0  0  0
    8.0805   -9.8101   -5.2810 S   0  0  0  0  0  0  0  0  0  0  0  0
    8.6773   -8.9241   -6.6426 C   0  0  0  0  0  0  0  0  0  0  0  0
    8.9739   -9.6032   -7.9336 C   0  0  0  0  0  0  0  0  0  0  0  0
   10.3557  -10.2607   -7.9007 C   0  0  0  0  0  0  0  0  0  0  0  0
    8.8694   -7.6168   -6.3088 C   0  0  0  0  0  0  0  0  0  0  0  0
    8.5221   -7.3135   -4.9645 C   0  0  0  0  0  0  0  0  0  0  0  0
    8.7335   -5.7524   -4.2911 Cl  0  0  0  0  0  0  0  0  0  0  0  0
    9.4676   -6.4290   -7.3931 Cl  0  0  0  0  0  0  0  0  0  0  0  0
    6.6027   -7.6316   -2.4232 C   0  0  0  0  0  0  0  0  0  0  0  0
    5.7158   -6.4623   -3.3612 S   0  0  0  0  0  0  0  0  0  0  0  0
    9.2153  -10.3114   -2.1755 C   0  0  0  0  0  0  0  0  0  0  0  0
    9.4860  -11.0483   -1.0782 C   0  0  0  0  0  0  0  0  0  0  0  0
    8.4949  -10.6592    0.2835 S   0  0  0  0  0  0  0  0  0  0  0  0
    1.0434   -3.4518    9.8140 H   0  0  0  0  0  0  0  0  0  0  0  0
    1.5807   -0.9071    9.9333 H   0  0  0  0  0  0  0  0  0  0  0  0
    4.7160    4.0261    8.7878 H   0  0  0  0  0  0  0  0  0  0  0  0
    4.1739    4.6143   10.3690 H   0  0  0  0  0  0  0  0  0  0  0  0
    2.4957    6.0797    9.2313 H   0  0  0  0  0  0  0  0  0  0  0  0
    3.0329    5.4759    7.6608 H   0  0  0  0  0  0  0  0  0  0  0  0
    4.1305    6.4322    8.6637 H   0  0  0  0  0  0  0  0  0  0  0  0
   -4.6130   -3.6603    2.1724 H   0  0  0  0  0  0  0  0  0  0  0  0
   -3.4752   -2.4209    1.5902 H   0  0  0  0  0  0  0  0  0  0  0  0
   -2.8736   -4.6777    0.7192 H   0  0  0  0  0  0  0  0  0  0  0  0
   -1.6070   -4.0455    1.7730 H   0  0  0  0  0  0  0  0  0  0  0  0
   -2.7187   -5.2808    2.3723 H   0  0  0  0  0  0  0  0  0  0  0  0
   -3.0829    0.7481    4.7660 H   0  0  0  0  0  0  0  0  0  0  0  0
   -0.8083    4.7182    4.1046 H   0  0  0  0  0  0  0  0  0  0  0  0
    3.4445    8.3058    2.7919 H   0  0  0  0  0  0  0  0  0  0  0  0
    2.2520    9.1303    3.8121 H   0  0  0  0  0  0  0  0  0  0  0  0
    3.3458    6.3185    4.3082 H   0  0  0  0  0  0  0  0  0  0  0  0
    2.1506    7.1455    5.3132 H   0  0  0  0  0  0  0  0  0  0  0  0
    3.7982    7.7746    5.2006 H   0  0  0  0  0  0  0  0  0  0  0  0
   -8.4972    0.8744    0.8168 H   0  0  0  0  0  0  0  0  0  0  0  0
   -9.8736    1.9930    0.7562 H   0  0  0  0  0  0  0  0  0  0  0  0
   -9.8326    2.1658    3.2449 H   0  0  0  0  0  0  0  0  0  0  0  0
   -8.4550    1.0620    3.3023 H   0  0  0  0  0  0  0  0  0  0  0  0
  -10.0269    0.4864    2.7338 H   0  0  0  0  0  0  0  0  0  0  0  0
   -5.6917    5.7220   -0.9395 H   0  0  0  0  0  0  0  0  0  0  0  0
   -1.7753    6.3814   -3.1170 H   0  0  0  0  0  0  0  0  0  0  0  0
    3.7445    4.6579   -3.8093 H   0  0  0  0  0  0  0  0  0  0  0  0
    2.9131    3.5562   -2.7025 H   0  0  0  0  0  0  0  0  0  0  0  0
    2.7473    1.8437   -4.5011 H   0  0  0  0  0  0  0  0  0  0  0  0
    4.4307    2.2985   -4.2100 H   0  0  0  0  0  0  0  0  0  0  0  0
    3.5759    2.9322   -5.6196 H   0  0  0  0  0  0  0  0  0  0  0  0
  -10.4462    3.9121   -4.4406 H   0  0  0  0  0  0  0  0  0  0  0  0
  -10.8946    3.4316   -6.0898 H   0  0  0  0  0  0  0  0  0  0  0  0
  -10.2105    6.2770   -5.1956 H   0  0  0  0  0  0  0  0  0  0  0  0
  -11.8353    5.6640   -5.5238 H   0  0  0  0  0  0  0  0  0  0  0  0
  -10.6613    5.8007   -6.8363 H   0  0  0  0  0  0  0  0  0  0  0  0
   -5.4024    1.4246   -6.2087 H   0  0  0  0  0  0  0  0  0  0  0  0
   -2.5945   -3.6983   -5.7361 H   0  0  0  0  0  0  0  0  0  0  0  0
   -3.2598   -2.8441   -3.2995 H   0  0  0  0  0  0  0  0  0  0  0  0
   -5.1869    1.4922   -3.8379 H   0  0  0  0  0  0  0  0  0  0  0  0
   -5.1816    2.3324   -1.3361 H   0  0  0  0  0  0  0  0  0  0  0  0
   -1.1537   -0.7847   -3.7092 H   0  0  0  0  0  0  0  0  0  0  0  0
   -0.2580    0.0964   -8.2152 H   0  0  0  0  0  0  0  0  0  0  0  0
    1.2396   -0.5529   -8.8783 H   0  0  0  0  0  0  0  0  0  0  0  0
    1.4204    1.8927   -8.4392 H   0  0  0  0  0  0  0  0  0  0  0  0
    2.5454    1.0078   -7.4017 H   0  0  0  0  0  0  0  0  0  0  0  0
    1.0309    1.6321   -6.7376 H   0  0  0  0  0  0  0  0  0  0  0  0
    0.3233   -2.8980    5.4045 H   0  0  0  0  0  0  0  0  0  0  0  0
    2.0625   -3.1538    5.3831 H   0  0  0  0  0  0  0  0  0  0  0  0
    0.6227   -0.6172    4.4509 H   0  0  0  0  0  0  0  0  0  0  0  0
    1.5496   -0.7924    5.9432 H   0  0  0  0  0  0  0  0  0  0  0  0
    2.3692   -0.8647    4.3823 H   0  0  0  0  0  0  0  0  0  0  0  0
    3.1921   -4.9119    0.0613 H   0  0  0  0  0  0  0  0  0  0  0  0
    4.6778   -6.5656    0.1147 H   0  0  0  0  0  0  0  0  0  0  0  0
    6.8087   -9.0557    5.3974 H   0  0  0  0  0  0  0  0  0  0  0  0
    5.0782   -9.4164    5.5542 H   0  0  0  0  0  0  0  0  0  0  0  0
    5.6388   -7.2830    6.6953 H   0  0  0  0  0  0  0  0  0  0  0  0
    4.5496   -6.9920    5.3357 H   0  0  0  0  0  0  0  0  0  0  0  0
    6.2709   -6.6242    5.1821 H   0  0  0  0  0  0  0  0  0  0  0  0
    8.9398   -8.8620   -8.7339 H   0  0  0  0  0  0  0  0  0  0  0  0
    8.2152  -10.3634   -8.1273 H   0  0  0  0  0  0  0  0  0  0  0  0
   11.1244   -9.5136   -7.7192 H   0  0  0  0  0  0  0  0  0  0  0  0
   10.5599  -10.7469   -8.8506 H   0  0  0  0  0  0  0  0  0  0  0  0
   10.4003  -11.0062   -7.1102 H   0  0  0  0  0  0  0  0  0  0  0  0
    9.7380  -10.4177   -3.1080 H   0  0  0  0  0  0  0  0  0  0  0  0
   10.2251  -11.8178   -0.9699 H   0  0  0  0  0  0  0  0  0  0  0  0
  1  2  2  0  0  0  0
  2  3  1  0  0  0  0
  3  4  2  0  0  0  0
  4  5  1  0  0  0  0
  5  6  1  0  0  0  0
  6  7  1  0  0  0  0
  7  8  1  0  0  0  0
  8  9  1  0  0  0  0
  7 10  2  0  0  0  0
 10 11  1  0  0  0  0
 10 12  1  0  0  0  0
 12 13  1  0  0  0  0
  4 14  1  0  0  0  0
 14 15  2  0  0  0  0
 15 16  1  0  0  0  0
 16 17  1  0  0  0  0
 17 18  1  0  0  0  0
 18 19  1  0  0  0  0
 19 20  1  0  0  0  0
 20 21  1  0  0  0  0
 19 22  2  0  0  0  0
 22 23  1  0  0  0  0
 23 24  1  0  0  0  0
 22 25  1  0  0  0  0
 16 26  2  0  0  0  0
 26 27  1  0  0  0  0
 15 28  1  0  0  0  0
 28 29  2  0  0  0  0
 29 30  1  0  0  0  0
 29 31  1  0  0  0  0
 31 32  2  0  0  0  0
 32 33  1  0  0  0  0
 33 34  2  0  0  0  0
 34 35  1  0  0  0  0
 35 36  1  0  0  0  0
 36 37  1  0  0  0  0
 37 38  1  0  0  0  0
 38 39  1  0  0  0  0
 37 40  2  0  0  0  0
 40 41  1  0  0  0  0
 40 42  1  0  0  0  0
 42 43  1  0  0  0  0
 34 44  1  0  0  0  0
 44 45  2  0  0  0  0
 45 46  1  0  0  0  0
 46 47  1  0  0  0  0
 47 48  1  0  0  0  0
 48 49  1  0  0  0  0
 49 50  1  0  0  0  0
 50 51  1  0  0  0  0
 49 52  2  0  0  0  0
 52 53  1  0  0  0  0
 53 54  1  0  0  0  0
 52 55  1  0  0  0  0
 46 56  2  0  0  0  0
 56 57  1  0  0  0  0
 45 58  1  0  0  0  0
 58 59  2  0  0  0  0
 59 60  1  0  0  0  0
 59 61  1  0  0  0  0
 61 62  2  0  0  0  0
 62 63  1  0  0  0  0
 63 64  2  0  0  0  0
 64 65  1  0  0  0  0
 65 66  1  0  0  0  0
 66 67  1  0  0  0  0
 67 68  1  0  0  0  0
 68 69  1  0  0  0  0
 67 70  2  0  0  0  0
 70 71  1  0  0  0  0
 70 72  1  0  0  0  0
 72 73  1  0  0  0  0
 64 74  1  0  0  0  0
 74 75  2  0  0  0  0
 75 76  1  0  0  0  0
 76 77  1  0  0  0  0
 77 78  1  0  0  0  0
 78 79  1  0  0  0  0
 79 80  1  0  0  0  0
 80 81  1  0  0  0  0
 79 82  2  0  0  0  0
 82 83  1  0  0  0  0
 83 84  1  0  0  0  0
 82 85  1  0  0  0  0
 76 86  2  0  0  0  0
 86 87  1  0  0  0  0
 75 88  1  0  0  0  0
 88 89  2  0  0  0  0
 89 90  1  0  0  0  0
 89 91  1  0  0  0  0
 91 92  2  0  0  0  0
 92 93  1  0  0  0  0
 93 94  1  0  0  0  0
 93 95  2  0  0  0  0
 92 96  1  0  0  0  0
 96 97  2  0  0  0  0
 97 98  1  0  0  0  0
 98 99  2  0  0  0  0
 99100  1  0  0  0  0
100101  2  0  0  0  0
101102  1  0  0  0  0
102103  1  0  0  0  0
103104  1  0  0  0  0
103105  2  0  0  0  0
102106  2  0  0  0  0
106107  1  0  0  0  0
107108  2  0  0  0  0
108109  1  0  0  0  0
109110  2  0  0  0  0
110111  1  0  0  0  0
111112  1  0  0  0  0
112113  1  0  0  0  0
113114  1  0  0  0  0
114115  1  0  0  0  0
113116  2  0  0  0  0
116117  1  0  0  0  0
116118  1  0  0  0  0
118119  1  0  0  0  0
110120  1  0  0  0  0
120121  2  0  0  0  0
121122  1  0  0  0  0
122123  1  0  0  0  0
123124  1  0  0  0  0
124125  1  0  0  0  0
125126  1  0  0  0  0
126127  1  0  0  0  0
125128  2  0  0  0  0
128129  1  0  0  0  0
129130  1  0  0  0  0
128131  1  0  0  0  0
122132  2  0  0  0  0
132133  1  0  0  0  0
121134  1  0  0  0  0
134135  2  0  0  0  0
135136  1  0  0  0  0
135137  1  0  0  0  0
137138  2  0  0  0  0
138139  1  0  0  0  0
139140  2  0  0  0  0
140141  1  0  0  0  0
141142  1  0  0  0  0
142143  1  0  0  0  0
143144  1  0  0  0  0
144145  1  0  0  0  0
143146  2  0  0  0  0
146147  1  0  0  0  0
146148  1  0  0  0  0
148149  1  0  0  0  0
140150  1  0  0  0  0
150151  2  0  0  0  0
151152  1  0  0  0  0
152153  1  0  0  0  0
153154  1  0  0  0  0
154155  1  0  0  0  0
155156  1  0  0  0  0
156157  1  0  0  0  0
155158  2  0  0  0  0
158159  1  0  0  0  0
159160  1  0  0  0  0
158161  1  0  0  0  0
152162  2  0  0  0  0
162163  1  0  0  0  0
151164  1  0  0  0  0
164165  2  0  0  0  0
165166  1  0  0  0  0
 27  1  1  0  0  0  0
 57 31  1  0  0  0  0
 87 61  1  0  0  0  0
 98 91  1  0  0  0  0
106 99  1  0  0  0  0
133107  1  0  0  0  0
163137  1  0  0  0  0
 26  3  1  0  0  0  0
 56 33  1  0  0  0  0
 86 63  1  0  0  0  0
132109  1  0  0  0  0
162139  1  0  0  0  0
 12  5  2  0  0  0  0
 30 14  1  0  0  0  0
 42 35  2  0  0  0  0
 60 44  1  0  0  0  0
 72 65  2  0  0  0  0
 90 74  1  0  0  0  0
118111  2  0  0  0  0
136120  1  0  0  0  0
148141  2  0  0  0  0
166150  1  0  0  0  0
 23 17  2  0  0  0  0
 53 47  2  0  0  0  0
 83 77  2  0  0  0  0
129123  2  0  0  0  0
159153  2  0  0  0  0
  1167  1  0  0  0  0
  2168  1  0  0  0  0
  8169  1  0  0  0  0
  8170  1  0  0  0  0
  9171  1  0  0  0  0
  9172  1  0  0  0  0
  9173  1  0  0  0  0
 20174  1  0  0  0  0
 20175  1  0  0  0  0
 21176  1  0  0  0  0
 21177  1  0  0  0  0
 21178  1  0  0  0  0
 28179  1  0  0  0  0
 32180  1  0  0  0  0
 38181  1  0  0  0  0
 38182  1  0  0  0  0
 39183  1  0  0  0  0
 39184  1  0  0  0  0
 39185  1  0  0  0  0
 50186  1  0  0  0  0
 50187  1  0  0  0  0
 51188  1  0  0  0  0
 51189  1  0  0  0  0
 51190  1  0  0  0  0
 58191  1  0  0  0  0
 62192  1  0  0  0  0
 68193  1  0  0  0  0
 68194  1  0  0  0  0
 69195  1  0  0  0  0
 69196  1  0  0  0  0
 69197  1  0  0  0  0
 80198  1  0  0  0  0
 80199  1  0  0  0  0
 81200  1  0  0  0  0
 81201  1  0  0  0  0
 81202  1  0  0  0  0
 88203  1  0  0  0  0
 96204  1  0  0  0  0
 97205  1  0  0  0  0
100206  1  0  0  0  0
101207  1  0  0  0  0
108208  1  0  0  0  0
114209  1  0  0  0  0
114210  1  0  0  0  0
115211  1  0  0  0  0
115212  1  0  0  0  0
115213  1  0  0  0  0
126214  1  0  0  0  0
126215  1  0  0  0  0
127216  1  0  0  0  0
127217  1  0  0  0  0
127218  1  0  0  0  0
134219  1  0  0  0  0
138220  1  0  0  0  0
144221  1  0  0  0  0
144222  1  0  0  0  0
145223  1  0  0  0  0
145224  1  0  0  0  0
145225  1  0  0  0  0
156226  1  0  0  0  0
156227  1  0  0  0  0
157228  1  0  0  0  0
157229  1  0  0  0  0
157230  1  0  0  0  0
164231  1  0  0  0  0
165232  1  0  0  0  0
M  CHG  1  93   1
M  CHG  1  94  -1
M  CHG  1 103   1
M  CHG  1 104  -1
M  END
