188

C         -7.78180       -3.55600      -12.53750
C         -6.68420       -2.91030      -12.98090
C         -5.99600       -2.21280      -11.94510
C         -4.82090       -1.44970      -12.04160
C         -4.10370       -1.31420      -13.30010
S         -3.57380       -2.71390      -14.18600
C         -2.82730       -1.75190      -15.41610
C         -2.17670       -2.38230      -16.59760
C         -3.21510       -2.76360      -17.65540
C         -2.99780       -0.42710      -15.14720
Cl        -2.40720        0.83650      -16.14670
C         -3.71380       -0.17450      -13.94550
Cl        -4.10730        1.41080      -13.42700
C         -4.35930       -0.85090      -10.87620
C         -5.02170       -0.98980       -9.63160
C         -6.17920       -1.77790       -9.52790
C         -6.82310       -1.98280       -8.24140
S         -8.51980       -1.68090       -8.01380
C         -8.44760       -2.09070       -6.33490
C         -9.66890       -2.08780       -5.48360
C        -10.37030       -3.44740       -5.53600
C         -7.18000       -2.45410       -5.98940
C         -6.25550       -2.39330       -7.06570
Cl        -4.61690       -2.87860       -6.89560
Cl        -6.71860       -2.92520       -4.40510
C         -6.65150       -2.35570      -10.69950
S         -8.06270       -3.36510      -10.84160
C         -4.36350       -0.27500       -8.60290
C         -3.21720        0.33840       -9.01130
S         -2.90860        0.10120      -10.71790
C         -2.31050        1.06000       -8.18120
C         -1.19950        1.76930       -8.52860
C         -0.50170        2.30600       -7.41700
C          0.69600        3.04780       -7.40820
C          1.39190        3.38170       -8.63960
S          1.81010        2.16270       -9.80830
C          2.57070        3.31130      -10.85440
C          3.23300        2.88720      -12.11830
C          4.68690        2.48180      -11.86440
C          2.50310        4.56030      -10.31330
Cl         3.14710        5.96260      -11.06320
C          1.83410        4.60560       -9.06090
Cl         1.54590        6.07620       -8.23050
C          1.19580        3.42460       -6.16820
C          0.53840        3.11410       -4.95060
C         -0.64490        2.35700       -4.95430
C         -1.26990        1.91710       -3.71820
S         -2.97290        2.12740       -3.43870
C         -2.89960        1.33920       -1.89910
C         -4.13250        1.11030       -1.09710
C         -5.01400        0.04170       -1.74730
C         -1.62380        0.94220       -1.63170
C         -0.69740        1.26570       -2.65970
Cl         0.94760        0.77590       -2.58940
Cl        -1.14880        0.12680       -0.19880
C         -1.14410        1.98860       -6.19470
S         -2.56920        1.02910       -6.44850
C          1.24390        3.59680       -3.83070
C          2.44310        4.17460       -4.14510
S          2.71450        4.23350       -5.87350
C          3.41100        4.57450       -3.18930
S          3.05830        4.27140       -1.49930
C          4.69210        5.06090       -3.29810
S          5.72490        5.56260       -4.59460
C          6.97530        5.85120       -3.38370
N          6.67760        5.60730       -2.16900
C          5.40050        5.15890       -2.05750
C          4.64910        4.73980       -0.97060
C          5.00060        4.53600        0.37930
S          3.79800        3.88150        1.46680
C          6.20590        4.63850        1.04150
S          7.80010        5.17000        0.64230
C          8.27240        4.70860        2.27750
N          7.37150        4.21460        3.03340
C          6.17700        4.15280        2.38670
C          4.92950        3.68640        2.77160
C          4.50770        3.02610        3.95190
C          5.25930        2.53460        4.98300
C          4.49730        1.79370        5.91930
C          4.94360        1.10820        7.06580
C          6.31860        1.21580        7.51780
S          7.26190       -0.19340        7.90150
C          8.64420        0.75340        8.33630
C          9.88570        0.10450        8.84020
C          9.67360       -0.46780       10.24330
C          8.37210        2.08110        8.19410
Cl         9.49250        3.33380        8.53970
C          7.05760        2.34860        7.72490
Cl         6.45660        3.94420        7.53580
C          4.01160        0.32250        7.73280
C          2.64830        0.24450        7.35420
C          2.18320        0.98950        6.25700
C          0.78650        0.98200        5.85730
S          0.32750        0.69560        4.20380
C         -1.35430        0.89670        4.55260
C         -2.36900        0.85020        3.46450
C         -2.35580        2.15490        2.66410
C         -1.53440        1.16950        5.87590
C         -0.32490        1.21280        6.62070
Cl        -0.28750        1.61230        8.28990
Cl        -3.06660        1.44150        6.59950
C          3.12930        1.71970        5.55260
S          2.80780        2.63160        4.11060
C          1.92320       -0.66250        8.16300
C          2.67830       -1.24490        9.13630
S          4.34030       -0.69030        9.11130
C          2.26240       -2.21950       10.09010
C          3.05110       -2.96450       10.91400
C          2.32280       -3.86630       11.72930
C          2.82110       -4.78230       12.67050
C          4.24850       -4.89610       12.92410
S          5.20220       -3.51100       13.36870
C          6.65670       -4.44240       13.46330
C          7.94870       -3.82460       13.87050
C          8.13510       -3.89680       15.38800
C          6.40040       -5.74950       13.17480
Cl         7.59900       -6.97690       13.16350
C          5.03870       -6.01040       12.86480
Cl         4.48980       -7.55870       12.37770
C          1.89030       -5.57000       13.33770
C          0.49650       -5.48060       13.10330
C         -0.00120       -4.55650       12.17210
C         -1.42990       -4.38610       11.95860
S         -2.13600       -4.46980       10.37290
C         -3.72330       -4.13960       10.97750
C         -4.90630       -4.11120       10.07390
C         -5.49910       -5.51140        9.89960
C         -3.69210       -3.98210       12.33110
C         -2.39330       -4.11620       12.89050
Cl        -2.07650       -3.87710       14.56050
Cl        -5.07550       -3.63870       13.28680
C          0.92990       -3.78490       11.48950
S          0.56030       -2.58860       10.28040
C         -0.23060       -6.41140       13.90110
C          0.56380       -7.12900       14.72110
S          2.24250       -6.74380       14.57330
H         -8.47120       -4.14870      -13.10630
H         -6.36370       -2.91530      -14.00620
H         -1.63720       -3.27670      -16.28090
H         -1.46330       -1.67410      -17.02240
H         -2.72580       -3.22150      -18.51060
H         -3.75170       -1.88030      -17.99240
H         -3.93120       -3.47050      -17.24290
H         -9.38000       -1.86580       -4.45450
H        -10.35190       -1.31190       -5.83250
H        -11.26430       -3.43030       -4.91860
H         -9.70770       -4.22700       -5.16890
H        -10.65490       -3.68560       -6.55810
H         -4.72590       -0.20500       -7.59370
H         -0.89350        1.89630       -9.55120
H          3.20450        3.71930      -12.82460
H          2.68890        2.04400      -12.54700
H          5.24400        3.31830      -11.45060
H          5.15690        2.17580      -12.79510
H          4.73040        1.65320      -11.16160
H         -3.84020        0.78830       -0.09630
H         -4.69570        2.04260       -1.01650
H         -4.47340       -0.89820       -1.82410
H         -5.30980        0.35310       -2.74620
H         -5.90850       -0.11910       -1.15150
H          0.89260        3.51160       -2.81880
H          7.93390        6.21650       -3.69500
H          9.28800        4.84940        2.59250
H          6.32410        2.66750        5.02700
H         10.17560       -0.70160        8.16290
H         10.68390        0.84810        8.85870
H         10.58830       -0.93490       10.59830
H          8.88130       -1.21270       10.22890
H          9.39440        0.32320       10.93480
H         -3.35390        0.69650        3.90860
H         -2.15000        0.01590        2.79560
H         -3.11210        2.12570        1.88440
H         -1.38310        2.30030        2.20050
H         -2.56050        2.99990        3.31660
H          0.88620       -0.90230        8.01420
H          4.12220       -2.87480       10.92270
H          7.96830       -2.78200       13.54900
H          8.76330       -4.35960       13.37830
H          7.33370       -3.36270       15.89270
H          8.12560       -4.93190       15.71920
H          9.08460       -3.44930       15.66900
H         -4.60810       -3.71800        9.10080
H         -5.65900       -3.44810       10.50460
H         -4.76150       -6.18210        9.46530
H         -6.36420       -5.47100        9.24330
H         -5.80990       -5.91120       10.86140
H         -1.29640       -6.53330       13.84570
H          0.27320       -7.88800       15.42100
