
  xtb     03012220353D
 energy: -380.266050560265 gnorm: 0.000228321813 xtb: 6.4.1 (unknown)
188211  0     0  0            999 V2000
   -7.7818   -3.5560  -12.5375 C   0  0  0  0  0  0  0  0  0  0  0  0
   -6.6842   -2.9103  -12.9809 C   0  0  0  0  0  0  0  0  0  0  0  0
   -5.9960   -2.2128  -11.9451 C   0  0  0  0  0  0  0  0  0  0  0  0
   -4.8209   -1.4497  -12.0416 C   0  0  0  0  0  0  0  0  0  0  0  0
   -4.1037   -1.3142  -13.3001 C   0  0  0  0  0  0  0  0  0  0  0  0
   -3.5738   -2.7139  -14.1860 S   0  0  0  0  0  0  0  0  0  0  0  0
   -2.8273   -1.7519  -15.4161 C   0  0  0  0  0  0  0  0  0  0  0  0
   -2.1767   -2.3823  -16.5976 C   0  0  0  0  0  0  0  0  0  0  0  0
   -3.2151   -2.7636  -17.6554 C   0  0  0  0  0  0  0  0  0  0  0  0
   -2.9978   -0.4271  -15.1472 C   0  0  0  0  0  0  0  0  0  0  0  0
   -2.4072    0.8365  -16.1467 Cl  0  0  0  0  0  0  0  0  0  0  0  0
   -3.7138   -0.1745  -13.9455 C   0  0  0  0  0  0  0  0  0  0  0  0
   -4.1073    1.4108  -13.4270 Cl  0  0  0  0  0  0  0  0  0  0  0  0
   -4.3593   -0.8509  -10.8762 C   0  0  0  0  0  0  0  0  0  0  0  0
   -5.0217   -0.9898   -9.6316 C   0  0  0  0  0  0  0  0  0  0  0  0
   -6.1792   -1.7779   -9.5279 C   0  0  0  0  0  0  0  0  0  0  0  0
   -6.8231   -1.9828   -8.2414 C   0  0  0  0  0  0  0  0  0  0  0  0
   -8.5198   -1.6809   -8.0138 S   0  0  0  0  0  0  0  0  0  0  0  0
   -8.4476   -2.0907   -6.3349 C   0  0  0  0  0  0  0  0  0  0  0  0
   -9.6689   -2.0878   -5.4836 C   0  0  0  0  0  0  0  0  0  0  0  0
  -10.3703   -3.4474   -5.5360 C   0  0  0  0  0  0  0  0  0  0  0  0
   -7.1800   -2.4541   -5.9894 C   0  0  0  0  0  0  0  0  0  0  0  0
   -6.2555   -2.3933   -7.0657 C   0  0  0  0  0  0  0  0  0  0  0  0
   -4.6169   -2.8786   -6.8956 Cl  0  0  0  0  0  0  0  0  0  0  0  0
   -6.7186   -2.9252   -4.4051 Cl  0  0  0  0  0  0  0  0  0  0  0  0
   -6.6515   -2.3557  -10.6995 C   0  0  0  0  0  0  0  0  0  0  0  0
   -8.0627   -3.3651  -10.8416 S   0  0  0  0  0  0  0  0  0  0  0  0
   -4.3635   -0.2750   -8.6029 C   0  0  0  0  0  0  0  0  0  0  0  0
   -3.2172    0.3384   -9.0113 C   0  0  0  0  0  0  0  0  0  0  0  0
   -2.9086    0.1012  -10.7179 S   0  0  0  0  0  0  0  0  0  0  0  0
   -2.3105    1.0600   -8.1812 C   0  0  0  0  0  0  0  0  0  0  0  0
   -1.1995    1.7693   -8.5286 C   0  0  0  0  0  0  0  0  0  0  0  0
   -0.5017    2.3060   -7.4170 C   0  0  0  0  0  0  0  0  0  0  0  0
    0.6960    3.0478   -7.4082 C   0  0  0  0  0  0  0  0  0  0  0  0
    1.3919    3.3817   -8.6396 C   0  0  0  0  0  0  0  0  0  0  0  0
    1.8101    2.1627   -9.8083 S   0  0  0  0  0  0  0  0  0  0  0  0
    2.5707    3.3113  -10.8544 C   0  0  0  0  0  0  0  0  0  0  0  0
    3.2330    2.8872  -12.1183 C   0  0  0  0  0  0  0  0  0  0  0  0
    4.6869    2.4818  -11.8644 C   0  0  0  0  0  0  0  0  0  0  0  0
    2.5031    4.5603  -10.3133 C   0  0  0  0  0  0  0  0  0  0  0  0
    3.1471    5.9626  -11.0632 Cl  0  0  0  0  0  0  0  0  0  0  0  0
    1.8341    4.6056   -9.0609 C   0  0  0  0  0  0  0  0  0  0  0  0
    1.5459    6.0762   -8.2305 Cl  0  0  0  0  0  0  0  0  0  0  0  0
    1.1958    3.4246   -6.1682 C   0  0  0  0  0  0  0  0  0  0  0  0
    0.5384    3.1141   -4.9506 C   0  0  0  0  0  0  0  0  0  0  0  0
   -0.6449    2.3570   -4.9543 C   0  0  0  0  0  0  0  0  0  0  0  0
   -1.2699    1.9171   -3.7182 C   0  0  0  0  0  0  0  0  0  0  0  0
   -2.9729    2.1274   -3.4387 S   0  0  0  0  0  0  0  0  0  0  0  0
   -2.8996    1.3392   -1.8991 C   0  0  0  0  0  0  0  0  0  0  0  0
   -4.1325    1.1103   -1.0971 C   0  0  0  0  0  0  0  0  0  0  0  0
   -5.0140    0.0417   -1.7473 C   0  0  0  0  0  0  0  0  0  0  0  0
   -1.6238    0.9422   -1.6317 C   0  0  0  0  0  0  0  0  0  0  0  0
   -0.6974    1.2657   -2.6597 C   0  0  0  0  0  0  0  0  0  0  0  0
    0.9476    0.7759   -2.5894 Cl  0  0  0  0  0  0  0  0  0  0  0  0
   -1.1488    0.1268   -0.1988 Cl  0  0  0  0  0  0  0  0  0  0  0  0
   -1.1441    1.9886   -6.1947 C   0  0  0  0  0  0  0  0  0  0  0  0
   -2.5692    1.0291   -6.4485 S   0  0  0  0  0  0  0  0  0  0  0  0
    1.2439    3.5968   -3.8307 C   0  0  0  0  0  0  0  0  0  0  0  0
    2.4431    4.1746   -4.1451 C   0  0  0  0  0  0  0  0  0  0  0  0
    2.7145    4.2335   -5.8735 S   0  0  0  0  0  0  0  0  0  0  0  0
    3.4110    4.5745   -3.1893 C   0  0  0  0  0  0  0  0  0  0  0  0
    3.0583    4.2714   -1.4993 S   0  0  0  0  0  0  0  0  0  0  0  0
    4.6921    5.0609   -3.2981 C   0  0  0  0  0  0  0  0  0  0  0  0
    5.7249    5.5626   -4.5946 S   0  0  0  0  0  0  0  0  0  0  0  0
    6.9753    5.8512   -3.3837 C   0  0  0  0  0  0  0  0  0  0  0  0
    6.6776    5.6073   -2.1690 N   0  0  0  0  0  0  0  0  0  0  0  0
    5.4005    5.1589   -2.0575 C   0  0  0  0  0  0  0  0  0  0  0  0
    4.6491    4.7398   -0.9706 C   0  0  0  0  0  0  0  0  0  0  0  0
    5.0006    4.5360    0.3793 C   0  0  0  0  0  0  0  0  0  0  0  0
    3.7980    3.8815    1.4668 S   0  0  0  0  0  0  0  0  0  0  0  0
    6.2059    4.6385    1.0415 C   0  0  0  0  0  0  0  0  0  0  0  0
    7.8001    5.1700    0.6423 S   0  0  0  0  0  0  0  0  0  0  0  0
    8.2724    4.7086    2.2775 C   0  0  0  0  0  0  0  0  0  0  0  0
    7.3715    4.2146    3.0334 N   0  0  0  0  0  0  0  0  0  0  0  0
    6.1770    4.1528    2.3867 C   0  0  0  0  0  0  0  0  0  0  0  0
    4.9295    3.6864    2.7716 C   0  0  0  0  0  0  0  0  0  0  0  0
    4.5077    3.0261    3.9519 C   0  0  0  0  0  0  0  0  0  0  0  0
    5.2593    2.5346    4.9830 C   0  0  0  0  0  0  0  0  0  0  0  0
    4.4973    1.7937    5.9193 C   0  0  0  0  0  0  0  0  0  0  0  0
    4.9436    1.1082    7.0658 C   0  0  0  0  0  0  0  0  0  0  0  0
    6.3186    1.2158    7.5178 C   0  0  0  0  0  0  0  0  0  0  0  0
    7.2619   -0.1934    7.9015 S   0  0  0  0  0  0  0  0  0  0  0  0
    8.6442    0.7534    8.3363 C   0  0  0  0  0  0  0  0  0  0  0  0
    9.8857    0.1045    8.8402 C   0  0  0  0  0  0  0  0  0  0  0  0
    9.6736   -0.4678   10.2433 C   0  0  0  0  0  0  0  0  0  0  0  0
    8.3721    2.0811    8.1941 C   0  0  0  0  0  0  0  0  0  0  0  0
    9.4925    3.3338    8.5397 Cl  0  0  0  0  0  0  0  0  0  0  0  0
    7.0576    2.3486    7.7249 C   0  0  0  0  0  0  0  0  0  0  0  0
    6.4566    3.9442    7.5358 Cl  0  0  0  0  0  0  0  0  0  0  0  0
    4.0116    0.3225    7.7328 C   0  0  0  0  0  0  0  0  0  0  0  0
    2.6483    0.2445    7.3542 C   0  0  0  0  0  0  0  0  0  0  0  0
    2.1832    0.9895    6.2570 C   0  0  0  0  0  0  0  0  0  0  0  0
    0.7865    0.9820    5.8573 C   0  0  0  0  0  0  0  0  0  0  0  0
    0.3275    0.6956    4.2038 S   0  0  0  0  0  0  0  0  0  0  0  0
   -1.3543    0.8967    4.5526 C   0  0  0  0  0  0  0  0  0  0  0  0
   -2.3690    0.8502    3.4645 C   0  0  0  0  0  0  0  0  0  0  0  0
   -2.3558    2.1549    2.6641 C   0  0  0  0  0  0  0  0  0  0  0  0
   -1.5344    1.1695    5.8759 C   0  0  0  0  0  0  0  0  0  0  0  0
   -0.3249    1.2128    6.6207 C   0  0  0  0  0  0  0  0  0  0  0  0
   -0.2875    1.6123    8.2899 Cl  0  0  0  0  0  0  0  0  0  0  0  0
   -3.0666    1.4415    6.5995 Cl  0  0  0  0  0  0  0  0  0  0  0  0
    3.1293    1.7197    5.5526 C   0  0  0  0  0  0  0  0  0  0  0  0
    2.8078    2.6316    4.1106 S   0  0  0  0  0  0  0  0  0  0  0  0
    1.9232   -0.6625    8.1630 C   0  0  0  0  0  0  0  0  0  0  0  0
    2.6783   -1.2449    9.1363 C   0  0  0  0  0  0  0  0  0  0  0  0
    4.3403   -0.6903    9.1113 S   0  0  0  0  0  0  0  0  0  0  0  0
    2.2624   -2.2195   10.0901 C   0  0  0  0  0  0  0  0  0  0  0  0
    3.0511   -2.9645   10.9140 C   0  0  0  0  0  0  0  0  0  0  0  0
    2.3228   -3.8663   11.7293 C   0  0  0  0  0  0  0  0  0  0  0  0
    2.8211   -4.7823   12.6705 C   0  0  0  0  0  0  0  0  0  0  0  0
    4.2485   -4.8961   12.9241 C   0  0  0  0  0  0  0  0  0  0  0  0
    5.2022   -3.5110   13.3687 S   0  0  0  0  0  0  0  0  0  0  0  0
    6.6567   -4.4424   13.4633 C   0  0  0  0  0  0  0  0  0  0  0  0
    7.9487   -3.8246   13.8705 C   0  0  0  0  0  0  0  0  0  0  0  0
    8.1351   -3.8968   15.3880 C   0  0  0  0  0  0  0  0  0  0  0  0
    6.4004   -5.7495   13.1748 C   0  0  0  0  0  0  0  0  0  0  0  0
    7.5990   -6.9769   13.1635 Cl  0  0  0  0  0  0  0  0  0  0  0  0
    5.0387   -6.0104   12.8648 C   0  0  0  0  0  0  0  0  0  0  0  0
    4.4898   -7.5587   12.3777 Cl  0  0  0  0  0  0  0  0  0  0  0  0
    1.8903   -5.5700   13.3377 C   0  0  0  0  0  0  0  0  0  0  0  0
    0.4965   -5.4806   13.1033 C   0  0  0  0  0  0  0  0  0  0  0  0
   -0.0012   -4.5565   12.1721 C   0  0  0  0  0  0  0  0  0  0  0  0
   -1.4299   -4.3861   11.9586 C   0  0  0  0  0  0  0  0  0  0  0  0
   -2.1360   -4.4698   10.3729 S   0  0  0  0  0  0  0  0  0  0  0  0
   -3.7233   -4.1396   10.9775 C   0  0  0  0  0  0  0  0  0  0  0  0
   -4.9063   -4.1112   10.0739 C   0  0  0  0  0  0  0  0  0  0  0  0
   -5.4991   -5.5114    9.8996 C   0  0  0  0  0  0  0  0  0  0  0  0
   -3.6921   -3.9821   12.3311 C   0  0  0  0  0  0  0  0  0  0  0  0
   -2.3933   -4.1162   12.8905 C   0  0  0  0  0  0  0  0  0  0  0  0
   -2.0765   -3.8771   14.5605 Cl  0  0  0  0  0  0  0  0  0  0  0  0
   -5.0755   -3.6387   13.2868 Cl  0  0  0  0  0  0  0  0  0  0  0  0
    0.9299   -3.7849   11.4895 C   0  0  0  0  0  0  0  0  0  0  0  0
    0.5603   -2.5886   10.2804 S   0  0  0  0  0  0  0  0  0  0  0  0
   -0.2306   -6.4114   13.9011 C   0  0  0  0  0  0  0  0  0  0  0  0
    0.5638   -7.1290   14.7211 C   0  0  0  0  0  0  0  0  0  0  0  0
    2.2425   -6.7438   14.5733 S   0  0  0  0  0  0  0  0  0  0  0  0
   -8.4712   -4.1487  -13.1063 H   0  0  0  0  0  0  0  0  0  0  0  0
   -6.3637   -2.9153  -14.0062 H   0  0  0  0  0  0  0  0  0  0  0  0
   -1.6372   -3.2767  -16.2809 H   0  0  0  0  0  0  0  0  0  0  0  0
   -1.4633   -1.6741  -17.0224 H   0  0  0  0  0  0  0  0  0  0  0  0
   -2.7258   -3.2215  -18.5106 H   0  0  0  0  0  0  0  0  0  0  0  0
   -3.7517   -1.8803  -17.9924 H   0  0  0  0  0  0  0  0  0  0  0  0
   -3.9312   -3.4705  -17.2429 H   0  0  0  0  0  0  0  0  0  0  0  0
   -9.3800   -1.8658   -4.4545 H   0  0  0  0  0  0  0  0  0  0  0  0
  -10.3519   -1.3119   -5.8325 H   0  0  0  0  0  0  0  0  0  0  0  0
  -11.2643   -3.4303   -4.9186 H   0  0  0  0  0  0  0  0  0  0  0  0
   -9.7077   -4.2270   -5.1689 H   0  0  0  0  0  0  0  0  0  0  0  0
  -10.6549   -3.6856   -6.5581 H   0  0  0  0  0  0  0  0  0  0  0  0
   -4.7259   -0.2050   -7.5937 H   0  0  0  0  0  0  0  0  0  0  0  0
   -0.8935    1.8963   -9.5512 H   0  0  0  0  0  0  0  0  0  0  0  0
    3.2045    3.7193  -12.8246 H   0  0  0  0  0  0  0  0  0  0  0  0
    2.6889    2.0440  -12.5470 H   0  0  0  0  0  0  0  0  0  0  0  0
    5.2440    3.3183  -11.4506 H   0  0  0  0  0  0  0  0  0  0  0  0
    5.1569    2.1758  -12.7951 H   0  0  0  0  0  0  0  0  0  0  0  0
    4.7304    1.6532  -11.1616 H   0  0  0  0  0  0  0  0  0  0  0  0
   -3.8402    0.7883   -0.0963 H   0  0  0  0  0  0  0  0  0  0  0  0
   -4.6957    2.0426   -1.0165 H   0  0  0  0  0  0  0  0  0  0  0  0
   -4.4734   -0.8982   -1.8241 H   0  0  0  0  0  0  0  0  0  0  0  0
   -5.3098    0.3531   -2.7462 H   0  0  0  0  0  0  0  0  0  0  0  0
   -5.9085   -0.1191   -1.1515 H   0  0  0  0  0  0  0  0  0  0  0  0
    0.8926    3.5116   -2.8188 H   0  0  0  0  0  0  0  0  0  0  0  0
    7.9339    6.2165   -3.6950 H   0  0  0  0  0  0  0  0  0  0  0  0
    9.2880    4.8494    2.5925 H   0  0  0  0  0  0  0  0  0  0  0  0
    6.3241    2.6675    5.0270 H   0  0  0  0  0  0  0  0  0  0  0  0
   10.1756   -0.7016    8.1629 H   0  0  0  0  0  0  0  0  0  0  0  0
   10.6839    0.8481    8.8587 H   0  0  0  0  0  0  0  0  0  0  0  0
   10.5883   -0.9349   10.5983 H   0  0  0  0  0  0  0  0  0  0  0  0
    8.8813   -1.2127   10.2289 H   0  0  0  0  0  0  0  0  0  0  0  0
    9.3944    0.3232   10.9348 H   0  0  0  0  0  0  0  0  0  0  0  0
   -3.3539    0.6965    3.9086 H   0  0  0  0  0  0  0  0  0  0  0  0
   -2.1500    0.0159    2.7956 H   0  0  0  0  0  0  0  0  0  0  0  0
   -3.1121    2.1257    1.8844 H   0  0  0  0  0  0  0  0  0  0  0  0
   -1.3831    2.3003    2.2005 H   0  0  0  0  0  0  0  0  0  0  0  0
   -2.5605    2.9999    3.3166 H   0  0  0  0  0  0  0  0  0  0  0  0
    0.8862   -0.9023    8.0142 H   0  0  0  0  0  0  0  0  0  0  0  0
    4.1222   -2.8748   10.9227 H   0  0  0  0  0  0  0  0  0  0  0  0
    7.9683   -2.7820   13.5490 H   0  0  0  0  0  0  0  0  0  0  0  0
    8.7633   -4.3596   13.3783 H   0  0  0  0  0  0  0  0  0  0  0  0
    7.3337   -3.3627   15.8927 H   0  0  0  0  0  0  0  0  0  0  0  0
    8.1256   -4.9319   15.7192 H   0  0  0  0  0  0  0  0  0  0  0  0
    9.0846   -3.4493   15.6690 H   0  0  0  0  0  0  0  0  0  0  0  0
   -4.6081   -3.7180    9.1008 H   0  0  0  0  0  0  0  0  0  0  0  0
   -5.6590   -3.4481   10.5046 H   0  0  0  0  0  0  0  0  0  0  0  0
   -4.7615   -6.1821    9.4653 H   0  0  0  0  0  0  0  0  0  0  0  0
   -6.3642   -5.4710    9.2433 H   0  0  0  0  0  0  0  0  0  0  0  0
   -5.8099   -5.9112   10.8614 H   0  0  0  0  0  0  0  0  0  0  0  0
   -1.2964   -6.5333   13.8457 H   0  0  0  0  0  0  0  0  0  0  0  0
    0.2732   -7.8880   15.4210 H   0  0  0  0  0  0  0  0  0  0  0  0
  1  2  2  0  0  0  0
  2  3  1  0  0  0  0
  3  4  2  0  0  0  0
  4  5  1  0  0  0  0
  5  6  1  0  0  0  0
  6  7  1  0  0  0  0
  7  8  1  0  0  0  0
  8  9  1  0  0  0  0
  7 10  2  0  0  0  0
 10 11  1  0  0  0  0
 10 12  1  0  0  0  0
 12 13  1  0  0  0  0
  4 14  1  0  0  0  0
 14 15  2  0  0  0  0
 15 16  1  0  0  0  0
 16 17  1  0  0  0  0
 17 18  1  0  0  0  0
 18 19  1  0  0  0  0
 19 20  1  0  0  0  0
 20 21  1  0  0  0  0
 19 22  2  0  0  0  0
 22 23  1  0  0  0  0
 23 24  1  0  0  0  0
 22 25  1  0  0  0  0
 16 26  2  0  0  0  0
 26 27  1  0  0  0  0
 15 28  1  0  0  0  0
 28 29  2  0  0  0  0
 29 30  1  0  0  0  0
 29 31  1  0  0  0  0
 31 32  2  0  0  0  0
 32 33  1  0  0  0  0
 33 34  2  0  0  0  0
 34 35  1  0  0  0  0
 35 36  1  0  0  0  0
 36 37  1  0  0  0  0
 37 38  1  0  0  0  0
 38 39  1  0  0  0  0
 37 40  2  0  0  0  0
 40 41  1  0  0  0  0
 40 42  1  0  0  0  0
 42 43  1  0  0  0  0
 34 44  1  0  0  0  0
 44 45  2  0  0  0  0
 45 46  1  0  0  0  0
 46 47  1  0  0  0  0
 47 48  1  0  0  0  0
 48 49  1  0  0  0  0
 49 50  1  0  0  0  0
 50 51  1  0  0  0  0
 49 52  2  0  0  0  0
 52 53  1  0  0  0  0
 53 54  1  0  0  0  0
 52 55  1  0  0  0  0
 46 56  2  0  0  0  0
 56 57  1  0  0  0  0
 45 58  1  0  0  0  0
 58 59  2  0  0  0  0
 59 60  1  0  0  0  0
 59 61  1  0  0  0  0
 61 62  1  0  0  0  0
 61 63  2  0  0  0  0
 63 64  1  0  0  0  0
 64 65  1  0  0  0  0
 65 66  2  0  0  0  0
 66 67  1  0  0  0  0
 67 68  2  0  0  0  0
 68 69  1  0  0  0  0
 69 70  1  0  0  0  0
 69 71  2  0  0  0  0
 71 72  1  0  0  0  0
 72 73  1  0  0  0  0
 73 74  2  0  0  0  0
 74 75  1  0  0  0  0
 75 76  2  0  0  0  0
 76 77  1  0  0  0  0
 77 78  2  0  0  0  0
 78 79  1  0  0  0  0
 79 80  2  0  0  0  0
 80 81  1  0  0  0  0
 81 82  1  0  0  0  0
 82 83  1  0  0  0  0
 83 84  1  0  0  0  0
 84 85  1  0  0  0  0
 83 86  2  0  0  0  0
 86 87  1  0  0  0  0
 86 88  1  0  0  0  0
 88 89  1  0  0  0  0
 80 90  1  0  0  0  0
 90 91  2  0  0  0  0
 91 92  1  0  0  0  0
 92 93  1  0  0  0  0
 93 94  1  0  0  0  0
 94 95  1  0  0  0  0
 95 96  1  0  0  0  0
 96 97  1  0  0  0  0
 95 98  2  0  0  0  0
 98 99  1  0  0  0  0
 99100  1  0  0  0  0
 98101  1  0  0  0  0
 92102  2  0  0  0  0
102103  1  0  0  0  0
 91104  1  0  0  0  0
104105  2  0  0  0  0
105106  1  0  0  0  0
105107  1  0  0  0  0
107108  2  0  0  0  0
108109  1  0  0  0  0
109110  2  0  0  0  0
110111  1  0  0  0  0
111112  1  0  0  0  0
112113  1  0  0  0  0
113114  1  0  0  0  0
114115  1  0  0  0  0
113116  2  0  0  0  0
116117  1  0  0  0  0
116118  1  0  0  0  0
118119  1  0  0  0  0
110120  1  0  0  0  0
120121  2  0  0  0  0
121122  1  0  0  0  0
122123  1  0  0  0  0
123124  1  0  0  0  0
124125  1  0  0  0  0
125126  1  0  0  0  0
126127  1  0  0  0  0
125128  2  0  0  0  0
128129  1  0  0  0  0
129130  1  0  0  0  0
128131  1  0  0  0  0
122132  2  0  0  0  0
132133  1  0  0  0  0
121134  1  0  0  0  0
134135  2  0  0  0  0
135136  1  0  0  0  0
 27  1  1  0  0  0  0
 57 31  1  0  0  0  0
 68 62  1  0  0  0  0
 76 70  1  0  0  0  0
103 77  1  0  0  0  0
133107  1  0  0  0  0
 26  3  1  0  0  0  0
 56 33  1  0  0  0  0
 67 63  1  0  0  0  0
 75 71  1  0  0  0  0
102 79  1  0  0  0  0
132109  1  0  0  0  0
 12  5  2  0  0  0  0
 30 14  1  0  0  0  0
 42 35  2  0  0  0  0
 60 44  1  0  0  0  0
 88 81  2  0  0  0  0
106 90  1  0  0  0  0
118111  2  0  0  0  0
136120  1  0  0  0  0
 23 17  2  0  0  0  0
 53 47  2  0  0  0  0
 99 93  2  0  0  0  0
129123  2  0  0  0  0
  1137  1  0  0  0  0
  2138  1  0  0  0  0
  8139  1  0  0  0  0
  8140  1  0  0  0  0
  9141  1  0  0  0  0
  9142  1  0  0  0  0
  9143  1  0  0  0  0
 20144  1  0  0  0  0
 20145  1  0  0  0  0
 21146  1  0  0  0  0
 21147  1  0  0  0  0
 21148  1  0  0  0  0
 28149  1  0  0  0  0
 32150  1  0  0  0  0
 38151  1  0  0  0  0
 38152  1  0  0  0  0
 39153  1  0  0  0  0
 39154  1  0  0  0  0
 39155  1  0  0  0  0
 50156  1  0  0  0  0
 50157  1  0  0  0  0
 51158  1  0  0  0  0
 51159  1  0  0  0  0
 51160  1  0  0  0  0
 58161  1  0  0  0  0
 65162  1  0  0  0  0
 73163  1  0  0  0  0
 78164  1  0  0  0  0
 84165  1  0  0  0  0
 84166  1  0  0  0  0
 85167  1  0  0  0  0
 85168  1  0  0  0  0
 85169  1  0  0  0  0
 96170  1  0  0  0  0
 96171  1  0  0  0  0
 97172  1  0  0  0  0
 97173  1  0  0  0  0
 97174  1  0  0  0  0
104175  1  0  0  0  0
108176  1  0  0  0  0
114177  1  0  0  0  0
114178  1  0  0  0  0
115179  1  0  0  0  0
115180  1  0  0  0  0
115181  1  0  0  0  0
126182  1  0  0  0  0
126183  1  0  0  0  0
127184  1  0  0  0  0
127185  1  0  0  0  0
127186  1  0  0  0  0
134187  1  0  0  0  0
135188  1  0  0  0  0
M  END
