
  xtb     03022205293D
 energy: -522.944607930000 gnorm: 0.000228819551 xtb: 6.4.1 (unknown)
278308  0     0  0            999 V2000
   10.2822    3.9751   -7.9089 C   0  0  0  0  0  0  0  0  0  0  0  0
   10.0848    5.0017   -7.0576 C   0  0  0  0  0  0  0  0  0  0  0  0
    9.0164    4.7623   -6.1450 C   0  0  0  0  0  0  0  0  0  0  0  0
    8.5479    5.5782   -5.1072 C   0  0  0  0  0  0  0  0  0  0  0  0
    9.1841    6.8438   -4.7778 C   0  0  0  0  0  0  0  0  0  0  0  0
    8.2672    8.3155   -4.6609 S   0  0  0  0  0  0  0  0  0  0  0  0
    9.6632    9.2419   -4.2276 C   0  0  0  0  0  0  0  0  0  0  0  0
    9.5508   10.6915   -3.9085 C   0  0  0  0  0  0  0  0  0  0  0  0
    8.9765   10.8964   -2.5047 C   0  0  0  0  0  0  0  0  0  0  0  0
   10.7652    8.4419   -4.1735 C   0  0  0  0  0  0  0  0  0  0  0  0
   12.3372    8.9985   -3.7669 Cl  0  0  0  0  0  0  0  0  0  0  0  0
   10.4988    7.0823   -4.4898 C   0  0  0  0  0  0  0  0  0  0  0  0
   11.7076    5.8651   -4.4243 Cl  0  0  0  0  0  0  0  0  0  0  0  0
    7.4602    5.1119   -4.3810 C   0  0  0  0  0  0  0  0  0  0  0  0
    6.8324    3.8612   -4.6091 C   0  0  0  0  0  0  0  0  0  0  0  0
    7.3042    3.0476   -5.6500 C   0  0  0  0  0  0  0  0  0  0  0  0
    6.7517    1.7476   -6.0097 C   0  0  0  0  0  0  0  0  0  0  0  0
    6.8447    0.3596   -4.9689 S   0  0  0  0  0  0  0  0  0  0  0  0
    6.3403   -0.7154   -6.2282 C   0  0  0  0  0  0  0  0  0  0  0  0
    6.3291   -2.1926   -6.0433 C   0  0  0  0  0  0  0  0  0  0  0  0
    7.6533   -2.8010   -6.5112 C   0  0  0  0  0  0  0  0  0  0  0  0
    6.0884   -0.0192   -7.3724 C   0  0  0  0  0  0  0  0  0  0  0  0
    6.3096    1.3755   -7.2487 C   0  0  0  0  0  0  0  0  0  0  0  0
    6.0137    2.4764   -8.5279 Cl  0  0  0  0  0  0  0  0  0  0  0  0
    5.6269   -0.7471   -8.8547 Cl  0  0  0  0  0  0  0  0  0  0  0  0
    8.3893    3.5181   -6.3848 C   0  0  0  0  0  0  0  0  0  0  0  0
    9.1814    2.6623   -7.6799 S   0  0  0  0  0  0  0  0  0  0  0  0
    5.7618    3.6320   -3.7010 C   0  0  0  0  0  0  0  0  0  0  0  0
    5.5773    4.6552   -2.8181 C   0  0  0  0  0  0  0  0  0  0  0  0
    6.7262    5.9572   -3.0587 S   0  0  0  0  0  0  0  0  0  0  0  0
    4.6317    4.8386   -1.7578 C   0  0  0  0  0  0  0  0  0  0  0  0
    3.8006    3.9560   -1.1334 C   0  0  0  0  0  0  0  0  0  0  0  0
    3.0689    4.5330   -0.0601 C   0  0  0  0  0  0  0  0  0  0  0  0
    2.2025    3.9172    0.8622 C   0  0  0  0  0  0  0  0  0  0  0  0
    1.9809    2.4829    0.9306 C   0  0  0  0  0  0  0  0  0  0  0  0
    0.3826    1.8441    1.2167 S   0  0  0  0  0  0  0  0  0  0  0  0
    0.9521    0.2171    1.3216 C   0  0  0  0  0  0  0  0  0  0  0  0
    0.0284   -0.8908    1.6892 C   0  0  0  0  0  0  0  0  0  0  0  0
   -0.0035   -1.0936    3.2064 C   0  0  0  0  0  0  0  0  0  0  0  0
    2.3009    0.1795    1.1301 C   0  0  0  0  0  0  0  0  0  0  0  0
    3.2256   -1.2647    1.1637 Cl  0  0  0  0  0  0  0  0  0  0  0  0
    2.8878    1.4562    0.9121 C   0  0  0  0  0  0  0  0  0  0  0  0
    4.5876    1.6519    0.7831 Cl  0  0  0  0  0  0  0  0  0  0  0  0
    1.5618    4.7602    1.7689 C   0  0  0  0  0  0  0  0  0  0  0  0
    1.7552    6.1580    1.8343 C   0  0  0  0  0  0  0  0  0  0  0  0
    2.6743    6.7590    0.9637 C   0  0  0  0  0  0  0  0  0  0  0  0
    2.9679    8.1818    1.0250 C   0  0  0  0  0  0  0  0  0  0  0  0
    3.4942    8.9200    2.5095 S   0  0  0  0  0  0  0  0  0  0  0  0
    3.6680   10.4733    1.7681 C   0  0  0  0  0  0  0  0  0  0  0  0
    4.1853   11.6433    2.5298 C   0  0  0  0  0  0  0  0  0  0  0  0
    5.7119   11.7167    2.4433 C   0  0  0  0  0  0  0  0  0  0  0  0
    3.3348   10.4069    0.4483 C   0  0  0  0  0  0  0  0  0  0  0  0
    2.9325    9.1121    0.0238 C   0  0  0  0  0  0  0  0  0  0  0  0
    2.3812    8.7994   -1.5679 Cl  0  0  0  0  0  0  0  0  0  0  0  0
    3.3819   11.7511   -0.6165 Cl  0  0  0  0  0  0  0  0  0  0  0  0
    3.3098    5.9281    0.0482 C   0  0  0  0  0  0  0  0  0  0  0  0
    4.5119    6.4506   -1.0845 S   0  0  0  0  0  0  0  0  0  0  0  0
    0.9010    6.7864    2.7922 C   0  0  0  0  0  0  0  0  0  0  0  0
    0.1270    5.9109    3.4679 C   0  0  0  0  0  0  0  0  0  0  0  0
    0.4206    4.2434    2.9662 S   0  0  0  0  0  0  0  0  0  0  0  0
   -1.0418    5.9872    4.3258 C   0  0  0  0  0  0  0  0  0  0  0  0
   -1.1797    5.6672    5.6361 C   0  0  0  0  0  0  0  0  0  0  0  0
   -2.4736    5.1654    5.9717 C   0  0  0  0  0  0  0  0  0  0  0  0
   -2.8367    4.4559    7.1388 C   0  0  0  0  0  0  0  0  0  0  0  0
   -2.1043    4.6473    8.3685 C   0  0  0  0  0  0  0  0  0  0  0  0
   -1.8219    3.3649    9.5074 S   0  0  0  0  0  0  0  0  0  0  0  0
   -0.9878    4.4105   10.6029 C   0  0  0  0  0  0  0  0  0  0  0  0
   -0.4726    3.9098   11.9068 C   0  0  0  0  0  0  0  0  0  0  0  0
   -1.5587    3.9801   12.9831 C   0  0  0  0  0  0  0  0  0  0  0  0
   -0.9602    5.6850   10.1174 C   0  0  0  0  0  0  0  0  0  0  0  0
   -0.2354    7.0060   10.9400 Cl  0  0  0  0  0  0  0  0  0  0  0  0
   -1.5902    5.8259    8.8554 C   0  0  0  0  0  0  0  0  0  0  0  0
   -1.7655    7.3597    8.1057 Cl  0  0  0  0  0  0  0  0  0  0  0  0
   -3.8638    3.5228    6.9931 C   0  0  0  0  0  0  0  0  0  0  0  0
   -4.6448    3.4360    5.8157 C   0  0  0  0  0  0  0  0  0  0  0  0
   -4.4126    4.2908    4.7327 C   0  0  0  0  0  0  0  0  0  0  0  0
   -5.0494    4.1059    3.4286 C   0  0  0  0  0  0  0  0  0  0  0  0
   -4.4571    2.8622    2.3606 S   0  0  0  0  0  0  0  0  0  0  0  0
   -5.4763    3.3839    1.0608 C   0  0  0  0  0  0  0  0  0  0  0  0
   -5.4317    2.7150   -0.2714 C   0  0  0  0  0  0  0  0  0  0  0  0
   -6.7090    1.9388   -0.5944 C   0  0  0  0  0  0  0  0  0  0  0  0
   -6.2329    4.4470    1.4550 C   0  0  0  0  0  0  0  0  0  0  0  0
   -5.9869    4.8624    2.7947 C   0  0  0  0  0  0  0  0  0  0  0  0
   -6.7900    6.1875    3.5302 Cl  0  0  0  0  0  0  0  0  0  0  0  0
   -7.3614    5.2502    0.4410 Cl  0  0  0  0  0  0  0  0  0  0  0  0
   -3.3007    5.1077    4.8285 C   0  0  0  0  0  0  0  0  0  0  0  0
   -2.5655    5.8647    3.4465 S   0  0  0  0  0  0  0  0  0  0  0  0
   -5.4133    2.2541    5.7578 C   0  0  0  0  0  0  0  0  0  0  0  0
   -5.1530    1.3891    6.7810 C   0  0  0  0  0  0  0  0  0  0  0  0
   -4.1702    2.1425    8.0256 S   0  0  0  0  0  0  0  0  0  0  0  0
   -5.3440   -0.0244    6.5996 C   0  0  0  0  0  0  0  0  0  0  0  0
   -4.3600   -0.9989    6.6226 C   0  0  0  0  0  0  0  0  0  0  0  0
   -3.1633   -0.9899    7.3388 N   0  0  0  0  0  0  0  0  0  0  0  0
   -2.8368   -2.2087    7.9577 C   0  0  0  0  0  0  0  0  0  0  0  0
   -3.8318   -2.9036    8.6403 C   0  0  0  0  0  0  0  0  0  0  0  0
   -3.5502   -4.1136    9.2441 C   0  0  0  0  0  0  0  0  0  0  0  0
   -2.2756   -4.6606    9.1896 C   0  0  0  0  0  0  0  0  0  0  0  0
   -1.9557   -5.9642    9.8552 C   0  0  0  0  0  0  0  0  0  0  0  0
   -1.2896   -3.9644    8.4979 C   0  0  0  0  0  0  0  0  0  0  0  0
   -1.5596   -2.7599    7.8823 C   0  0  0  0  0  0  0  0  0  0  0  0
   -2.1855   -0.0204    7.0980 C   0  0  0  0  0  0  0  0  0  0  0  0
   -1.2241    0.2387    8.0740 C   0  0  0  0  0  0  0  0  0  0  0  0
   -0.2423    1.1776    7.8470 C   0  0  0  0  0  0  0  0  0  0  0  0
   -0.2006    1.9072    6.6632 C   0  0  0  0  0  0  0  0  0  0  0  0
    0.8846    2.9158    6.4490 C   0  0  0  0  0  0  0  0  0  0  0  0
   -1.1740    1.6634    5.7049 C   0  0  0  0  0  0  0  0  0  0  0  0
   -2.1478    0.7020    5.9072 C   0  0  0  0  0  0  0  0  0  0  0  0
   -4.6127   -2.0023    5.6524 C   0  0  0  0  0  0  0  0  0  0  0  0
   -3.5315   -3.1506    4.9438 S   0  0  0  0  0  0  0  0  0  0  0  0
   -4.5277   -3.1930    3.4969 C   0  0  0  0  0  0  0  0  0  0  0  0
   -5.6970   -2.4632    3.6221 C   0  0  0  0  0  0  0  0  0  0  0  0
   -6.6349   -2.3700    2.6191 N   0  0  0  0  0  0  0  0  0  0  0  0
   -6.7055   -3.3732    1.6333 C   0  0  0  0  0  0  0  0  0  0  0  0
   -6.7372   -4.7177    1.9867 C   0  0  0  0  0  0  0  0  0  0  0  0
   -6.7700   -5.6912    1.0076 C   0  0  0  0  0  0  0  0  0  0  0  0
   -6.7728   -5.3531   -0.3392 C   0  0  0  0  0  0  0  0  0  0  0  0
   -6.7751   -6.4045   -1.4053 C   0  0  0  0  0  0  0  0  0  0  0  0
   -6.7630   -4.0055   -0.6820 C   0  0  0  0  0  0  0  0  0  0  0  0
   -6.7345   -3.0231    0.2864 C   0  0  0  0  0  0  0  0  0  0  0  0
   -7.4313   -1.2212    2.4745 C   0  0  0  0  0  0  0  0  0  0  0  0
   -8.7785   -1.3556    2.1505 C   0  0  0  0  0  0  0  0  0  0  0  0
   -9.5794   -0.2376    2.0326 C   0  0  0  0  0  0  0  0  0  0  0  0
   -9.0673    1.0365    2.2509 C   0  0  0  0  0  0  0  0  0  0  0  0
   -9.9419    2.2485    2.1663 C   0  0  0  0  0  0  0  0  0  0  0  0
   -7.7192    1.1607    2.5573 C   0  0  0  0  0  0  0  0  0  0  0  0
   -6.8977    0.0524    2.6474 C   0  0  0  0  0  0  0  0  0  0  0  0
   -5.7409   -1.7980    4.8765 C   0  0  0  0  0  0  0  0  0  0  0  0
   -6.6663   -0.4734    5.5080 S   0  0  0  0  0  0  0  0  0  0  0  0
   -3.9130   -3.5538    2.2401 C   0  0  0  0  0  0  0  0  0  0  0  0
   -3.5420   -4.7367    1.7017 C   0  0  0  0  0  0  0  0  0  0  0  0
   -2.8808   -4.6104    0.4466 C   0  0  0  0  0  0  0  0  0  0  0  0
   -2.3540   -5.6360   -0.3552 C   0  0  0  0  0  0  0  0  0  0  0  0
   -2.4804   -7.0372    0.0119 C   0  0  0  0  0  0  0  0  0  0  0  0
   -4.0320   -7.7489    0.3358 S   0  0  0  0  0  0  0  0  0  0  0  0
   -3.3473   -9.3143    0.6102 C   0  0  0  0  0  0  0  0  0  0  0  0
   -4.2089  -10.4933    0.9006 C   0  0  0  0  0  0  0  0  0  0  0  0
   -4.7332  -11.1178   -0.3946 C   0  0  0  0  0  0  0  0  0  0  0  0
   -1.9943   -9.2715    0.4544 C   0  0  0  0  0  0  0  0  0  0  0  0
   -0.9657  -10.6306    0.6487 Cl  0  0  0  0  0  0  0  0  0  0  0  0
   -1.4982   -7.9827    0.1193 C   0  0  0  0  0  0  0  0  0  0  0  0
    0.1770   -7.6583   -0.0423 Cl  0  0  0  0  0  0  0  0  0  0  0  0
   -1.7057   -5.2525   -1.5239 C   0  0  0  0  0  0  0  0  0  0  0  0
   -1.5245   -3.8962   -1.8859 C   0  0  0  0  0  0  0  0  0  0  0  0
   -1.9752   -2.8649   -1.0432 C   0  0  0  0  0  0  0  0  0  0  0  0
   -1.5914   -1.4896   -1.3045 C   0  0  0  0  0  0  0  0  0  0  0  0
   -2.7027   -0.1562   -1.1749 S   0  0  0  0  0  0  0  0  0  0  0  0
   -1.4825    1.0104   -1.5707 C   0  0  0  0  0  0  0  0  0  0  0  0
   -1.7920    2.4636   -1.6528 C   0  0  0  0  0  0  0  0  0  0  0  0
   -2.6536    2.7850   -2.8751 C   0  0  0  0  0  0  0  0  0  0  0  0
   -0.2917    0.3864   -1.7908 C   0  0  0  0  0  0  0  0  0  0  0  0
   -0.3420   -1.0231   -1.6264 C   0  0  0  0  0  0  0  0  0  0  0  0
    1.0849   -1.9776   -1.7016 Cl  0  0  0  0  0  0  0  0  0  0  0  0
    1.1607    1.1993   -2.2088 Cl  0  0  0  0  0  0  0  0  0  0  0  0
   -2.7055   -3.2556    0.0735 C   0  0  0  0  0  0  0  0  0  0  0  0
   -3.4302   -2.1875    1.2308 S   0  0  0  0  0  0  0  0  0  0  0  0
   -0.8667   -3.7634   -3.1288 C   0  0  0  0  0  0  0  0  0  0  0  0
   -0.5015   -4.9552   -3.6835 C   0  0  0  0  0  0  0  0  0  0  0  0
   -1.0235   -6.3177   -2.7200 S   0  0  0  0  0  0  0  0  0  0  0  0
    0.3152   -5.1166   -4.8425 C   0  0  0  0  0  0  0  0  0  0  0  0
    0.9102   -4.1086   -5.5440 C   0  0  0  0  0  0  0  0  0  0  0  0
    1.7884   -4.5650   -6.5538 C   0  0  0  0  0  0  0  0  0  0  0  0
    2.5767   -3.7922   -7.4219 C   0  0  0  0  0  0  0  0  0  0  0  0
    2.6089   -2.3411   -7.3187 C   0  0  0  0  0  0  0  0  0  0  0  0
    2.3025   -1.3348   -8.7022 S   0  0  0  0  0  0  0  0  0  0  0  0
    2.5553    0.1198   -7.8028 C   0  0  0  0  0  0  0  0  0  0  0  0
    2.4327    1.4674   -8.4263 C   0  0  0  0  0  0  0  0  0  0  0  0
    2.7022    1.4434   -9.9251 C   0  0  0  0  0  0  0  0  0  0  0  0
    2.8515   -0.1756   -6.5049 C   0  0  0  0  0  0  0  0  0  0  0  0
    3.1870    1.0112   -5.3117 Cl  0  0  0  0  0  0  0  0  0  0  0  0
    2.8711   -1.5659   -6.2213 C   0  0  0  0  0  0  0  0  0  0  0  0
    3.2477   -2.1712   -4.6576 Cl  0  0  0  0  0  0  0  0  0  0  0  0
    3.3354   -4.4846   -8.3584 C   0  0  0  0  0  0  0  0  0  0  0  0
    3.3474   -5.8975   -8.4492 C   0  0  0  0  0  0  0  0  0  0  0  0
    2.5555   -6.6665   -7.5815 C   0  0  0  0  0  0  0  0  0  0  0  0
    2.5098   -8.1163   -7.6775 C   0  0  0  0  0  0  0  0  0  0  0  0
    2.7954   -9.1300   -6.2949 S   0  0  0  0  0  0  0  0  0  0  0  0
    2.5392  -10.5777   -7.2066 C   0  0  0  0  0  0  0  0  0  0  0  0
    2.6927  -11.9201   -6.5814 C   0  0  0  0  0  0  0  0  0  0  0  0
    4.1554  -12.3704   -6.5998 C   0  0  0  0  0  0  0  0  0  0  0  0
    2.2546  -10.2768   -8.5053 C   0  0  0  0  0  0  0  0  0  0  0  0
    2.2323   -8.8825   -8.7754 C   0  0  0  0  0  0  0  0  0  0  0  0
    1.8151   -8.2449  -10.3139 Cl  0  0  0  0  0  0  0  0  0  0  0  0
    1.9359  -11.4537   -9.7133 Cl  0  0  0  0  0  0  0  0  0  0  0  0
    1.8103   -5.9784   -6.6338 C   0  0  0  0  0  0  0  0  0  0  0  0
    0.7711   -6.6974   -5.4362 S   0  0  0  0  0  0  0  0  0  0  0  0
    4.2652   -6.3518   -9.4405 C   0  0  0  0  0  0  0  0  0  0  0  0
    4.8958   -5.3412  -10.0721 C   0  0  0  0  0  0  0  0  0  0  0  0
    4.4336   -3.7745   -9.5076 S   0  0  0  0  0  0  0  0  0  0  0  0
   11.0169    3.8955   -8.6861 H   0  0  0  0  0  0  0  0  0  0  0  0
   10.6629    5.9069   -7.0690 H   0  0  0  0  0  0  0  0  0  0  0  0
    8.8995   11.1753   -4.6390 H   0  0  0  0  0  0  0  0  0  0  0  0
   10.5429   11.1419   -3.9713 H   0  0  0  0  0  0  0  0  0  0  0  0
    7.9883   10.4480   -2.4331 H   0  0  0  0  0  0  0  0  0  0  0  0
    9.6219   10.4341   -1.7619 H   0  0  0  0  0  0  0  0  0  0  0  0
    8.8969   11.9577   -2.2854 H   0  0  0  0  0  0  0  0  0  0  0  0
    5.5116   -2.6206   -6.6279 H   0  0  0  0  0  0  0  0  0  0  0  0
    6.1695   -2.4285   -4.9908 H   0  0  0  0  0  0  0  0  0  0  0  0
    7.8133   -2.5876   -7.5650 H   0  0  0  0  0  0  0  0  0  0  0  0
    8.4828   -2.3873   -5.9426 H   0  0  0  0  0  0  0  0  0  0  0  0
    7.6363   -3.8788   -6.3725 H   0  0  0  0  0  0  0  0  0  0  0  0
    5.1539    2.7457   -3.7210 H   0  0  0  0  0  0  0  0  0  0  0  0
    3.7117    2.9274   -1.4283 H   0  0  0  0  0  0  0  0  0  0  0  0
   -0.9779   -0.6520    1.3421 H   0  0  0  0  0  0  0  0  0  0  0  0
    0.3592   -1.8126    1.2066 H   0  0  0  0  0  0  0  0  0  0  0  0
   -0.7022   -1.8875    3.4581 H   0  0  0  0  0  0  0  0  0  0  0  0
    0.9823   -1.3672    3.5734 H   0  0  0  0  0  0  0  0  0  0  0  0
   -0.3198   -0.1813    3.7064 H   0  0  0  0  0  0  0  0  0  0  0  0
    3.8826   11.5584    3.5746 H   0  0  0  0  0  0  0  0  0  0  0  0
    3.7528   12.5542    2.1112 H   0  0  0  0  0  0  0  0  0  0  0  0
    6.1573   10.8153    2.8575 H   0  0  0  0  0  0  0  0  0  0  0  0
    6.0257   11.8148    1.4072 H   0  0  0  0  0  0  0  0  0  0  0  0
    6.0762   12.5749    3.0013 H   0  0  0  0  0  0  0  0  0  0  0  0
    0.8610    7.8506    2.9373 H   0  0  0  0  0  0  0  0  0  0  0  0
   -0.3538    5.6709    6.3233 H   0  0  0  0  0  0  0  0  0  0  0  0
    0.3803    4.5211   12.2081 H   0  0  0  0  0  0  0  0  0  0  0  0
   -0.1426    2.8762   11.7916 H   0  0  0  0  0  0  0  0  0  0  0  0
   -1.1708    3.6141   13.9299 H   0  0  0  0  0  0  0  0  0  0  0  0
   -1.8910    5.0065   13.1160 H   0  0  0  0  0  0  0  0  0  0  0  0
   -2.4127    3.3721   12.6950 H   0  0  0  0  0  0  0  0  0  0  0  0
   -5.2804    3.4824   -1.0356 H   0  0  0  0  0  0  0  0  0  0  0  0
   -4.5835    2.0288   -0.2912 H   0  0  0  0  0  0  0  0  0  0  0  0
   -6.8595    1.1374    0.1231 H   0  0  0  0  0  0  0  0  0  0  0  0
   -6.6312    1.5075   -1.5889 H   0  0  0  0  0  0  0  0  0  0  0  0
   -7.5743    2.5945   -0.5669 H   0  0  0  0  0  0  0  0  0  0  0  0
   -6.0078    1.9919    4.9019 H   0  0  0  0  0  0  0  0  0  0  0  0
   -4.8268   -2.4859    8.6975 H   0  0  0  0  0  0  0  0  0  0  0  0
   -4.3352   -4.6369    9.7709 H   0  0  0  0  0  0  0  0  0  0  0  0
   -1.2390   -5.8109   10.6618 H   0  0  0  0  0  0  0  0  0  0  0  0
   -2.8507   -6.4194   10.2715 H   0  0  0  0  0  0  0  0  0  0  0  0
   -1.5098   -6.6569    9.1429 H   0  0  0  0  0  0  0  0  0  0  0  0
   -0.2951   -4.3817    8.4307 H   0  0  0  0  0  0  0  0  0  0  0  0
   -0.7869   -2.2463    7.3302 H   0  0  0  0  0  0  0  0  0  0  0  0
   -1.2597   -0.2995    9.0087 H   0  0  0  0  0  0  0  0  0  0  0  0
    0.5033    1.3601    8.6074 H   0  0  0  0  0  0  0  0  0  0  0  0
    0.9312    3.6093    7.2882 H   0  0  0  0  0  0  0  0  0  0  0  0
    1.8518    2.4184    6.3781 H   0  0  0  0  0  0  0  0  0  0  0  0
    0.7186    3.4745    5.5328 H   0  0  0  0  0  0  0  0  0  0  0  0
   -1.1668    2.2222    4.7786 H   0  0  0  0  0  0  0  0  0  0  0  0
   -2.8813    0.5133    5.1361 H   0  0  0  0  0  0  0  0  0  0  0  0
   -6.7269   -4.9938    3.0308 H   0  0  0  0  0  0  0  0  0  0  0  0
   -6.7923   -6.7319    1.2951 H   0  0  0  0  0  0  0  0  0  0  0  0
   -6.9449   -7.3890   -0.9784 H   0  0  0  0  0  0  0  0  0  0  0  0
   -5.8146   -6.4155   -1.9202 H   0  0  0  0  0  0  0  0  0  0  0  0
   -7.5479   -6.2007   -2.1444 H   0  0  0  0  0  0  0  0  0  0  0  0
   -6.7676   -3.7225   -1.7247 H   0  0  0  0  0  0  0  0  0  0  0  0
   -6.7163   -1.9793    0.0089 H   0  0  0  0  0  0  0  0  0  0  0  0
   -9.1886   -2.3427    1.9942 H   0  0  0  0  0  0  0  0  0  0  0  0
  -10.6230   -0.3569    1.7801 H   0  0  0  0  0  0  0  0  0  0  0  0
  -10.3727    2.4655    3.1444 H   0  0  0  0  0  0  0  0  0  0  0  0
   -9.3687    3.1180    1.8530 H   0  0  0  0  0  0  0  0  0  0  0  0
  -10.7592    2.0909    1.4665 H   0  0  0  0  0  0  0  0  0  0  0  0
   -7.3063    2.1462    2.7125 H   0  0  0  0  0  0  0  0  0  0  0  0
   -5.8396    0.1707    2.8333 H   0  0  0  0  0  0  0  0  0  0  0  0
   -3.7379   -5.6806    2.1756 H   0  0  0  0  0  0  0  0  0  0  0  0
   -5.0510  -10.1835    1.5220 H   0  0  0  0  0  0  0  0  0  0  0  0
   -3.6207  -11.2306    1.4498 H   0  0  0  0  0  0  0  0  0  0  0  0
   -5.3633  -11.9737   -0.1687 H   0  0  0  0  0  0  0  0  0  0  0  0
   -3.9042  -11.4488   -1.0147 H   0  0  0  0  0  0  0  0  0  0  0  0
   -5.3169  -10.3911   -0.9550 H   0  0  0  0  0  0  0  0  0  0  0  0
   -2.3121    2.7740   -0.7441 H   0  0  0  0  0  0  0  0  0  0  0  0
   -0.8501    3.0114   -1.7097 H   0  0  0  0  0  0  0  0  0  0  0  0
   -2.8841    3.8465   -2.8997 H   0  0  0  0  0  0  0  0  0  0  0  0
   -3.5839    2.2232   -2.8409 H   0  0  0  0  0  0  0  0  0  0  0  0
   -2.1245    2.5242   -3.7883 H   0  0  0  0  0  0  0  0  0  0  0  0
   -0.6831   -2.8168   -3.5990 H   0  0  0  0  0  0  0  0  0  0  0  0
    0.7361   -3.0692   -5.3431 H   0  0  0  0  0  0  0  0  0  0  0  0
    3.1356    2.1399   -7.9282 H   0  0  0  0  0  0  0  0  0  0  0  0
    1.4246    1.8545   -8.2419 H   0  0  0  0  0  0  0  0  0  0  0  0
    3.7040    1.0723  -10.1230 H   0  0  0  0  0  0  0  0  0  0  0  0
    1.9882    0.7966  -10.4305 H   0  0  0  0  0  0  0  0  0  0  0  0
    2.6169    2.4458  -10.3361 H   0  0  0  0  0  0  0  0  0  0  0  0
    2.0830  -12.6362   -7.1354 H   0  0  0  0  0  0  0  0  0  0  0  0
    2.3379  -11.8806   -5.5502 H   0  0  0  0  0  0  0  0  0  0  0  0
    4.2500  -13.3499   -6.1392 H   0  0  0  0  0  0  0  0  0  0  0  0
    4.5188  -12.4296   -7.6226 H   0  0  0  0  0  0  0  0  0  0  0  0
    4.7739  -11.6645   -6.0506 H   0  0  0  0  0  0  0  0  0  0  0  0
    4.4454   -7.3898   -9.6495 H   0  0  0  0  0  0  0  0  0  0  0  0
    5.6286   -5.4075  -10.8523 H   0  0  0  0  0  0  0  0  0  0  0  0
  1  2  2  0  0  0  0
  2  3  1  0  0  0  0
  3  4  2  0  0  0  0
  4  5  1  0  0  0  0
  5  6  1  0  0  0  0
  6  7  1  0  0  0  0
  7  8  1  0  0  0  0
  8  9  1  0  0  0  0
  7 10  2  0  0  0  0
 10 11  1  0  0  0  0
 10 12  1  0  0  0  0
 12 13  1  0  0  0  0
  4 14  1  0  0  0  0
 14 15  2  0  0  0  0
 15 16  1  0  0  0  0
 16 17  1  0  0  0  0
 17 18  1  0  0  0  0
 18 19  1  0  0  0  0
 19 20  1  0  0  0  0
 20 21  1  0  0  0  0
 19 22  2  0  0  0  0
 22 23  1  0  0  0  0
 23 24  1  0  0  0  0
 22 25  1  0  0  0  0
 16 26  2  0  0  0  0
 26 27  1  0  0  0  0
 15 28  1  0  0  0  0
 28 29  2  0  0  0  0
 29 30  1  0  0  0  0
 29 31  1  0  0  0  0
 31 32  2  0  0  0  0
 32 33  1  0  0  0  0
 33 34  2  0  0  0  0
 34 35  1  0  0  0  0
 35 36  1  0  0  0  0
 36 37  1  0  0  0  0
 37 38  1  0  0  0  0
 38 39  1  0  0  0  0
 37 40  2  0  0  0  0
 40 41  1  0  0  0  0
 40 42  1  0  0  0  0
 42 43  1  0  0  0  0
 34 44  1  0  0  0  0
 44 45  2  0  0  0  0
 45 46  1  0  0  0  0
 46 47  1  0  0  0  0
 47 48  1  0  0  0  0
 48 49  1  0  0  0  0
 49 50  1  0  0  0  0
 50 51  1  0  0  0  0
 49 52  2  0  0  0  0
 52 53  1  0  0  0  0
 53 54  1  0  0  0  0
 52 55  1  0  0  0  0
 46 56  2  0  0  0  0
 56 57  1  0  0  0  0
 45 58  1  0  0  0  0
 58 59  2  0  0  0  0
 59 60  1  0  0  0  0
 59 61  1  0  0  0  0
 61 62  2  0  0  0  0
 62 63  1  0  0  0  0
 63 64  2  0  0  0  0
 64 65  1  0  0  0  0
 65 66  1  0  0  0  0
 66 67  1  0  0  0  0
 67 68  1  0  0  0  0
 68 69  1  0  0  0  0
 67 70  2  0  0  0  0
 70 71  1  0  0  0  0
 70 72  1  0  0  0  0
 72 73  1  0  0  0  0
 64 74  1  0  0  0  0
 74 75  2  0  0  0  0
 75 76  1  0  0  0  0
 76 77  1  0  0  0  0
 77 78  1  0  0  0  0
 78 79  1  0  0  0  0
 79 80  1  0  0  0  0
 80 81  1  0  0  0  0
 79 82  2  0  0  0  0
 82 83  1  0  0  0  0
 83 84  1  0  0  0  0
 82 85  1  0  0  0  0
 76 86  2  0  0  0  0
 86 87  1  0  0  0  0
 75 88  1  0  0  0  0
 88 89  2  0  0  0  0
 89 90  1  0  0  0  0
 89 91  1  0  0  0  0
 91 92  2  0  0  0  0
 92 93  1  0  0  0  0
 93 94  1  0  0  0  0
 94 95  2  0  0  0  0
 95 96  1  0  0  0  0
 96 97  2  0  0  0  0
 97 98  1  0  0  0  0
 97 99  1  0  0  0  0
 99100  2  0  0  0  0
 93101  1  0  0  0  0
101102  2  0  0  0  0
102103  1  0  0  0  0
103104  2  0  0  0  0
104105  1  0  0  0  0
104106  1  0  0  0  0
106107  2  0  0  0  0
 92108  1  0  0  0  0
108109  1  0  0  0  0
109110  1  0  0  0  0
110111  2  0  0  0  0
111112  1  0  0  0  0
112113  1  0  0  0  0
113114  2  0  0  0  0
114115  1  0  0  0  0
115116  2  0  0  0  0
116117  1  0  0  0  0
116118  1  0  0  0  0
118119  2  0  0  0  0
112120  1  0  0  0  0
120121  2  0  0  0  0
121122  1  0  0  0  0
122123  2  0  0  0  0
123124  1  0  0  0  0
123125  1  0  0  0  0
125126  2  0  0  0  0
111127  1  0  0  0  0
127128  1  0  0  0  0
110129  1  0  0  0  0
129130  2  0  0  0  0
130131  1  0  0  0  0
131132  2  0  0  0  0
132133  1  0  0  0  0
133134  1  0  0  0  0
134135  1  0  0  0  0
135136  1  0  0  0  0
136137  1  0  0  0  0
135138  2  0  0  0  0
138139  1  0  0  0  0
138140  1  0  0  0  0
140141  1  0  0  0  0
132142  1  0  0  0  0
142143  2  0  0  0  0
143144  1  0  0  0  0
144145  1  0  0  0  0
145146  1  0  0  0  0
146147  1  0  0  0  0
147148  1  0  0  0  0
148149  1  0  0  0  0
147150  2  0  0  0  0
150151  1  0  0  0  0
151152  1  0  0  0  0
150153  1  0  0  0  0
144154  2  0  0  0  0
154155  1  0  0  0  0
143156  1  0  0  0  0
156157  2  0  0  0  0
157158  1  0  0  0  0
157159  1  0  0  0  0
159160  2  0  0  0  0
160161  1  0  0  0  0
161162  2  0  0  0  0
162163  1  0  0  0  0
163164  1  0  0  0  0
164165  1  0  0  0  0
165166  1  0  0  0  0
166167  1  0  0  0  0
165168  2  0  0  0  0
168169  1  0  0  0  0
168170  1  0  0  0  0
170171  1  0  0  0  0
162172  1  0  0  0  0
172173  2  0  0  0  0
173174  1  0  0  0  0
174175  1  0  0  0  0
175176  1  0  0  0  0
176177  1  0  0  0  0
177178  1  0  0  0  0
178179  1  0  0  0  0
177180  2  0  0  0  0
180181  1  0  0  0  0
181182  1  0  0  0  0
180183  1  0  0  0  0
174184  2  0  0  0  0
184185  1  0  0  0  0
173186  1  0  0  0  0
186187  2  0  0  0  0
187188  1  0  0  0  0
 27  1  1  0  0  0  0
 57 31  1  0  0  0  0
 87 61  1  0  0  0  0
128 91  1  0  0  0  0
155129  1  0  0  0  0
185159  1  0  0  0  0
 26  3  1  0  0  0  0
 56 33  1  0  0  0  0
 86 63  1  0  0  0  0
100 94  1  0  0  0  0
107101  1  0  0  0  0
127108  2  0  0  0  0
154131  1  0  0  0  0
184161  1  0  0  0  0
 12  5  2  0  0  0  0
 30 14  1  0  0  0  0
 42 35  2  0  0  0  0
 60 44  1  0  0  0  0
 72 65  2  0  0  0  0
 90 74  1  0  0  0  0
119113  1  0  0  0  0
126120  1  0  0  0  0
140133  2  0  0  0  0
158142  1  0  0  0  0
170163  2  0  0  0  0
188172  1  0  0  0  0
 23 17  2  0  0  0  0
 53 47  2  0  0  0  0
 83 77  2  0  0  0  0
151145  2  0  0  0  0
181175  2  0  0  0  0
  1189  1  0  0  0  0
  2190  1  0  0  0  0
  8191  1  0  0  0  0
  8192  1  0  0  0  0
  9193  1  0  0  0  0
  9194  1  0  0  0  0
  9195  1  0  0  0  0
 20196  1  0  0  0  0
 20197  1  0  0  0  0
 21198  1  0  0  0  0
 21199  1  0  0  0  0
 21200  1  0  0  0  0
 28201  1  0  0  0  0
 32202  1  0  0  0  0
 38203  1  0  0  0  0
 38204  1  0  0  0  0
 39205  1  0  0  0  0
 39206  1  0  0  0  0
 39207  1  0  0  0  0
 50208  1  0  0  0  0
 50209  1  0  0  0  0
 51210  1  0  0  0  0
 51211  1  0  0  0  0
 51212  1  0  0  0  0
 58213  1  0  0  0  0
 62214  1  0  0  0  0
 68215  1  0  0  0  0
 68216  1  0  0  0  0
 69217  1  0  0  0  0
 69218  1  0  0  0  0
 69219  1  0  0  0  0
 80220  1  0  0  0  0
 80221  1  0  0  0  0
 81222  1  0  0  0  0
 81223  1  0  0  0  0
 81224  1  0  0  0  0
 88225  1  0  0  0  0
 95226  1  0  0  0  0
 96227  1  0  0  0  0
 98228  1  0  0  0  0
 98229  1  0  0  0  0
 98230  1  0  0  0  0
 99231  1  0  0  0  0
100232  1  0  0  0  0
102233  1  0  0  0  0
103234  1  0  0  0  0
105235  1  0  0  0  0
105236  1  0  0  0  0
105237  1  0  0  0  0
106238  1  0  0  0  0
107239  1  0  0  0  0
114240  1  0  0  0  0
115241  1  0  0  0  0
117242  1  0  0  0  0
117243  1  0  0  0  0
117244  1  0  0  0  0
118245  1  0  0  0  0
119246  1  0  0  0  0
121247  1  0  0  0  0
122248  1  0  0  0  0
124249  1  0  0  0  0
124250  1  0  0  0  0
124251  1  0  0  0  0
125252  1  0  0  0  0
126253  1  0  0  0  0
130254  1  0  0  0  0
136255  1  0  0  0  0
136256  1  0  0  0  0
137257  1  0  0  0  0
137258  1  0  0  0  0
137259  1  0  0  0  0
148260  1  0  0  0  0
148261  1  0  0  0  0
149262  1  0  0  0  0
149263  1  0  0  0  0
149264  1  0  0  0  0
156265  1  0  0  0  0
160266  1  0  0  0  0
166267  1  0  0  0  0
166268  1  0  0  0  0
167269  1  0  0  0  0
167270  1  0  0  0  0
167271  1  0  0  0  0
178272  1  0  0  0  0
178273  1  0  0  0  0
179274  1  0  0  0  0
179275  1  0  0  0  0
179276  1  0  0  0  0
186277  1  0  0  0  0
187278  1  0  0  0  0
M  END
