191

C          4.51890       -2.58680       14.54230
C          4.90530       -2.03860       13.37240
C          3.99990       -2.31170       12.30420
C          4.10670       -1.93740       10.95780
C          5.20770       -1.09740       10.46760
C          5.96970       -1.49040        9.36910
C          6.98130       -0.68390        8.89320
C          7.27260        0.54000        9.49040
S          8.61150        1.48660        8.82220
C          7.93110        3.18630        8.76100
C          6.67200        3.26010        7.92080
C          6.52040        0.90790       10.60140
F          6.76970        2.06540       11.25320
C          5.49730        0.11590       11.08260
C          3.11480       -2.38980       10.09790
C          2.02370       -3.18800       10.53290
C          1.91970       -3.56950       11.88340
C          0.82990       -4.43130       12.35520
C          0.54690       -5.63500       11.71530
C         -0.46350       -6.46390       12.16330
C         -1.23120       -6.11690       13.26940
S         -2.56570       -7.05900       13.92830
C         -2.36190       -8.71190       13.17900
C         -1.15000       -9.44470       13.72230
C         -0.94140       -4.90270       13.89580
C          0.06700       -4.07150       13.46430
F         -1.67640       -4.52670       14.96020
C          2.91010       -3.10840       12.73700
S          3.03630       -3.47220       14.43970
C          1.12300       -3.46140        9.47860
C          1.50600       -2.91330        8.28050
S          3.00510       -2.01960        8.39550
C          0.88490       -2.98780        7.01810
C         -0.23610       -3.59420        6.56940
C         -0.51090       -3.45020        5.17350
C          0.37070       -2.71710        4.45400
S          1.65440       -2.15920        5.60420
O          1.63210       -0.73260        5.77810
O          2.92170       -2.76360        5.29350
C          0.42970       -2.40840        3.08160
C          1.40620       -1.61110        2.58050
C          1.58330       -1.28600        1.20870
C          0.90550       -1.73980        0.10600
C          1.40370       -1.23760       -1.11720
C          0.93560       -1.49950       -2.41780
C         -0.17980       -2.41990       -2.66750
C         -0.17930       -3.71340       -2.14650
C         -1.23480       -4.56510       -2.38610
C         -2.33130       -4.16900       -3.15330
S         -3.59920       -5.37030       -3.39430
C         -5.12930       -4.38710       -3.65580
C         -6.32670       -5.26570       -3.35070
C         -2.30320       -2.88530       -3.69170
F         -3.30700       -2.43870       -4.47810
C         -1.25690       -2.01800       -3.45020
C          1.57730       -0.84560       -3.45810
C          2.64090        0.07510       -3.25420
C          3.10520        0.34450       -1.95380
C          4.18120        1.30850       -1.70000
C          5.27810        0.96040       -0.91740
C          6.28440        1.86840       -0.65370
C          6.22210        3.16430       -1.15320
S          7.43680        4.41270       -0.89270
C          8.38370        3.81150        0.54840
C          7.56230        3.82310        1.82360
C          5.12060        3.49550       -1.94550
C          4.11400        2.59860       -2.22370
F          5.03560        4.73930       -2.45740
C          2.48790       -0.34000       -0.91950
S          2.87030       -0.17920        0.77190
C          3.11900        0.59840       -4.47640
C          2.45560        0.11170       -5.57360
S          1.21960       -1.05390       -5.15640
C          2.59820        0.47950       -6.92910
C          3.28290        1.46460       -7.53800
C          3.06930        1.59790       -8.95600
C          2.15430        0.79240       -9.51200
S          1.70310       -0.42660       -8.21900
O          0.30430       -0.57150       -7.92160
O          2.41770       -1.63350       -8.52580
C          1.71670        0.63180      -10.87150
C          0.43360        0.71410      -11.26270
C         -0.66010        1.11460      -10.42860
C         -1.98670        0.91930      -10.69170
C         -2.84480        1.37030       -9.65980
C         -4.24800        1.29280       -9.59360
C         -5.03840        0.77170      -10.71520
C         -6.00060       -0.21350      -10.51830
C         -6.74820       -0.70540      -11.57070
C         -6.56080       -0.22750      -12.86260
S         -7.45180       -0.74100      -14.29160
C         -8.37850       -2.21510      -13.74310
C         -7.48190       -3.42400      -13.55190
C         -5.59830        0.76840      -13.04320
F         -5.39720        1.26550      -14.28110
C         -4.84440        1.26470      -12.00460
C         -4.84150        1.73430       -8.42150
C         -4.09940        2.23200       -7.31740
C         -2.69870        2.31510       -7.38750
C         -1.90640        2.72030       -6.22030
C         -0.92000        1.85990       -5.73800
C         -0.23380        2.17430       -4.58600
C         -0.47100        3.36010       -3.89530
S          0.50510        3.64660       -2.44860
C         -0.66890        4.39850       -1.26450
C         -1.86470        3.50450       -1.00530
C         -1.41730        4.23340       -4.42240
C         -2.14760        3.91490       -5.55070
F         -1.65200        5.42840       -3.84220
C         -2.10820        1.90340       -8.57040
S         -0.40400        1.95320       -8.91490
C         -4.93220        2.57510       -6.22920
C         -6.26520        2.39980       -6.48100
S         -6.55680        1.76460       -8.09440
C         -7.29870        2.69690       -5.57480
C         -8.64090        2.60050       -5.64210
C         -9.35740        3.04290       -4.47860
C         -8.61960        3.50830       -3.45350
S         -6.88170        3.39380       -3.95070
O         -6.16080        2.43740       -3.15300
O         -6.28320        4.69240       -4.10150
C         -9.00380        4.02160       -2.18070
C         -8.11290        4.44700       -1.28410
H          5.01640       -2.53250       15.49090
H          5.80980       -1.47160       13.24910
H          5.76980       -2.43570        8.88970
H          7.56660       -0.98880        8.04000
H          8.73940        3.76410        8.31270
H          7.76600        3.53810        9.77690
H          5.86960        2.67770        8.37010
H          6.34370        4.29470        7.84280
H          6.85630        2.87500        6.92010
H          4.92500        0.46230       11.92950
H          1.14290       -5.93850       10.86770
H         -0.65010       -7.38600       11.63710
H         -3.28180       -9.22830       13.45320
H         -2.33570       -8.60610       12.09520
H         -0.23240       -8.90520       13.49780
H         -1.22940       -9.54980       14.80170
H         -1.08800      -10.43700       13.27950
H          0.23920       -3.14250       13.98380
H          0.21500       -4.02290        9.60070
H         -0.90100       -4.16320        7.19980
H         -1.38410       -3.91450        4.74240
H         -0.32760       -2.83560        2.43650
H          2.12190       -1.18780        3.27200
H          0.07050       -2.41340        0.16390
H          0.66430       -4.05530       -1.56650
H         -1.23230       -5.56620       -1.98310
H         -5.14610       -4.04290       -4.68860
H         -5.08600       -3.53250       -2.98250
H         -6.29060       -5.61780       -2.32220
H         -7.24370       -4.69830       -3.49510
H         -6.34340       -6.13060       -4.01000
H         -1.30170       -1.02750       -3.87540
H          5.35900       -0.04180       -0.52570
H          7.12510        1.55280       -0.05800
H          8.78430        2.82490        0.31920
H          9.21430        4.51420        0.61540
H          7.20220        4.82860        2.02790
H          6.70280        3.16100        1.74270
H          8.17580        3.49560        2.66060
H          3.26450        2.92090       -2.80480
H          3.92740        1.30180       -4.54760
H          3.93020        2.15530       -7.02250
H          3.58320        2.37350       -9.50200
H          2.48180        0.39580      -11.60060
H          0.17590        0.48510      -12.28810
H         -2.33700        0.41870      -11.57660
H         -6.15500       -0.61730       -9.52990
H         -7.48450       -1.46610      -11.37030
H         -8.93650       -1.96040      -12.84300
H         -9.08800       -2.38490      -14.55300
H         -8.07920       -4.28480      -13.25740
H         -6.73330       -3.24090      -12.78430
H         -6.96810       -3.65900      -14.48100
H         -4.12830        2.04740      -12.19990
H         -0.72450        0.92910       -6.25000
H          0.50100        1.50030       -4.17860
H         -0.06680        4.52340       -0.36410
H         -0.96330        5.37830       -1.63390
H         -2.48370        3.94220       -0.22480
H         -2.47530        3.39380       -1.89960
H         -1.54130        2.51660       -0.68220
H         -2.88110        4.62070       -5.90910
H         -4.58020        2.93640       -5.28060
H         -9.16760        2.22210       -6.50430
H        -10.43540        2.99510       -4.45970
H        -10.06700        4.05220       -1.97230
H         -8.41400        4.83400       -0.32630
H         -7.05840        4.41320       -1.49770
