
  xtb     03082202523D
 energy: -341.657795537941 gnorm: 0.000756418606 xtb: 6.4.1 (unknown)
191208  0     0  0            999 V2000
    4.5189   -2.5868   14.5423 C   0  0  0  0  0  0  0  0  0  0  0  0
    4.9053   -2.0386   13.3724 C   0  0  0  0  0  0  0  0  0  0  0  0
    3.9999   -2.3117   12.3042 C   0  0  0  0  0  0  0  0  0  0  0  0
    4.1067   -1.9374   10.9578 C   0  0  0  0  0  0  0  0  0  0  0  0
    5.2077   -1.0974   10.4676 C   0  0  0  0  0  0  0  0  0  0  0  0
    5.9697   -1.4904    9.3691 C   0  0  0  0  0  0  0  0  0  0  0  0
    6.9813   -0.6839    8.8932 C   0  0  0  0  0  0  0  0  0  0  0  0
    7.2726    0.5400    9.4904 C   0  0  0  0  0  0  0  0  0  0  0  0
    8.6115    1.4866    8.8222 S   0  0  0  0  0  0  0  0  0  0  0  0
    7.9311    3.1863    8.7610 C   0  0  0  0  0  0  0  0  0  0  0  0
    6.6720    3.2601    7.9208 C   0  0  0  0  0  0  0  0  0  0  0  0
    6.5204    0.9079   10.6014 C   0  0  0  0  0  0  0  0  0  0  0  0
    6.7697    2.0654   11.2532 F   0  0  0  0  0  0  0  0  0  0  0  0
    5.4973    0.1159   11.0826 C   0  0  0  0  0  0  0  0  0  0  0  0
    3.1148   -2.3898   10.0979 C   0  0  0  0  0  0  0  0  0  0  0  0
    2.0237   -3.1880   10.5329 C   0  0  0  0  0  0  0  0  0  0  0  0
    1.9197   -3.5695   11.8834 C   0  0  0  0  0  0  0  0  0  0  0  0
    0.8299   -4.4313   12.3552 C   0  0  0  0  0  0  0  0  0  0  0  0
    0.5469   -5.6350   11.7153 C   0  0  0  0  0  0  0  0  0  0  0  0
   -0.4635   -6.4639   12.1633 C   0  0  0  0  0  0  0  0  0  0  0  0
   -1.2312   -6.1169   13.2694 C   0  0  0  0  0  0  0  0  0  0  0  0
   -2.5657   -7.0590   13.9283 S   0  0  0  0  0  0  0  0  0  0  0  0
   -2.3619   -8.7119   13.1790 C   0  0  0  0  0  0  0  0  0  0  0  0
   -1.1500   -9.4447   13.7223 C   0  0  0  0  0  0  0  0  0  0  0  0
   -0.9414   -4.9027   13.8958 C   0  0  0  0  0  0  0  0  0  0  0  0
    0.0670   -4.0715   13.4643 C   0  0  0  0  0  0  0  0  0  0  0  0
   -1.6764   -4.5267   14.9602 F   0  0  0  0  0  0  0  0  0  0  0  0
    2.9101   -3.1084   12.7370 C   0  0  0  0  0  0  0  0  0  0  0  0
    3.0363   -3.4722   14.4397 S   0  0  0  0  0  0  0  0  0  0  0  0
    1.1230   -3.4614    9.4786 C   0  0  0  0  0  0  0  0  0  0  0  0
    1.5060   -2.9133    8.2805 C   0  0  0  0  0  0  0  0  0  0  0  0
    3.0051   -2.0196    8.3955 S   0  0  0  0  0  0  0  0  0  0  0  0
    0.8849   -2.9878    7.0181 C   0  0  0  0  0  0  0  0  0  0  0  0
   -0.2361   -3.5942    6.5694 C   0  0  0  0  0  0  0  0  0  0  0  0
   -0.5109   -3.4502    5.1735 C   0  0  0  0  0  0  0  0  0  0  0  0
    0.3707   -2.7171    4.4540 C   0  0  0  0  0  0  0  0  0  0  0  0
    1.6544   -2.1592    5.6042 S   0  0  0  0  0  6  0  0  0  0  0  0
    1.6321   -0.7326    5.7781 O   0  0  0  0  0  0  0  0  0  0  0  0
    2.9217   -2.7636    5.2935 O   0  0  0  0  0  0  0  0  0  0  0  0
    0.4297   -2.4084    3.0816 C   0  0  0  0  0  0  0  0  0  0  0  0
    1.4062   -1.6111    2.5805 C   0  0  0  0  0  0  0  0  0  0  0  0
    1.5833   -1.2860    1.2087 C   0  0  0  0  0  0  0  0  0  0  0  0
    0.9055   -1.7398    0.1060 C   0  0  0  0  0  0  0  0  0  0  0  0
    1.4037   -1.2376   -1.1172 C   0  0  0  0  0  0  0  0  0  0  0  0
    0.9356   -1.4995   -2.4178 C   0  0  0  0  0  0  0  0  0  0  0  0
   -0.1798   -2.4199   -2.6675 C   0  0  0  0  0  0  0  0  0  0  0  0
   -0.1793   -3.7134   -2.1465 C   0  0  0  0  0  0  0  0  0  0  0  0
   -1.2348   -4.5651   -2.3861 C   0  0  0  0  0  0  0  0  0  0  0  0
   -2.3313   -4.1690   -3.1533 C   0  0  0  0  0  0  0  0  0  0  0  0
   -3.5992   -5.3703   -3.3943 S   0  0  0  0  0  0  0  0  0  0  0  0
   -5.1293   -4.3871   -3.6558 C   0  0  0  0  0  0  0  0  0  0  0  0
   -6.3267   -5.2657   -3.3507 C   0  0  0  0  0  0  0  0  0  0  0  0
   -2.3032   -2.8853   -3.6917 C   0  0  0  0  0  0  0  0  0  0  0  0
   -3.3070   -2.4387   -4.4781 F   0  0  0  0  0  0  0  0  0  0  0  0
   -1.2569   -2.0180   -3.4502 C   0  0  0  0  0  0  0  0  0  0  0  0
    1.5773   -0.8456   -3.4581 C   0  0  0  0  0  0  0  0  0  0  0  0
    2.6409    0.0751   -3.2542 C   0  0  0  0  0  0  0  0  0  0  0  0
    3.1052    0.3445   -1.9538 C   0  0  0  0  0  0  0  0  0  0  0  0
    4.1812    1.3085   -1.7000 C   0  0  0  0  0  0  0  0  0  0  0  0
    5.2781    0.9604   -0.9174 C   0  0  0  0  0  0  0  0  0  0  0  0
    6.2844    1.8684   -0.6537 C   0  0  0  0  0  0  0  0  0  0  0  0
    6.2221    3.1643   -1.1532 C   0  0  0  0  0  0  0  0  0  0  0  0
    7.4368    4.4127   -0.8927 S   0  0  0  0  0  0  0  0  0  0  0  0
    8.3837    3.8115    0.5484 C   0  0  0  0  0  0  0  0  0  0  0  0
    7.5623    3.8231    1.8236 C   0  0  0  0  0  0  0  0  0  0  0  0
    5.1206    3.4955   -1.9455 C   0  0  0  0  0  0  0  0  0  0  0  0
    4.1140    2.5986   -2.2237 C   0  0  0  0  0  0  0  0  0  0  0  0
    5.0356    4.7393   -2.4574 F   0  0  0  0  0  0  0  0  0  0  0  0
    2.4879   -0.3400   -0.9195 C   0  0  0  0  0  0  0  0  0  0  0  0
    2.8703   -0.1792    0.7719 S   0  0  0  0  0  0  0  0  0  0  0  0
    3.1190    0.5984   -4.4764 C   0  0  0  0  0  0  0  0  0  0  0  0
    2.4556    0.1117   -5.5736 C   0  0  0  0  0  0  0  0  0  0  0  0
    1.2196   -1.0539   -5.1564 S   0  0  0  0  0  0  0  0  0  0  0  0
    2.5982    0.4795   -6.9291 C   0  0  0  0  0  0  0  0  0  0  0  0
    3.2829    1.4646   -7.5380 C   0  0  0  0  0  0  0  0  0  0  0  0
    3.0693    1.5979   -8.9560 C   0  0  0  0  0  0  0  0  0  0  0  0
    2.1543    0.7924   -9.5120 C   0  0  0  0  0  0  0  0  0  0  0  0
    1.7031   -0.4266   -8.2190 S   0  0  0  0  0  6  0  0  0  0  0  0
    0.3043   -0.5715   -7.9216 O   0  0  0  0  0  0  0  0  0  0  0  0
    2.4177   -1.6335   -8.5258 O   0  0  0  0  0  0  0  0  0  0  0  0
    1.7167    0.6318  -10.8715 C   0  0  0  0  0  0  0  0  0  0  0  0
    0.4336    0.7141  -11.2627 C   0  0  0  0  0  0  0  0  0  0  0  0
   -0.6601    1.1146  -10.4286 C   0  0  0  0  0  0  0  0  0  0  0  0
   -1.9867    0.9193  -10.6917 C   0  0  0  0  0  0  0  0  0  0  0  0
   -2.8448    1.3703   -9.6598 C   0  0  0  0  0  0  0  0  0  0  0  0
   -4.2480    1.2928   -9.5936 C   0  0  0  0  0  0  0  0  0  0  0  0
   -5.0384    0.7717  -10.7152 C   0  0  0  0  0  0  0  0  0  0  0  0
   -6.0006   -0.2135  -10.5183 C   0  0  0  0  0  0  0  0  0  0  0  0
   -6.7482   -0.7054  -11.5707 C   0  0  0  0  0  0  0  0  0  0  0  0
   -6.5608   -0.2275  -12.8626 C   0  0  0  0  0  0  0  0  0  0  0  0
   -7.4518   -0.7410  -14.2916 S   0  0  0  0  0  0  0  0  0  0  0  0
   -8.3785   -2.2151  -13.7431 C   0  0  0  0  0  0  0  0  0  0  0  0
   -7.4819   -3.4240  -13.5519 C   0  0  0  0  0  0  0  0  0  0  0  0
   -5.5983    0.7684  -13.0432 C   0  0  0  0  0  0  0  0  0  0  0  0
   -5.3972    1.2655  -14.2811 F   0  0  0  0  0  0  0  0  0  0  0  0
   -4.8444    1.2647  -12.0046 C   0  0  0  0  0  0  0  0  0  0  0  0
   -4.8415    1.7343   -8.4215 C   0  0  0  0  0  0  0  0  0  0  0  0
   -4.0994    2.2320   -7.3174 C   0  0  0  0  0  0  0  0  0  0  0  0
   -2.6987    2.3151   -7.3875 C   0  0  0  0  0  0  0  0  0  0  0  0
   -1.9064    2.7203   -6.2203 C   0  0  0  0  0  0  0  0  0  0  0  0
   -0.9200    1.8599   -5.7380 C   0  0  0  0  0  0  0  0  0  0  0  0
   -0.2338    2.1743   -4.5860 C   0  0  0  0  0  0  0  0  0  0  0  0
   -0.4710    3.3601   -3.8953 C   0  0  0  0  0  0  0  0  0  0  0  0
    0.5051    3.6466   -2.4486 S   0  0  0  0  0  0  0  0  0  0  0  0
   -0.6689    4.3985   -1.2645 C   0  0  0  0  0  0  0  0  0  0  0  0
   -1.8647    3.5045   -1.0053 C   0  0  0  0  0  0  0  0  0  0  0  0
   -1.4173    4.2334   -4.4224 C   0  0  0  0  0  0  0  0  0  0  0  0
   -2.1476    3.9149   -5.5507 C   0  0  0  0  0  0  0  0  0  0  0  0
   -1.6520    5.4284   -3.8422 F   0  0  0  0  0  0  0  0  0  0  0  0
   -2.1082    1.9034   -8.5704 C   0  0  0  0  0  0  0  0  0  0  0  0
   -0.4040    1.9532   -8.9149 S   0  0  0  0  0  0  0  0  0  0  0  0
   -4.9322    2.5751   -6.2292 C   0  0  0  0  0  0  0  0  0  0  0  0
   -6.2652    2.3998   -6.4810 C   0  0  0  0  0  0  0  0  0  0  0  0
   -6.5568    1.7646   -8.0944 S   0  0  0  0  0  0  0  0  0  0  0  0
   -7.2987    2.6969   -5.5748 C   0  0  0  0  0  0  0  0  0  0  0  0
   -8.6409    2.6005   -5.6421 C   0  0  0  0  0  0  0  0  0  0  0  0
   -9.3574    3.0429   -4.4786 C   0  0  0  0  0  0  0  0  0  0  0  0
   -8.6196    3.5083   -3.4535 C   0  0  0  0  0  0  0  0  0  0  0  0
   -6.8817    3.3938   -3.9507 S   0  0  0  0  0  6  0  0  0  0  0  0
   -6.1608    2.4374   -3.1530 O   0  0  0  0  0  0  0  0  0  0  0  0
   -6.2832    4.6924   -4.1015 O   0  0  0  0  0  0  0  0  0  0  0  0
   -9.0038    4.0216   -2.1807 C   0  0  0  0  0  0  0  0  0  0  0  0
   -8.1129    4.4470   -1.2841 C   0  0  0  0  0  0  0  0  0  0  0  0
    5.0164   -2.5325   15.4909 H   0  0  0  0  0  0  0  0  0  0  0  0
    5.8098   -1.4716   13.2491 H   0  0  0  0  0  0  0  0  0  0  0  0
    5.7698   -2.4357    8.8897 H   0  0  0  0  0  0  0  0  0  0  0  0
    7.5666   -0.9888    8.0400 H   0  0  0  0  0  0  0  0  0  0  0  0
    8.7394    3.7641    8.3127 H   0  0  0  0  0  0  0  0  0  0  0  0
    7.7660    3.5381    9.7769 H   0  0  0  0  0  0  0  0  0  0  0  0
    5.8696    2.6777    8.3701 H   0  0  0  0  0  0  0  0  0  0  0  0
    6.3437    4.2947    7.8428 H   0  0  0  0  0  0  0  0  0  0  0  0
    6.8563    2.8750    6.9201 H   0  0  0  0  0  0  0  0  0  0  0  0
    4.9250    0.4623   11.9295 H   0  0  0  0  0  0  0  0  0  0  0  0
    1.1429   -5.9385   10.8677 H   0  0  0  0  0  0  0  0  0  0  0  0
   -0.6501   -7.3860   11.6371 H   0  0  0  0  0  0  0  0  0  0  0  0
   -3.2818   -9.2283   13.4532 H   0  0  0  0  0  0  0  0  0  0  0  0
   -2.3357   -8.6061   12.0952 H   0  0  0  0  0  0  0  0  0  0  0  0
   -0.2324   -8.9052   13.4978 H   0  0  0  0  0  0  0  0  0  0  0  0
   -1.2294   -9.5498   14.8017 H   0  0  0  0  0  0  0  0  0  0  0  0
   -1.0880  -10.4370   13.2795 H   0  0  0  0  0  0  0  0  0  0  0  0
    0.2392   -3.1425   13.9838 H   0  0  0  0  0  0  0  0  0  0  0  0
    0.2150   -4.0229    9.6007 H   0  0  0  0  0  0  0  0  0  0  0  0
   -0.9010   -4.1632    7.1998 H   0  0  0  0  0  0  0  0  0  0  0  0
   -1.3841   -3.9145    4.7424 H   0  0  0  0  0  0  0  0  0  0  0  0
   -0.3276   -2.8356    2.4365 H   0  0  0  0  0  0  0  0  0  0  0  0
    2.1219   -1.1878    3.2720 H   0  0  0  0  0  0  0  0  0  0  0  0
    0.0705   -2.4134    0.1639 H   0  0  0  0  0  0  0  0  0  0  0  0
    0.6643   -4.0553   -1.5665 H   0  0  0  0  0  0  0  0  0  0  0  0
   -1.2323   -5.5662   -1.9831 H   0  0  0  0  0  0  0  0  0  0  0  0
   -5.1461   -4.0429   -4.6886 H   0  0  0  0  0  0  0  0  0  0  0  0
   -5.0860   -3.5325   -2.9825 H   0  0  0  0  0  0  0  0  0  0  0  0
   -6.2906   -5.6178   -2.3222 H   0  0  0  0  0  0  0  0  0  0  0  0
   -7.2437   -4.6983   -3.4951 H   0  0  0  0  0  0  0  0  0  0  0  0
   -6.3434   -6.1306   -4.0100 H   0  0  0  0  0  0  0  0  0  0  0  0
   -1.3017   -1.0275   -3.8754 H   0  0  0  0  0  0  0  0  0  0  0  0
    5.3590   -0.0418   -0.5257 H   0  0  0  0  0  0  0  0  0  0  0  0
    7.1251    1.5528   -0.0580 H   0  0  0  0  0  0  0  0  0  0  0  0
    8.7843    2.8249    0.3192 H   0  0  0  0  0  0  0  0  0  0  0  0
    9.2143    4.5142    0.6154 H   0  0  0  0  0  0  0  0  0  0  0  0
    7.2022    4.8286    2.0279 H   0  0  0  0  0  0  0  0  0  0  0  0
    6.7028    3.1610    1.7427 H   0  0  0  0  0  0  0  0  0  0  0  0
    8.1758    3.4956    2.6606 H   0  0  0  0  0  0  0  0  0  0  0  0
    3.2645    2.9209   -2.8048 H   0  0  0  0  0  0  0  0  0  0  0  0
    3.9274    1.3018   -4.5476 H   0  0  0  0  0  0  0  0  0  0  0  0
    3.9302    2.1553   -7.0225 H   0  0  0  0  0  0  0  0  0  0  0  0
    3.5832    2.3735   -9.5020 H   0  0  0  0  0  0  0  0  0  0  0  0
    2.4818    0.3958  -11.6006 H   0  0  0  0  0  0  0  0  0  0  0  0
    0.1759    0.4851  -12.2881 H   0  0  0  0  0  0  0  0  0  0  0  0
   -2.3370    0.4187  -11.5766 H   0  0  0  0  0  0  0  0  0  0  0  0
   -6.1550   -0.6173   -9.5299 H   0  0  0  0  0  0  0  0  0  0  0  0
   -7.4845   -1.4661  -11.3703 H   0  0  0  0  0  0  0  0  0  0  0  0
   -8.9365   -1.9604  -12.8430 H   0  0  0  0  0  0  0  0  0  0  0  0
   -9.0880   -2.3849  -14.5530 H   0  0  0  0  0  0  0  0  0  0  0  0
   -8.0792   -4.2848  -13.2574 H   0  0  0  0  0  0  0  0  0  0  0  0
   -6.7333   -3.2409  -12.7843 H   0  0  0  0  0  0  0  0  0  0  0  0
   -6.9681   -3.6590  -14.4810 H   0  0  0  0  0  0  0  0  0  0  0  0
   -4.1283    2.0474  -12.1999 H   0  0  0  0  0  0  0  0  0  0  0  0
   -0.7245    0.9291   -6.2500 H   0  0  0  0  0  0  0  0  0  0  0  0
    0.5010    1.5003   -4.1786 H   0  0  0  0  0  0  0  0  0  0  0  0
   -0.0668    4.5234   -0.3641 H   0  0  0  0  0  0  0  0  0  0  0  0
   -0.9633    5.3783   -1.6339 H   0  0  0  0  0  0  0  0  0  0  0  0
   -2.4837    3.9422   -0.2248 H   0  0  0  0  0  0  0  0  0  0  0  0
   -2.4753    3.3938   -1.8996 H   0  0  0  0  0  0  0  0  0  0  0  0
   -1.5413    2.5166   -0.6822 H   0  0  0  0  0  0  0  0  0  0  0  0
   -2.8811    4.6207   -5.9091 H   0  0  0  0  0  0  0  0  0  0  0  0
   -4.5802    2.9364   -5.2806 H   0  0  0  0  0  0  0  0  0  0  0  0
   -9.1676    2.2221   -6.5043 H   0  0  0  0  0  0  0  0  0  0  0  0
  -10.4354    2.9951   -4.4597 H   0  0  0  0  0  0  0  0  0  0  0  0
  -10.0670    4.0522   -1.9723 H   0  0  0  0  0  0  0  0  0  0  0  0
   -8.4140    4.8340   -0.3263 H   0  0  0  0  0  0  0  0  0  0  0  0
   -7.0584    4.4132   -1.4977 H   0  0  0  0  0  0  0  0  0  0  0  0
  1  2  2  0  0  0  0
  2  3  1  0  0  0  0
  3  4  2  0  0  0  0
  4  5  1  0  0  0  0
  5  6  2  0  0  0  0
  6  7  1  0  0  0  0
  7  8  2  0  0  0  0
  8  9  1  0  0  0  0
  9 10  1  0  0  0  0
 10 11  1  0  0  0  0
  8 12  1  0  0  0  0
 12 13  1  0  0  0  0
 12 14  2  0  0  0  0
  4 15  1  0  0  0  0
 15 16  2  0  0  0  0
 16 17  1  0  0  0  0
 17 18  1  0  0  0  0
 18 19  2  0  0  0  0
 19 20  1  0  0  0  0
 20 21  2  0  0  0  0
 21 22  1  0  0  0  0
 22 23  1  0  0  0  0
 23 24  1  0  0  0  0
 21 25  1  0  0  0  0
 25 26  2  0  0  0  0
 25 27  1  0  0  0  0
 17 28  2  0  0  0  0
 28 29  1  0  0  0  0
 16 30  1  0  0  0  0
 30 31  2  0  0  0  0
 31 32  1  0  0  0  0
 31 33  1  0  0  0  0
 33 34  2  0  0  0  0
 34 35  1  0  0  0  0
 35 36  2  0  0  0  0
 36 37  1  0  0  0  0
 37 38  2  0  0  0  0
 37 39  2  0  0  0  0
 36 40  1  0  0  0  0
 40 41  2  0  0  0  0
 41 42  1  0  0  0  0
 42 43  2  0  0  0  0
 43 44  1  0  0  0  0
 44 45  2  0  0  0  0
 45 46  1  0  0  0  0
 46 47  2  0  0  0  0
 47 48  1  0  0  0  0
 48 49  2  0  0  0  0
 49 50  1  0  0  0  0
 50 51  1  0  0  0  0
 51 52  1  0  0  0  0
 49 53  1  0  0  0  0
 53 54  1  0  0  0  0
 53 55  2  0  0  0  0
 45 56  1  0  0  0  0
 56 57  2  0  0  0  0
 57 58  1  0  0  0  0
 58 59  1  0  0  0  0
 59 60  2  0  0  0  0
 60 61  1  0  0  0  0
 61 62  2  0  0  0  0
 62 63  1  0  0  0  0
 63 64  1  0  0  0  0
 64 65  1  0  0  0  0
 62 66  1  0  0  0  0
 66 67  2  0  0  0  0
 66 68  1  0  0  0  0
 58 69  2  0  0  0  0
 69 70  1  0  0  0  0
 57 71  1  0  0  0  0
 71 72  2  0  0  0  0
 72 73  1  0  0  0  0
 72 74  1  0  0  0  0
 74 75  2  0  0  0  0
 75 76  1  0  0  0  0
 76 77  2  0  0  0  0
 77 78  1  0  0  0  0
 78 79  2  0  0  0  0
 78 80  2  0  0  0  0
 77 81  1  0  0  0  0
 81 82  2  0  0  0  0
 82 83  1  0  0  0  0
 83 84  2  0  0  0  0
 84 85  1  0  0  0  0
 85 86  2  0  0  0  0
 86 87  1  0  0  0  0
 87 88  2  0  0  0  0
 88 89  1  0  0  0  0
 89 90  2  0  0  0  0
 90 91  1  0  0  0  0
 91 92  1  0  0  0  0
 92 93  1  0  0  0  0
 90 94  1  0  0  0  0
 94 95  1  0  0  0  0
 94 96  2  0  0  0  0
 86 97  1  0  0  0  0
 97 98  2  0  0  0  0
 98 99  1  0  0  0  0
 99100  1  0  0  0  0
100101  2  0  0  0  0
101102  1  0  0  0  0
102103  2  0  0  0  0
103104  1  0  0  0  0
104105  1  0  0  0  0
105106  1  0  0  0  0
103107  1  0  0  0  0
107108  2  0  0  0  0
107109  1  0  0  0  0
 99110  2  0  0  0  0
110111  1  0  0  0  0
 98112  1  0  0  0  0
112113  2  0  0  0  0
113114  1  0  0  0  0
113115  1  0  0  0  0
115116  2  0  0  0  0
116117  1  0  0  0  0
117118  2  0  0  0  0
118119  1  0  0  0  0
119120  2  0  0  0  0
119121  2  0  0  0  0
118122  1  0  0  0  0
122123  2  0  0  0  0
 29  1  1  0  0  0  0
 37 33  1  0  0  0  0
 70 42  1  0  0  0  0
 78 74  1  0  0  0  0
111 83  1  0  0  0  0
119115  1  0  0  0  0
 28  3  1  0  0  0  0
 69 44  1  0  0  0  0
110 85  1  0  0  0  0
 14  5  1  0  0  0  0
 32 15  1  0  0  0  0
 55 46  1  0  0  0  0
 73 56  1  0  0  0  0
 96 87  1  0  0  0  0
114 97  1  0  0  0  0
 26 18  1  0  0  0  0
 67 59  1  0  0  0  0
108100  1  0  0  0  0
  1124  1  0  0  0  0
  2125  1  0  0  0  0
  6126  1  0  0  0  0
  7127  1  0  0  0  0
 10128  1  0  0  0  0
 10129  1  0  0  0  0
 11130  1  0  0  0  0
 11131  1  0  0  0  0
 11132  1  0  0  0  0
 14133  1  0  0  0  0
 19134  1  0  0  0  0
 20135  1  0  0  0  0
 23136  1  0  0  0  0
 23137  1  0  0  0  0
 24138  1  0  0  0  0
 24139  1  0  0  0  0
 24140  1  0  0  0  0
 26141  1  0  0  0  0
 30142  1  0  0  0  0
 34143  1  0  0  0  0
 35144  1  0  0  0  0
 40145  1  0  0  0  0
 41146  1  0  0  0  0
 43147  1  0  0  0  0
 47148  1  0  0  0  0
 48149  1  0  0  0  0
 51150  1  0  0  0  0
 51151  1  0  0  0  0
 52152  1  0  0  0  0
 52153  1  0  0  0  0
 52154  1  0  0  0  0
 55155  1  0  0  0  0
 60156  1  0  0  0  0
 61157  1  0  0  0  0
 64158  1  0  0  0  0
 64159  1  0  0  0  0
 65160  1  0  0  0  0
 65161  1  0  0  0  0
 65162  1  0  0  0  0
 67163  1  0  0  0  0
 71164  1  0  0  0  0
 75165  1  0  0  0  0
 76166  1  0  0  0  0
 81167  1  0  0  0  0
 82168  1  0  0  0  0
 84169  1  0  0  0  0
 88170  1  0  0  0  0
 89171  1  0  0  0  0
 92172  1  0  0  0  0
 92173  1  0  0  0  0
 93174  1  0  0  0  0
 93175  1  0  0  0  0
 93176  1  0  0  0  0
 96177  1  0  0  0  0
101178  1  0  0  0  0
102179  1  0  0  0  0
105180  1  0  0  0  0
105181  1  0  0  0  0
106182  1  0  0  0  0
106183  1  0  0  0  0
106184  1  0  0  0  0
108185  1  0  0  0  0
112186  1  0  0  0  0
116187  1  0  0  0  0
117188  1  0  0  0  0
122189  1  0  0  0  0
123190  1  0  0  0  0
123191  1  0  0  0  0
M  END
