
  xtb     03042213143D
 energy: -393.111012947848 gnorm: 0.000469131573 xtb: 6.4.1 (unknown)
226247  0     0  0            999 V2000
    4.5951   -6.5726    7.6974 C   0  0  0  0  0  0  0  0  0  0  0  0
    3.9538   -5.4223    7.4098 C   0  0  0  0  0  0  0  0  0  0  0  0
    3.1752   -5.5010    6.2159 C   0  0  0  0  0  0  0  0  0  0  0  0
    2.3775   -4.5092    5.6274 C   0  0  0  0  0  0  0  0  0  0  0  0
    2.1919   -3.1864    6.2381 C   0  0  0  0  0  0  0  0  0  0  0  0
    2.3395   -2.0228    5.4841 C   0  0  0  0  0  0  0  0  0  0  0  0
    2.1631   -0.7828    6.0571 C   0  0  0  0  0  0  0  0  0  0  0  0
    1.8108   -0.6462    7.3992 C   0  0  0  0  0  0  0  0  0  0  0  0
    1.5545    1.0002    7.9919 S   0  0  0  0  0  0  0  0  0  0  0  0
    2.1368    0.9777    9.7266 C   0  0  0  0  0  0  0  0  0  0  0  0
    3.5903    0.5634    9.8349 C   0  0  0  0  0  0  0  0  0  0  0  0
    1.6325   -1.8159    8.1318 C   0  0  0  0  0  0  0  0  0  0  0  0
    1.2458   -1.7748    9.4276 F   0  0  0  0  0  0  0  0  0  0  0  0
    1.8345   -3.0640    7.5770 C   0  0  0  0  0  0  0  0  0  0  0  0
    1.7594   -4.8407    4.4300 C   0  0  0  0  0  0  0  0  0  0  0  0
    1.8824   -6.1083    3.8097 C   0  0  0  0  0  0  0  0  0  0  0  0
    2.6639   -7.1068    4.4107 C   0  0  0  0  0  0  0  0  0  0  0  0
    2.7877   -8.4453    3.8211 C   0  0  0  0  0  0  0  0  0  0  0  0
    1.6565   -9.1759    3.4689 C   0  0  0  0  0  0  0  0  0  0  0  0
    1.7609  -10.4432    2.9289 C   0  0  0  0  0  0  0  0  0  0  0  0
    3.0047  -11.0285    2.7216 C   0  0  0  0  0  0  0  0  0  0  0  0
    3.2899  -12.6206    2.0250 S   0  0  0  0  0  0  0  0  0  0  0  0
    1.6478  -13.4188    2.0336 C   0  0  0  0  0  0  0  0  0  0  0  0
    1.1983  -13.7966    3.4324 C   0  0  0  0  0  0  0  0  0  0  0  0
    4.1306  -10.2808    3.0719 C   0  0  0  0  0  0  0  0  0  0  0  0
    4.0403   -9.0190    3.6137 C   0  0  0  0  0  0  0  0  0  0  0  0
    5.3545  -10.8092    2.8718 F   0  0  0  0  0  0  0  0  0  0  0  0
    3.2987   -6.7692    5.5984 C   0  0  0  0  0  0  0  0  0  0  0  0
    4.3141   -7.8324    6.5448 S   0  0  0  0  0  0  0  0  0  0  0  0
    1.1541   -6.1749    2.5918 C   0  0  0  0  0  0  0  0  0  0  0  0
    0.4690   -5.0337    2.3084 C   0  0  0  0  0  0  0  0  0  0  0  0
    0.7114   -3.7917    3.5226 S   0  0  0  0  0  0  0  0  0  0  0  0
   -0.4066   -4.7352    1.2234 C   0  0  0  0  0  0  0  0  0  0  0  0
   -1.1168   -3.5814    1.0882 C   0  0  0  0  0  0  0  0  0  0  0  0
   -1.9488   -3.5488   -0.0554 C   0  0  0  0  0  0  0  0  0  0  0  0
   -2.8406   -2.5257   -0.4221 C   0  0  0  0  0  0  0  0  0  0  0  0
   -2.8737   -1.3225    0.4202 C   0  0  0  0  0  0  0  0  0  0  0  0
   -4.0246   -0.9177    1.0891 C   0  0  0  0  0  0  0  0  0  0  0  0
   -3.9666    0.0861    2.0330 C   0  0  0  0  0  0  0  0  0  0  0  0
   -2.7725    0.7426    2.3271 C   0  0  0  0  0  0  0  0  0  0  0  0
   -2.8189    2.0191    3.5392 S   0  0  0  0  0  0  0  0  0  0  0  0
   -1.1699    1.9154    4.3495 C   0  0  0  0  0  0  0  0  0  0  0  0
   -1.2792    2.4781    5.7523 C   0  0  0  0  0  0  0  0  0  0  0  0
   -1.6399    0.3570    1.6159 C   0  0  0  0  0  0  0  0  0  0  0  0
   -0.4422    0.9399    1.8421 F   0  0  0  0  0  0  0  0  0  0  0  0
   -1.6798   -0.6569    0.6844 C   0  0  0  0  0  0  0  0  0  0  0  0
   -3.6377   -2.7674   -1.5260 C   0  0  0  0  0  0  0  0  0  0  0  0
   -3.5497   -3.9635   -2.2850 C   0  0  0  0  0  0  0  0  0  0  0  0
   -2.6479   -4.9806   -1.9227 C   0  0  0  0  0  0  0  0  0  0  0  0
   -2.5664   -6.2407   -2.6700 C   0  0  0  0  0  0  0  0  0  0  0  0
   -3.7106   -6.9821   -2.9627 C   0  0  0  0  0  0  0  0  0  0  0  0
   -3.6195   -8.1662   -3.6612 C   0  0  0  0  0  0  0  0  0  0  0  0
   -2.3900   -8.6674   -4.0874 C   0  0  0  0  0  0  0  0  0  0  0  0
   -2.4111  -10.2207   -4.9317 S   0  0  0  0  0  0  0  0  0  0  0  0
   -1.0828  -10.0905   -6.1850 C   0  0  0  0  0  0  0  0  0  0  0  0
   -1.2970   -8.9211   -7.1245 C   0  0  0  0  0  0  0  0  0  0  0  0
   -1.2542   -7.9345   -3.7574 C   0  0  0  0  0  0  0  0  0  0  0  0
   -1.3322   -6.7377   -3.0745 C   0  0  0  0  0  0  0  0  0  0  0  0
   -0.0219   -8.3713   -4.0983 F   0  0  0  0  0  0  0  0  0  0  0  0
   -1.8605   -4.7449   -0.8057 C   0  0  0  0  0  0  0  0  0  0  0  0
   -0.7250   -5.8612   -0.0807 S   0  0  0  0  0  0  0  0  0  0  0  0
   -4.4361   -3.9468   -3.3883 C   0  0  0  0  0  0  0  0  0  0  0  0
   -5.1958   -2.8153   -3.4786 C   0  0  0  0  0  0  0  0  0  0  0  0
   -4.8322   -1.6801   -2.1918 S   0  0  0  0  0  0  0  0  0  0  0  0
   -6.2033   -2.5791   -4.4619 C   0  0  0  0  0  0  0  0  0  0  0  0
   -6.5941   -3.8771   -5.5671 S   0  0  0  0  0  0  0  0  0  0  0  0
   -7.8272   -2.9389   -6.3090 C   0  0  0  0  0  0  0  0  0  0  0  0
   -7.9431   -1.7104   -5.7535 C   0  0  0  0  0  0  0  0  0  0  0  0
   -7.0094   -1.4893   -4.7105 C   0  0  0  0  0  0  0  0  0  0  0  0
   -6.9857    0.0091   -3.7806 S   0  0  0  0  0  0  0  0  0  0  0  0
   -7.3211    1.2299   -4.9900 C   0  0  0  0  0  0  0  0  0  0  0  0
   -6.9793    1.1462   -6.2821 C   0  0  0  0  0  0  0  0  0  0  0  0
   -7.2893    2.0671   -7.3337 C   0  0  0  0  0  0  0  0  0  0  0  0
   -6.6980    1.6575   -8.9239 S   0  0  0  0  0  0  0  0  0  0  0  0
   -7.4380    3.0397   -9.6233 C   0  0  0  0  0  0  0  0  0  0  0  0
   -8.0959    3.7831   -8.6995 C   0  0  0  0  0  0  0  0  0  0  0  0
   -8.0075    3.2445   -7.3963 C   0  0  0  0  0  0  0  0  0  0  0  0
   -8.8065    4.0427   -6.0317 S   0  0  0  0  0  0  0  0  0  0  0  0
   -7.4242    4.4504   -5.0397 C   0  0  0  0  0  0  0  0  0  0  0  0
   -6.1799    4.6297   -5.4945 C   0  0  0  0  0  0  0  0  0  0  0  0
   -5.0481    4.7233   -4.6190 C   0  0  0  0  0  0  0  0  0  0  0  0
   -4.9347    4.1692   -3.3812 C   0  0  0  0  0  0  0  0  0  0  0  0
   -3.6420    4.2915   -2.8145 C   0  0  0  0  0  0  0  0  0  0  0  0
   -3.2070    3.7684   -1.5869 C   0  0  0  0  0  0  0  0  0  0  0  0
   -4.1603    3.0251   -0.7512 C   0  0  0  0  0  0  0  0  0  0  0  0
   -4.8155    1.9125   -1.2684 C   0  0  0  0  0  0  0  0  0  0  0  0
   -5.8206    1.2852   -0.5622 C   0  0  0  0  0  0  0  0  0  0  0  0
   -6.2149    1.7625    0.6803 C   0  0  0  0  0  0  0  0  0  0  0  0
   -7.5065    1.0675    1.6583 S   0  0  0  0  0  0  0  0  0  0  0  0
   -8.3816   -0.0473    0.5068 C   0  0  0  0  0  0  0  0  0  0  0  0
   -9.1596    0.7078   -0.5535 C   0  0  0  0  0  0  0  0  0  0  0  0
   -5.5152    2.8480    1.2102 C   0  0  0  0  0  0  0  0  0  0  0  0
   -5.8622    3.3170    2.4238 F   0  0  0  0  0  0  0  0  0  0  0  0
   -4.4976    3.4721    0.5227 C   0  0  0  0  0  0  0  0  0  0  0  0
   -1.8806    3.9812   -1.2585 C   0  0  0  0  0  0  0  0  0  0  0  0
   -1.0069    4.7312   -2.0834 C   0  0  0  0  0  0  0  0  0  0  0  0
   -1.4528    5.2985   -3.2907 C   0  0  0  0  0  0  0  0  0  0  0  0
   -0.5417    6.1294   -4.0860 C   0  0  0  0  0  0  0  0  0  0  0  0
    0.1984    7.1383   -3.4666 C   0  0  0  0  0  0  0  0  0  0  0  0
    1.0797    7.9122   -4.1885 C   0  0  0  0  0  0  0  0  0  0  0  0
    1.2703    7.7083   -5.5537 C   0  0  0  0  0  0  0  0  0  0  0  0
    2.4797    8.7156   -6.3603 S   0  0  0  0  0  0  0  0  0  0  0  0
    1.7148    9.1224   -7.9727 C   0  0  0  0  0  0  0  0  0  0  0  0
    0.3780    9.8163   -7.8060 C   0  0  0  0  0  0  0  0  0  0  0  0
    0.5323    6.6953   -6.1575 C   0  0  0  0  0  0  0  0  0  0  0  0
   -0.3719    5.9272   -5.4507 C   0  0  0  0  0  0  0  0  0  0  0  0
    0.6855    6.4167   -7.4717 F   0  0  0  0  0  0  0  0  0  0  0  0
   -2.7608    5.0184   -3.6530 C   0  0  0  0  0  0  0  0  0  0  0  0
   -3.5560    5.4833   -5.1373 S   0  0  0  0  0  0  0  0  0  0  0  0
    0.3191    4.7041   -1.5926 C   0  0  0  0  0  0  0  0  0  0  0  0
    0.4714    3.9678   -0.4538 C   0  0  0  0  0  0  0  0  0  0  0  0
   -1.0422    3.2995    0.1087 S   0  0  0  0  0  0  0  0  0  0  0  0
    1.7509    3.7225    0.1433 C   0  0  0  0  0  0  0  0  0  0  0  0
    2.8214    4.5518   -0.0066 C   0  0  0  0  0  0  0  0  0  0  0  0
    4.0399    4.0024    0.4589 C   0  0  0  0  0  0  0  0  0  0  0  0
    5.3169    4.5790    0.3743 C   0  0  0  0  0  0  0  0  0  0  0  0
    5.5007    5.8358   -0.3602 C   0  0  0  0  0  0  0  0  0  0  0  0
    6.2049    6.9198    0.1583 C   0  0  0  0  0  0  0  0  0  0  0  0
    6.3051    8.0944   -0.5567 C   0  0  0  0  0  0  0  0  0  0  0  0
    5.7043    8.2500   -1.8075 C   0  0  0  0  0  0  0  0  0  0  0  0
    5.8292    9.8486   -2.5461 S   0  0  0  0  0  0  0  0  0  0  0  0
    5.7461    9.5852   -4.3552 C   0  0  0  0  0  0  0  0  0  0  0  0
    6.8762    8.7118   -4.8599 C   0  0  0  0  0  0  0  0  0  0  0  0
    5.0123    7.1548   -2.3158 C   0  0  0  0  0  0  0  0  0  0  0  0
    4.3759    7.2098   -3.5086 F   0  0  0  0  0  0  0  0  0  0  0  0
    4.9273    5.9660   -1.6227 C   0  0  0  0  0  0  0  0  0  0  0  0
    6.3553    3.8580    0.9427 C   0  0  0  0  0  0  0  0  0  0  0  0
    6.1784    2.5721    1.5113 C   0  0  0  0  0  0  0  0  0  0  0  0
    4.9079    1.9733    1.5405 C   0  0  0  0  0  0  0  0  0  0  0  0
    4.7405    0.5922    2.0129 C   0  0  0  0  0  0  0  0  0  0  0  0
    5.2491    0.1722    3.2386 C   0  0  0  0  0  0  0  0  0  0  0  0
    5.2000   -1.1560    3.6170 C   0  0  0  0  0  0  0  0  0  0  0  0
    4.6474   -2.1141    2.7734 C   0  0  0  0  0  0  0  0  0  0  0  0
    4.6286   -3.8483    3.0911 S   0  0  0  0  0  0  0  0  0  0  0  0
    5.9235   -4.0412    4.3711 C   0  0  0  0  0  0  0  0  0  0  0  0
    6.4212   -5.4730    4.3473 C   0  0  0  0  0  0  0  0  0  0  0  0
    4.0670   -1.6672    1.5854 C   0  0  0  0  0  0  0  0  0  0  0  0
    4.1091   -0.3471    1.1990 C   0  0  0  0  0  0  0  0  0  0  0  0
    3.4696   -2.5626    0.7733 F   0  0  0  0  0  0  0  0  0  0  0  0
    3.8561    2.7169    1.0218 C   0  0  0  0  0  0  0  0  0  0  0  0
    2.1808    2.2279    0.9456 S   0  0  0  0  0  0  0  0  0  0  0  0
    7.4272    2.0112    1.9187 C   0  0  0  0  0  0  0  0  0  0  0  0
    8.4739    2.8290    1.6920 C   0  0  0  0  0  0  0  0  0  0  0  0
    8.0337    4.3337    0.9589 S   0  0  0  0  0  0  0  0  0  0  0  0
    5.2383   -6.7778    8.5308 H   0  0  0  0  0  0  0  0  0  0  0  0
    4.0297   -4.5333    8.0096 H   0  0  0  0  0  0  0  0  0  0  0  0
    2.6174   -2.0871    4.4449 H   0  0  0  0  0  0  0  0  0  0  0  0
    2.2935    0.1106    5.4660 H   0  0  0  0  0  0  0  0  0  0  0  0
    1.9982    2.0108   10.0459 H   0  0  0  0  0  0  0  0  0  0  0  0
    1.4834    0.3356   10.3127 H   0  0  0  0  0  0  0  0  0  0  0  0
    3.7248   -0.4683    9.5154 H   0  0  0  0  0  0  0  0  0  0  0  0
    3.9184    0.6471   10.8690 H   0  0  0  0  0  0  0  0  0  0  0  0
    4.2168    1.2021    9.2155 H   0  0  0  0  0  0  0  0  0  0  0  0
    1.6653   -3.9355    8.1907 H   0  0  0  0  0  0  0  0  0  0  0  0
    0.6770   -8.7551    3.6398 H   0  0  0  0  0  0  0  0  0  0  0  0
    0.8579  -10.9696    2.6657 H   0  0  0  0  0  0  0  0  0  0  0  0
    0.9386  -12.7655    1.5272 H   0  0  0  0  0  0  0  0  0  0  0  0
    1.7954  -14.3086    1.4214 H   0  0  0  0  0  0  0  0  0  0  0  0
    1.1040  -12.9167    4.0653 H   0  0  0  0  0  0  0  0  0  0  0  0
    0.2338  -14.2991    3.3885 H   0  0  0  0  0  0  0  0  0  0  0  0
    1.9208  -14.4693    3.8885 H   0  0  0  0  0  0  0  0  0  0  0  0
    4.9489   -8.4885    3.8504 H   0  0  0  0  0  0  0  0  0  0  0  0
    1.1470   -7.0343    1.9455 H   0  0  0  0  0  0  0  0  0  0  0  0
   -1.0645   -2.7876    1.8110 H   0  0  0  0  0  0  0  0  0  0  0  0
   -4.9562   -1.4315    0.9080 H   0  0  0  0  0  0  0  0  0  0  0  0
   -4.8469    0.3614    2.5917 H   0  0  0  0  0  0  0  0  0  0  0  0
   -0.8858    0.8645    4.3715 H   0  0  0  0  0  0  0  0  0  0  0  0
   -0.4558    2.4786    3.7509 H   0  0  0  0  0  0  0  0  0  0  0  0
   -0.3167    2.4023    6.2539 H   0  0  0  0  0  0  0  0  0  0  0  0
   -2.0160    1.9234    6.3283 H   0  0  0  0  0  0  0  0  0  0  0  0
   -1.5805    3.5225    5.7228 H   0  0  0  0  0  0  0  0  0  0  0  0
   -0.7692   -0.9244    0.1704 H   0  0  0  0  0  0  0  0  0  0  0  0
   -4.6745   -6.6339   -2.6242 H   0  0  0  0  0  0  0  0  0  0  0  0
   -4.5074   -8.7352   -3.8894 H   0  0  0  0  0  0  0  0  0  0  0  0
   -0.1212  -10.0381   -5.6797 H   0  0  0  0  0  0  0  0  0  0  0  0
   -1.1532  -11.0396   -6.7168 H   0  0  0  0  0  0  0  0  0  0  0  0
   -1.2254   -7.9754   -6.5909 H   0  0  0  0  0  0  0  0  0  0  0  0
   -2.2774   -8.9810   -7.5926 H   0  0  0  0  0  0  0  0  0  0  0  0
   -0.5359   -8.9337   -7.9020 H   0  0  0  0  0  0  0  0  0  0  0  0
   -0.4193   -6.2019   -2.8666 H   0  0  0  0  0  0  0  0  0  0  0  0
   -4.5046   -4.7457   -4.1051 H   0  0  0  0  0  0  0  0  0  0  0  0
   -8.4003   -3.3604   -7.1100 H   0  0  0  0  0  0  0  0  0  0  0  0
   -8.6673   -0.9775   -6.0596 H   0  0  0  0  0  0  0  0  0  0  0  0
   -7.8230    2.0777   -4.5588 H   0  0  0  0  0  0  0  0  0  0  0  0
   -6.4355    0.2716   -6.6185 H   0  0  0  0  0  0  0  0  0  0  0  0
   -7.3339    3.2203  -10.6742 H   0  0  0  0  0  0  0  0  0  0  0  0
   -8.6285    4.6913   -8.9162 H   0  0  0  0  0  0  0  0  0  0  0  0
   -7.6735    4.5343   -3.9935 H   0  0  0  0  0  0  0  0  0  0  0  0
   -5.9797    4.6464   -6.5572 H   0  0  0  0  0  0  0  0  0  0  0  0
   -5.7371    3.6440   -2.8973 H   0  0  0  0  0  0  0  0  0  0  0  0
   -4.5360    1.5267   -2.2370 H   0  0  0  0  0  0  0  0  0  0  0  0
   -6.2964    0.4258   -1.0016 H   0  0  0  0  0  0  0  0  0  0  0  0
   -7.6613   -0.7406    0.0745 H   0  0  0  0  0  0  0  0  0  0  0  0
   -9.0550   -0.6047    1.1581 H   0  0  0  0  0  0  0  0  0  0  0  0
   -9.6992    0.0049   -1.1852 H   0  0  0  0  0  0  0  0  0  0  0  0
   -8.4925    1.2933   -1.1820 H   0  0  0  0  0  0  0  0  0  0  0  0
   -9.8757    1.3803   -0.0871 H   0  0  0  0  0  0  0  0  0  0  0  0
   -4.0004    4.3187    0.9690 H   0  0  0  0  0  0  0  0  0  0  0  0
    0.0575    7.3299   -2.4136 H   0  0  0  0  0  0  0  0  0  0  0  0
    1.6452    8.6930   -3.7044 H   0  0  0  0  0  0  0  0  0  0  0  0
    1.6321    8.2139   -8.5650 H   0  0  0  0  0  0  0  0  0  0  0  0
    2.4466    9.7837   -8.4368 H   0  0  0  0  0  0  0  0  0  0  0  0
   -0.3488    9.1526   -7.3410 H   0  0  0  0  0  0  0  0  0  0  0  0
   -0.0039   10.1145   -8.7803 H   0  0  0  0  0  0  0  0  0  0  0  0
    0.4831   10.7032   -7.1845 H   0  0  0  0  0  0  0  0  0  0  0  0
   -0.9071    5.1486   -5.9714 H   0  0  0  0  0  0  0  0  0  0  0  0
    1.1457    5.1517   -2.1128 H   0  0  0  0  0  0  0  0  0  0  0  0
    2.7384    5.5397   -0.4194 H   0  0  0  0  0  0  0  0  0  0  0  0
    6.6603    6.8467    1.1336 H   0  0  0  0  0  0  0  0  0  0  0  0
    6.8456    8.9341   -0.1482 H   0  0  0  0  0  0  0  0  0  0  0  0
    4.7700    9.1844   -4.6195 H   0  0  0  0  0  0  0  0  0  0  0  0
    5.8289   10.5984   -4.7495 H   0  0  0  0  0  0  0  0  0  0  0  0
    6.8275    8.6501   -5.9449 H   0  0  0  0  0  0  0  0  0  0  0  0
    6.7993    7.7041   -4.4577 H   0  0  0  0  0  0  0  0  0  0  0  0
    7.8404    9.1269   -4.5732 H   0  0  0  0  0  0  0  0  0  0  0  0
    4.4059    5.1404   -2.0825 H   0  0  0  0  0  0  0  0  0  0  0  0
    5.6821    0.8969    3.9116 H   0  0  0  0  0  0  0  0  0  0  0  0
    5.5967   -1.4447    4.5772 H   0  0  0  0  0  0  0  0  0  0  0  0
    5.4852   -3.7934    5.3390 H   0  0  0  0  0  0  0  0  0  0  0  0
    6.7285   -3.3475    4.1320 H   0  0  0  0  0  0  0  0  0  0  0  0
    7.1642   -5.6219    5.1279 H   0  0  0  0  0  0  0  0  0  0  0  0
    6.8707   -5.7036    3.3842 H   0  0  0  0  0  0  0  0  0  0  0  0
    5.5963   -6.1601    4.5149 H   0  0  0  0  0  0  0  0  0  0  0  0
    3.6834   -0.0659    0.2492 H   0  0  0  0  0  0  0  0  0  0  0  0
    7.5229    1.0293    2.3449 H   0  0  0  0  0  0  0  0  0  0  0  0
    9.5092    2.6499    1.9075 H   0  0  0  0  0  0  0  0  0  0  0  0
  1  2  2  0  0  0  0
  2  3  1  0  0  0  0
  3  4  2  0  0  0  0
  4  5  1  0  0  0  0
  5  6  2  0  0  0  0
  6  7  1  0  0  0  0
  7  8  2  0  0  0  0
  8  9  1  0  0  0  0
  9 10  1  0  0  0  0
 10 11  1  0  0  0  0
  8 12  1  0  0  0  0
 12 13  1  0  0  0  0
 12 14  2  0  0  0  0
  4 15  1  0  0  0  0
 15 16  2  0  0  0  0
 16 17  1  0  0  0  0
 17 18  1  0  0  0  0
 18 19  2  0  0  0  0
 19 20  1  0  0  0  0
 20 21  2  0  0  0  0
 21 22  1  0  0  0  0
 22 23  1  0  0  0  0
 23 24  1  0  0  0  0
 21 25  1  0  0  0  0
 25 26  2  0  0  0  0
 25 27  1  0  0  0  0
 17 28  2  0  0  0  0
 28 29  1  0  0  0  0
 16 30  1  0  0  0  0
 30 31  2  0  0  0  0
 31 32  1  0  0  0  0
 31 33  1  0  0  0  0
 33 34  2  0  0  0  0
 34 35  1  0  0  0  0
 35 36  2  0  0  0  0
 36 37  1  0  0  0  0
 37 38  2  0  0  0  0
 38 39  1  0  0  0  0
 39 40  2  0  0  0  0
 40 41  1  0  0  0  0
 41 42  1  0  0  0  0
 42 43  1  0  0  0  0
 40 44  1  0  0  0  0
 44 45  1  0  0  0  0
 44 46  2  0  0  0  0
 36 47  1  0  0  0  0
 47 48  2  0  0  0  0
 48 49  1  0  0  0  0
 49 50  1  0  0  0  0
 50 51  2  0  0  0  0
 51 52  1  0  0  0  0
 52 53  2  0  0  0  0
 53 54  1  0  0  0  0
 54 55  1  0  0  0  0
 55 56  1  0  0  0  0
 53 57  1  0  0  0  0
 57 58  2  0  0  0  0
 57 59  1  0  0  0  0
 49 60  2  0  0  0  0
 60 61  1  0  0  0  0
 48 62  1  0  0  0  0
 62 63  2  0  0  0  0
 63 64  1  0  0  0  0
 63 65  1  0  0  0  0
 65 66  1  0  0  0  0
 66 67  1  0  0  0  0
 67 68  2  0  0  0  0
 68 69  1  0  0  0  0
 69 70  1  0  0  0  0
 70 71  1  0  0  0  0
 71 72  2  0  0  0  0
 72 73  1  0  0  0  0
 73 74  1  0  0  0  0
 74 75  1  0  0  0  0
 75 76  2  0  0  0  0
 76 77  1  0  0  0  0
 77 78  1  0  0  0  0
 78 79  1  0  0  0  0
 79 80  2  0  0  0  0
 80 81  1  0  0  0  0
 81 82  2  0  0  0  0
 82 83  1  0  0  0  0
 83 84  2  0  0  0  0
 84 85  1  0  0  0  0
 85 86  2  0  0  0  0
 86 87  1  0  0  0  0
 87 88  2  0  0  0  0
 88 89  1  0  0  0  0
 89 90  1  0  0  0  0
 90 91  1  0  0  0  0
 88 92  1  0  0  0  0
 92 93  1  0  0  0  0
 92 94  2  0  0  0  0
 84 95  1  0  0  0  0
 95 96  2  0  0  0  0
 96 97  1  0  0  0  0
 97 98  1  0  0  0  0
 98 99  2  0  0  0  0
 99100  1  0  0  0  0
100101  2  0  0  0  0
101102  1  0  0  0  0
102103  1  0  0  0  0
103104  1  0  0  0  0
101105  1  0  0  0  0
105106  2  0  0  0  0
105107  1  0  0  0  0
 97108  2  0  0  0  0
108109  1  0  0  0  0
 96110  1  0  0  0  0
110111  2  0  0  0  0
111112  1  0  0  0  0
111113  1  0  0  0  0
113114  2  0  0  0  0
114115  1  0  0  0  0
115116  2  0  0  0  0
116117  1  0  0  0  0
117118  2  0  0  0  0
118119  1  0  0  0  0
119120  2  0  0  0  0
120121  1  0  0  0  0
121122  1  0  0  0  0
122123  1  0  0  0  0
120124  1  0  0  0  0
124125  1  0  0  0  0
124126  2  0  0  0  0
116127  1  0  0  0  0
127128  2  0  0  0  0
128129  1  0  0  0  0
129130  1  0  0  0  0
130131  2  0  0  0  0
131132  1  0  0  0  0
132133  2  0  0  0  0
133134  1  0  0  0  0
134135  1  0  0  0  0
135136  1  0  0  0  0
133137  1  0  0  0  0
137138  2  0  0  0  0
137139  1  0  0  0  0
129140  2  0  0  0  0
140141  1  0  0  0  0
128142  1  0  0  0  0
142143  2  0  0  0  0
143144  1  0  0  0  0
 29  1  1  0  0  0  0
 61 33  1  0  0  0  0
 69 65  2  0  0  0  0
 77 73  2  0  0  0  0
109 81  1  0  0  0  0
141113  1  0  0  0  0
 28  3  1  0  0  0  0
 60 35  1  0  0  0  0
108 83  1  0  0  0  0
140115  1  0  0  0  0
 14  5  1  0  0  0  0
 32 15  1  0  0  0  0
 46 37  1  0  0  0  0
 64 47  1  0  0  0  0
 94 85  1  0  0  0  0
112 95  1  0  0  0  0
126117  1  0  0  0  0
144127  1  0  0  0  0
 26 18  1  0  0  0  0
 58 50  1  0  0  0  0
106 98  1  0  0  0  0
138130  1  0  0  0  0
  1145  1  0  0  0  0
  2146  1  0  0  0  0
  6147  1  0  0  0  0
  7148  1  0  0  0  0
 10149  1  0  0  0  0
 10150  1  0  0  0  0
 11151  1  0  0  0  0
 11152  1  0  0  0  0
 11153  1  0  0  0  0
 14154  1  0  0  0  0
 19155  1  0  0  0  0
 20156  1  0  0  0  0
 23157  1  0  0  0  0
 23158  1  0  0  0  0
 24159  1  0  0  0  0
 24160  1  0  0  0  0
 24161  1  0  0  0  0
 26162  1  0  0  0  0
 30163  1  0  0  0  0
 34164  1  0  0  0  0
 38165  1  0  0  0  0
 39166  1  0  0  0  0
 42167  1  0  0  0  0
 42168  1  0  0  0  0
 43169  1  0  0  0  0
 43170  1  0  0  0  0
 43171  1  0  0  0  0
 46172  1  0  0  0  0
 51173  1  0  0  0  0
 52174  1  0  0  0  0
 55175  1  0  0  0  0
 55176  1  0  0  0  0
 56177  1  0  0  0  0
 56178  1  0  0  0  0
 56179  1  0  0  0  0
 58180  1  0  0  0  0
 62181  1  0  0  0  0
 67182  1  0  0  0  0
 68183  1  0  0  0  0
 71184  1  0  0  0  0
 72185  1  0  0  0  0
 75186  1  0  0  0  0
 76187  1  0  0  0  0
 79188  1  0  0  0  0
 80189  1  0  0  0  0
 82190  1  0  0  0  0
 86191  1  0  0  0  0
 87192  1  0  0  0  0
 90193  1  0  0  0  0
 90194  1  0  0  0  0
 91195  1  0  0  0  0
 91196  1  0  0  0  0
 91197  1  0  0  0  0
 94198  1  0  0  0  0
 99199  1  0  0  0  0
100200  1  0  0  0  0
103201  1  0  0  0  0
103202  1  0  0  0  0
104203  1  0  0  0  0
104204  1  0  0  0  0
104205  1  0  0  0  0
106206  1  0  0  0  0
110207  1  0  0  0  0
114208  1  0  0  0  0
118209  1  0  0  0  0
119210  1  0  0  0  0
122211  1  0  0  0  0
122212  1  0  0  0  0
123213  1  0  0  0  0
123214  1  0  0  0  0
123215  1  0  0  0  0
126216  1  0  0  0  0
131217  1  0  0  0  0
132218  1  0  0  0  0
135219  1  0  0  0  0
135220  1  0  0  0  0
136221  1  0  0  0  0
136222  1  0  0  0  0
136223  1  0  0  0  0
138224  1  0  0  0  0
142225  1  0  0  0  0
143226  1  0  0  0  0
M  END
