
  xtb     03012204283D
 energy: -409.871458402640 gnorm: 0.000632243807 xtb: 6.4.1 (unknown)
206231  0     0  0            999 V2000
    0.7352    1.4069   13.5001 C   0  0  0  0  0  0  0  0  0  0  0  0
    1.6273    1.4545   12.4893 C   0  0  0  0  0  0  0  0  0  0  0  0
    1.0668    1.0591   11.2408 C   0  0  0  0  0  0  0  0  0  0  0  0
    1.6832    1.0227    9.9811 C   0  0  0  0  0  0  0  0  0  0  0  0
    3.0544    1.4669    9.7856 C   0  0  0  0  0  0  0  0  0  0  0  0
    4.2313    0.4492    9.0123 S   0  0  0  0  0  0  0  0  0  0  0  0
    5.4688    1.6548    9.1357 C   0  0  0  0  0  0  0  0  0  0  0  0
    6.8310    1.4078    8.5878 C   0  0  0  0  0  0  0  0  0  0  0  0
    6.7939    1.2441    7.0677 C   0  0  0  0  0  0  0  0  0  0  0  0
    4.9799    2.7749    9.7383 C   0  0  0  0  0  0  0  0  0  0  0  0
    5.9025    4.1924   10.0321 Cl  0  0  0  0  0  0  0  0  0  0  0  0
    3.6119    2.6709   10.1119 C   0  0  0  0  0  0  0  0  0  0  0  0
    2.7464    3.9716   10.8228 Cl  0  0  0  0  0  0  0  0  0  0  0  0
    0.9176    0.5658    8.9172 C   0  0  0  0  0  0  0  0  0  0  0  0
   -0.4365    0.1736    9.0506 C   0  0  0  0  0  0  0  0  0  0  0  0
   -1.0574    0.2171   10.3107 C   0  0  0  0  0  0  0  0  0  0  0  0
   -2.4436   -0.1850   10.4854 C   0  0  0  0  0  0  0  0  0  0  0  0
   -3.7192    0.5268    9.5408 S   0  0  0  0  0  0  0  0  0  0  0  0
   -4.9371   -0.4152   10.3289 C   0  0  0  0  0  0  0  0  0  0  0  0
   -6.3796   -0.2443   10.0032 C   0  0  0  0  0  0  0  0  0  0  0  0
   -7.0070    0.8536   10.8657 C   0  0  0  0  0  0  0  0  0  0  0  0
   -4.3738   -1.2257   11.2689 C   0  0  0  0  0  0  0  0  0  0  0  0
   -2.9613   -1.1015   11.3585 C   0  0  0  0  0  0  0  0  0  0  0  0
   -2.0194   -2.0826   12.4001 Cl  0  0  0  0  0  0  0  0  0  0  0  0
   -5.2662   -2.3101   12.2543 Cl  0  0  0  0  0  0  0  0  0  0  0  0
   -0.2875    0.6660   11.3776 C   0  0  0  0  0  0  0  0  0  0  0  0
   -0.8323    0.8632   13.0184 S   0  0  0  0  0  0  0  0  0  0  0  0
   -0.9876   -0.2439    7.8140 C   0  0  0  0  0  0  0  0  0  0  0  0
   -0.1101   -0.1625    6.7731 C   0  0  0  0  0  0  0  0  0  0  0  0
    1.4607    0.4353    7.2695 S   0  0  0  0  0  0  0  0  0  0  0  0
   -0.3350   -0.5111    5.4107 C   0  0  0  0  0  0  0  0  0  0  0  0
    0.5773   -0.4861    4.3938 C   0  0  0  0  0  0  0  0  0  0  0  0
    0.0550   -0.9136    3.1534 C   0  0  0  0  0  0  0  0  0  0  0  0
    0.7058   -0.9533    1.9056 C   0  0  0  0  0  0  0  0  0  0  0  0
    2.0985   -0.5811    1.7428 C   0  0  0  0  0  0  0  0  0  0  0  0
    3.3268   -1.1870    2.8155 S   0  0  0  0  0  0  0  0  0  0  0  0
    4.6051   -0.4338    1.9265 C   0  0  0  0  0  0  0  0  0  0  0  0
    6.0220   -0.4823    2.3810 C   0  0  0  0  0  0  0  0  0  0  0  0
    6.3829    0.7875    3.1566 C   0  0  0  0  0  0  0  0  0  0  0  0
    4.0940    0.2544    0.8672 C   0  0  0  0  0  0  0  0  0  0  0  0
    5.0540    1.1078   -0.2692 Cl  0  0  0  0  0  0  0  0  0  0  0  0
    2.6796    0.1886    0.7686 C   0  0  0  0  0  0  0  0  0  0  0  0
    1.8320    1.1382   -0.3741 Cl  0  0  0  0  0  0  0  0  0  0  0  0
   -0.0544   -1.3707    0.8177 C   0  0  0  0  0  0  0  0  0  0  0  0
   -1.4332   -1.6979    0.9183 C   0  0  0  0  0  0  0  0  0  0  0  0
   -2.0903   -1.6425    2.1675 C   0  0  0  0  0  0  0  0  0  0  0  0
   -3.5153   -1.9025    2.2657 C   0  0  0  0  0  0  0  0  0  0  0  0
   -4.6378   -1.0786    1.2126 S   0  0  0  0  0  0  0  0  0  0  0  0
   -5.9931   -1.8668    1.9251 C   0  0  0  0  0  0  0  0  0  0  0  0
   -7.3832   -1.5648    1.4879 C   0  0  0  0  0  0  0  0  0  0  0  0
   -8.0374   -0.5522    2.4306 C   0  0  0  0  0  0  0  0  0  0  0  0
   -5.5931   -2.7086    2.9233 C   0  0  0  0  0  0  0  0  0  0  0  0
   -4.1894   -2.7316    3.1225 C   0  0  0  0  0  0  0  0  0  0  0  0
   -3.4400   -3.7779    4.2532 Cl  0  0  0  0  0  0  0  0  0  0  0  0
   -6.6726   -3.6686    3.8493 Cl  0  0  0  0  0  0  0  0  0  0  0  0
   -1.3193   -1.2659    3.2568 C   0  0  0  0  0  0  0  0  0  0  0  0
   -1.9080   -1.0557    4.8812 S   0  0  0  0  0  0  0  0  0  0  0  0
   -1.9838   -2.0427   -0.3294 C   0  0  0  0  0  0  0  0  0  0  0  0
   -1.0739   -1.9785   -1.3584 C   0  0  0  0  0  0  0  0  0  0  0  0
    0.5269   -1.5837   -0.7961 S   0  0  0  0  0  0  0  0  0  0  0  0
   -1.2704   -2.0761   -2.7574 C   0  0  0  0  0  0  0  0  0  0  0  0
   -0.2667   -2.3878   -3.5654 N   0  0  0  0  0  0  0  0  0  0  0  0
   -0.7631   -2.3411   -4.8132 C   0  0  0  0  0  0  0  0  0  0  0  0
   -2.1761   -1.9382   -4.8124 C   0  0  0  0  0  0  0  0  0  0  0  0
   -2.6982   -1.8934   -6.1873 C   0  0  0  0  0  0  0  0  0  0  0  0
   -3.8023   -1.5526   -6.5616 O   0  0  0  0  0  0  0  0  0  0  0  0
   -1.5482   -2.3547   -6.9827 C   0  0  0  0  0  0  0  0  0  0  0  0
   -0.3722   -2.5641   -6.1145 C   0  0  0  0  0  0  0  0  0  0  0  0
    0.6927   -2.9790   -6.8398 N   0  0  0  0  0  0  0  0  0  0  0  0
    0.2528   -3.0681   -8.0740 C   0  0  0  0  0  0  0  0  0  0  0  0
   -1.1373   -2.7043   -8.2316 C   0  0  0  0  0  0  0  0  0  0  0  0
   -2.5190   -1.7492   -3.4928 C   0  0  0  0  0  0  0  0  0  0  0  0
   -3.6647   -1.1704   -2.8941 C   0  0  0  0  0  0  0  0  0  0  0  0
   -4.8180   -0.8046   -3.5136 C   0  0  0  0  0  0  0  0  0  0  0  0
   -5.7502   -0.0179   -2.7774 C   0  0  0  0  0  0  0  0  0  0  0  0
   -5.5536    0.2237   -1.4825 N   0  0  0  0  0  0  0  0  0  0  0  0
   -6.5398    1.0439   -1.0959 C   0  0  0  0  0  0  0  0  0  0  0  0
   -7.4903    1.2897   -2.1979 C   0  0  0  0  0  0  0  0  0  0  0  0
   -8.5285    2.2524   -1.7768 C   0  0  0  0  0  0  0  0  0  0  0  0
   -9.4888    2.6448   -2.3985 O   0  0  0  0  0  0  0  0  0  0  0  0
   -8.0868    2.6144   -0.4160 C   0  0  0  0  0  0  0  0  0  0  0  0
   -6.8924    1.8405   -0.0346 C   0  0  0  0  0  0  0  0  0  0  0  0
   -6.4515    2.2106    1.1943 N   0  0  0  0  0  0  0  0  0  0  0  0
   -7.2714    3.1645    1.5760 C   0  0  0  0  0  0  0  0  0  0  0  0
   -8.3043    3.4737    0.6168 C   0  0  0  0  0  0  0  0  0  0  0  0
   -6.9776    0.6629   -3.2924 C   0  0  0  0  0  0  0  0  0  0  0  0
   -7.4808    0.6831   -4.6493 C   0  0  0  0  0  0  0  0  0  0  0  0
   -6.7696    1.0186   -5.7395 C   0  0  0  0  0  0  0  0  0  0  0  0
   -5.3955    1.4285   -5.7010 C   0  0  0  0  0  0  0  0  0  0  0  0
   -4.4350    1.2762   -6.6550 C   0  0  0  0  0  0  0  0  0  0  0  0
   -3.1218    1.5110   -6.1683 C   0  0  0  0  0  0  0  0  0  0  0  0
   -1.8931    1.2638   -6.8128 C   0  0  0  0  0  0  0  0  0  0  0  0
   -1.7982    1.2305   -8.2519 C   0  0  0  0  0  0  0  0  0  0  0  0
   -0.6619    0.2203   -9.0953 S   0  0  0  0  0  0  0  0  0  0  0  0
   -1.1398    0.8229  -10.6454 C   0  0  0  0  0  0  0  0  0  0  0  0
   -0.4939    0.3398  -11.8980 C   0  0  0  0  0  0  0  0  0  0  0  0
   -0.1919   -1.1548  -11.8530 C   0  0  0  0  0  0  0  0  0  0  0  0
   -2.1126    1.7685  -10.5024 C   0  0  0  0  0  0  0  0  0  0  0  0
   -2.8267    2.6112  -11.8156 Cl  0  0  0  0  0  0  0  0  0  0  0  0
   -2.4841    2.0094   -9.1548 C   0  0  0  0  0  0  0  0  0  0  0  0
   -3.5904    3.2535   -8.7454 Cl  0  0  0  0  0  0  0  0  0  0  0  0
   -0.8053    1.0518   -5.9654 C   0  0  0  0  0  0  0  0  0  0  0  0
   -0.8419    1.2508   -4.5596 C   0  0  0  0  0  0  0  0  0  0  0  0
   -1.9995    1.7973   -3.9745 C   0  0  0  0  0  0  0  0  0  0  0  0
   -2.1477    2.1868   -2.5854 C   0  0  0  0  0  0  0  0  0  0  0  0
   -1.6788    1.1749   -1.2522 S   0  0  0  0  0  0  0  0  0  0  0  0
   -2.4366    2.1986   -0.0847 C   0  0  0  0  0  0  0  0  0  0  0  0
   -2.4156    1.8774    1.3662 C   0  0  0  0  0  0  0  0  0  0  0  0
   -1.1111    2.3346    2.0222 C   0  0  0  0  0  0  0  0  0  0  0  0
   -2.9804    3.2855   -0.7002 C   0  0  0  0  0  0  0  0  0  0  0  0
   -2.8199    3.2848   -2.1099 C   0  0  0  0  0  0  0  0  0  0  0  0
   -3.3457    4.5985   -3.0760 Cl  0  0  0  0  0  0  0  0  0  0  0  0
   -3.8297    4.5233    0.1245 Cl  0  0  0  0  0  0  0  0  0  0  0  0
   -3.1202    1.8597   -4.8000 C   0  0  0  0  0  0  0  0  0  0  0  0
   -4.7357    2.1062   -4.2211 S   0  0  0  0  0  0  0  0  0  0  0  0
    0.3482    0.8030   -3.9304 C   0  0  0  0  0  0  0  0  0  0  0  0
    1.2589    0.2811   -4.7998 C   0  0  0  0  0  0  0  0  0  0  0  0
    0.7260    0.4085   -6.4663 S   0  0  0  0  0  0  0  0  0  0  0  0
    2.4553   -0.4547   -4.5592 C   0  0  0  0  0  0  0  0  0  0  0  0
    3.2906   -0.9395   -5.5233 C   0  0  0  0  0  0  0  0  0  0  0  0
    4.2936   -1.8000   -5.0228 C   0  0  0  0  0  0  0  0  0  0  0  0
    5.2972   -2.4696   -5.7429 C   0  0  0  0  0  0  0  0  0  0  0  0
    5.3658   -2.3690   -7.1908 C   0  0  0  0  0  0  0  0  0  0  0  0
    3.9585   -2.6916   -8.1616 S   0  0  0  0  0  0  0  0  0  0  0  0
    4.8163   -2.4010   -9.6372 C   0  0  0  0  0  0  0  0  0  0  0  0
    4.1404   -2.5456  -10.9566 C   0  0  0  0  0  0  0  0  0  0  0  0
    3.9144   -4.0184  -11.3038 C   0  0  0  0  0  0  0  0  0  0  0  0
    6.1161   -2.0836   -9.3768 C   0  0  0  0  0  0  0  0  0  0  0  0
    7.2791   -1.7252  -10.5867 Cl  0  0  0  0  0  0  0  0  0  0  0  0
    6.4312   -2.0622   -7.9915 C   0  0  0  0  0  0  0  0  0  0  0  0
    7.9759   -1.5992   -7.4119 Cl  0  0  0  0  0  0  0  0  0  0  0  0
    6.1703   -3.2644   -5.0088 C   0  0  0  0  0  0  0  0  0  0  0  0
    6.0415   -3.4633   -3.6117 C   0  0  0  0  0  0  0  0  0  0  0  0
    5.0083   -2.8289   -2.9022 C   0  0  0  0  0  0  0  0  0  0  0  0
    4.7084   -3.1669   -1.5192 C   0  0  0  0  0  0  0  0  0  0  0  0
    5.8804   -3.1189   -0.2386 S   0  0  0  0  0  0  0  0  0  0  0  0
    4.7685   -3.7731    0.9179 C   0  0  0  0  0  0  0  0  0  0  0  0
    5.1726   -4.1198    2.3105 C   0  0  0  0  0  0  0  0  0  0  0  0
    6.6652   -4.4021    2.4301 C   0  0  0  0  0  0  0  0  0  0  0  0
    3.5508   -3.9623    0.3353 C   0  0  0  0  0  0  0  0  0  0  0  0
    3.5157   -3.6471   -1.0492 C   0  0  0  0  0  0  0  0  0  0  0  0
    2.1621   -4.0047   -2.0442 Cl  0  0  0  0  0  0  0  0  0  0  0  0
    2.1742   -4.5422    1.1806 Cl  0  0  0  0  0  0  0  0  0  0  0  0
    4.1861   -1.9685   -3.6209 C   0  0  0  0  0  0  0  0  0  0  0  0
    2.8996   -1.0006   -2.9637 S   0  0  0  0  0  0  0  0  0  0  0  0
    6.9976   -4.4035   -3.1282 C   0  0  0  0  0  0  0  0  0  0  0  0
    7.7999   -4.8837   -4.1004 C   0  0  0  0  0  0  0  0  0  0  0  0
    7.4544   -4.2390   -5.6652 S   0  0  0  0  0  0  0  0  0  0  0  0
    0.8961    1.6552   14.5311 H   0  0  0  0  0  0  0  0  0  0  0  0
    2.6524    1.7509   12.6114 H   0  0  0  0  0  0  0  0  0  0  0  0
    7.2444    0.5014    9.0365 H   0  0  0  0  0  0  0  0  0  0  0  0
    7.4704    2.2494    8.8582 H   0  0  0  0  0  0  0  0  0  0  0  0
    7.7956    1.0656    6.6867 H   0  0  0  0  0  0  0  0  0  0  0  0
    6.3987    2.1425    6.6004 H   0  0  0  0  0  0  0  0  0  0  0  0
    6.1601    0.4026    6.7974 H   0  0  0  0  0  0  0  0  0  0  0  0
   -6.4848    0.0151    8.9486 H   0  0  0  0  0  0  0  0  0  0  0  0
   -6.8943   -1.1895   10.1856 H   0  0  0  0  0  0  0  0  0  0  0  0
   -6.9177    0.6018   11.9193 H   0  0  0  0  0  0  0  0  0  0  0  0
   -8.0601    0.9633   10.6215 H   0  0  0  0  0  0  0  0  0  0  0  0
   -6.5068    1.8033   10.6912 H   0  0  0  0  0  0  0  0  0  0  0  0
   -1.9951   -0.5990    7.6941 H   0  0  0  0  0  0  0  0  0  0  0  0
    1.5920   -0.1657    4.5432 H   0  0  0  0  0  0  0  0  0  0  0  0
    6.6686   -0.5721    1.5057 H   0  0  0  0  0  0  0  0  0  0  0  0
    6.1746   -1.3506    3.0213 H   0  0  0  0  0  0  0  0  0  0  0  0
    6.2562    1.6631    2.5260 H   0  0  0  0  0  0  0  0  0  0  0  0
    5.7439    0.8916    4.0300 H   0  0  0  0  0  0  0  0  0  0  0  0
    7.4174    0.7415    3.4852 H   0  0  0  0  0  0  0  0  0  0  0  0
   -7.9656   -2.4894    1.4842 H   0  0  0  0  0  0  0  0  0  0  0  0
   -7.3581   -1.1600    0.4750 H   0  0  0  0  0  0  0  0  0  0  0  0
   -7.4509    0.3631    2.4557 H   0  0  0  0  0  0  0  0  0  0  0  0
   -9.0417   -0.3175    2.0873 H   0  0  0  0  0  0  0  0  0  0  0  0
   -8.0976   -0.9582    3.4370 H   0  0  0  0  0  0  0  0  0  0  0  0
   -2.9978   -2.3716   -0.4562 H   0  0  0  0  0  0  0  0  0  0  0  0
    0.9149   -3.3879   -8.8591 H   0  0  0  0  0  0  0  0  0  0  0  0
   -1.6884   -2.7251   -9.1505 H   0  0  0  0  0  0  0  0  0  0  0  0
   -3.5843   -0.8991   -1.8508 H   0  0  0  0  0  0  0  0  0  0  0  0
   -5.0079   -1.0229   -4.5549 H   0  0  0  0  0  0  0  0  0  0  0  0
   -7.1418    3.6379    2.5341 H   0  0  0  0  0  0  0  0  0  0  0  0
   -9.0597    4.2256    0.7323 H   0  0  0  0  0  0  0  0  0  0  0  0
   -8.5324    0.4516   -4.7537 H   0  0  0  0  0  0  0  0  0  0  0  0
   -7.2249    0.9575   -6.7180 H   0  0  0  0  0  0  0  0  0  0  0  0
   -4.6368    0.8719   -7.6295 H   0  0  0  0  0  0  0  0  0  0  0  0
   -1.1537    0.5701  -12.7369 H   0  0  0  0  0  0  0  0  0  0  0  0
    0.4398    0.8909  -12.0494 H   0  0  0  0  0  0  0  0  0  0  0  0
    0.3028   -1.4652  -12.7696 H   0  0  0  0  0  0  0  0  0  0  0  0
    0.4557   -1.3818  -11.0089 H   0  0  0  0  0  0  0  0  0  0  0  0
   -1.1120   -1.7236  -11.7464 H   0  0  0  0  0  0  0  0  0  0  0  0
   -2.5289    0.8009    1.4940 H   0  0  0  0  0  0  0  0  0  0  0  0
   -3.2667    2.3712    1.8377 H   0  0  0  0  0  0  0  0  0  0  0  0
   -1.1137    2.0762    3.0779 H   0  0  0  0  0  0  0  0  0  0  0  0
   -0.9972    3.4115    1.9276 H   0  0  0  0  0  0  0  0  0  0  0  0
   -0.2598    1.8520    1.5478 H   0  0  0  0  0  0  0  0  0  0  0  0
    0.4999    0.8222   -2.8665 H   0  0  0  0  0  0  0  0  0  0  0  0
    3.1696   -0.6964   -6.5629 H   0  0  0  0  0  0  0  0  0  0  0  0
    3.1786   -2.0286  -10.9276 H   0  0  0  0  0  0  0  0  0  0  0  0
    4.7637   -2.0782  -11.7205 H   0  0  0  0  0  0  0  0  0  0  0  0
    4.8656   -4.5411  -11.3630 H   0  0  0  0  0  0  0  0  0  0  0  0
    3.4097   -4.1049  -12.2624 H   0  0  0  0  0  0  0  0  0  0  0  0
    3.3046   -4.4966  -10.5410 H   0  0  0  0  0  0  0  0  0  0  0  0
    4.5983   -4.9991    2.6131 H   0  0  0  0  0  0  0  0  0  0  0  0
    4.8933   -3.3103    2.9913 H   0  0  0  0  0  0  0  0  0  0  0  0
    6.9180   -4.6508    3.4573 H   0  0  0  0  0  0  0  0  0  0  0  0
    6.9459   -5.2367    1.7928 H   0  0  0  0  0  0  0  0  0  0  0  0
    7.2442   -3.5324    2.1280 H   0  0  0  0  0  0  0  0  0  0  0  0
    7.0724   -4.6970   -2.0977 H   0  0  0  0  0  0  0  0  0  0  0  0
    8.5982   -5.5933   -4.0040 H   0  0  0  0  0  0  0  0  0  0  0  0
  1  2  2  0  0  0  0
  2  3  1  0  0  0  0
  3  4  2  0  0  0  0
  4  5  1  0  0  0  0
  5  6  1  0  0  0  0
  6  7  1  0  0  0  0
  7  8  1  0  0  0  0
  8  9  1  0  0  0  0
  7 10  2  0  0  0  0
 10 11  1  0  0  0  0
 10 12  1  0  0  0  0
 12 13  1  0  0  0  0
  4 14  1  0  0  0  0
 14 15  2  0  0  0  0
 15 16  1  0  0  0  0
 16 17  1  0  0  0  0
 17 18  1  0  0  0  0
 18 19  1  0  0  0  0
 19 20  1  0  0  0  0
 20 21  1  0  0  0  0
 19 22  2  0  0  0  0
 22 23  1  0  0  0  0
 23 24  1  0  0  0  0
 22 25  1  0  0  0  0
 16 26  2  0  0  0  0
 26 27  1  0  0  0  0
 15 28  1  0  0  0  0
 28 29  2  0  0  0  0
 29 30  1  0  0  0  0
 29 31  1  0  0  0  0
 31 32  2  0  0  0  0
 32 33  1  0  0  0  0
 33 34  2  0  0  0  0
 34 35  1  0  0  0  0
 35 36  1  0  0  0  0
 36 37  1  0  0  0  0
 37 38  1  0  0  0  0
 38 39  1  0  0  0  0
 37 40  2  0  0  0  0
 40 41  1  0  0  0  0
 40 42  1  0  0  0  0
 42 43  1  0  0  0  0
 34 44  1  0  0  0  0
 44 45  2  0  0  0  0
 45 46  1  0  0  0  0
 46 47  1  0  0  0  0
 47 48  1  0  0  0  0
 48 49  1  0  0  0  0
 49 50  1  0  0  0  0
 50 51  1  0  0  0  0
 49 52  2  0  0  0  0
 52 53  1  0  0  0  0
 53 54  1  0  0  0  0
 52 55  1  0  0  0  0
 46 56  2  0  0  0  0
 56 57  1  0  0  0  0
 45 58  1  0  0  0  0
 58 59  2  0  0  0  0
 59 60  1  0  0  0  0
 59 61  1  0  0  0  0
 61 62  2  0  0  0  0
 62 63  1  0  0  0  0
 63 64  1  0  0  0  0
 64 65  1  0  0  0  0
 65 66  2  0  0  0  0
 65 67  1  0  0  0  0
 67 68  1  0  0  0  0
 68 69  1  0  0  0  0
 69 70  2  0  0  0  0
 70 71  1  0  0  0  0
 64 72  2  0  0  0  0
 72 73  1  0  0  0  0
 73 74  2  0  0  0  0
 74 75  1  0  0  0  0
 75 76  2  0  0  0  0
 76 77  1  0  0  0  0
 77 78  1  0  0  0  0
 78 79  1  0  0  0  0
 79 80  2  0  0  0  0
 79 81  1  0  0  0  0
 81 82  1  0  0  0  0
 82 83  1  0  0  0  0
 83 84  2  0  0  0  0
 84 85  1  0  0  0  0
 78 86  2  0  0  0  0
 86 87  1  0  0  0  0
 87 88  2  0  0  0  0
 88 89  1  0  0  0  0
 89 90  2  0  0  0  0
 90 91  1  0  0  0  0
 91 92  2  0  0  0  0
 92 93  1  0  0  0  0
 93 94  1  0  0  0  0
 94 95  1  0  0  0  0
 95 96  1  0  0  0  0
 96 97  1  0  0  0  0
 95 98  2  0  0  0  0
 98 99  1  0  0  0  0
 98100  1  0  0  0  0
100101  1  0  0  0  0
 92102  1  0  0  0  0
102103  2  0  0  0  0
103104  1  0  0  0  0
104105  1  0  0  0  0
105106  1  0  0  0  0
106107  1  0  0  0  0
107108  1  0  0  0  0
108109  1  0  0  0  0
107110  2  0  0  0  0
110111  1  0  0  0  0
111112  1  0  0  0  0
110113  1  0  0  0  0
104114  2  0  0  0  0
114115  1  0  0  0  0
103116  1  0  0  0  0
116117  2  0  0  0  0
117118  1  0  0  0  0
117119  1  0  0  0  0
119120  2  0  0  0  0
120121  1  0  0  0  0
121122  2  0  0  0  0
122123  1  0  0  0  0
123124  1  0  0  0  0
124125  1  0  0  0  0
125126  1  0  0  0  0
126127  1  0  0  0  0
125128  2  0  0  0  0
128129  1  0  0  0  0
128130  1  0  0  0  0
130131  1  0  0  0  0
122132  1  0  0  0  0
132133  2  0  0  0  0
133134  1  0  0  0  0
134135  1  0  0  0  0
135136  1  0  0  0  0
136137  1  0  0  0  0
137138  1  0  0  0  0
138139  1  0  0  0  0
137140  2  0  0  0  0
140141  1  0  0  0  0
141142  1  0  0  0  0
140143  1  0  0  0  0
134144  2  0  0  0  0
144145  1  0  0  0  0
133146  1  0  0  0  0
146147  2  0  0  0  0
147148  1  0  0  0  0
 27  1  1  0  0  0  0
 57 31  1  0  0  0  0
 72 61  1  0  0  0  0
 86 75  1  0  0  0  0
115 89  1  0  0  0  0
145119  1  0  0  0  0
 26  3  1  0  0  0  0
 56 33  1  0  0  0  0
 68 63  2  0  0  0  0
 82 77  2  0  0  0  0
114 91  1  0  0  0  0
144121  1  0  0  0  0
 12  5  2  0  0  0  0
 30 14  1  0  0  0  0
 42 35  2  0  0  0  0
 60 44  1  0  0  0  0
 71 67  2  0  0  0  0
 85 81  2  0  0  0  0
100 93  2  0  0  0  0
118102  1  0  0  0  0
130123  2  0  0  0  0
148132  1  0  0  0  0
 23 17  2  0  0  0  0
 53 47  2  0  0  0  0
111105  2  0  0  0  0
141135  2  0  0  0  0
  1149  1  0  0  0  0
  2150  1  0  0  0  0
  8151  1  0  0  0  0
  8152  1  0  0  0  0
  9153  1  0  0  0  0
  9154  1  0  0  0  0
  9155  1  0  0  0  0
 20156  1  0  0  0  0
 20157  1  0  0  0  0
 21158  1  0  0  0  0
 21159  1  0  0  0  0
 21160  1  0  0  0  0
 28161  1  0  0  0  0
 32162  1  0  0  0  0
 38163  1  0  0  0  0
 38164  1  0  0  0  0
 39165  1  0  0  0  0
 39166  1  0  0  0  0
 39167  1  0  0  0  0
 50168  1  0  0  0  0
 50169  1  0  0  0  0
 51170  1  0  0  0  0
 51171  1  0  0  0  0
 51172  1  0  0  0  0
 58173  1  0  0  0  0
 70174  1  0  0  0  0
 71175  1  0  0  0  0
 73176  1  0  0  0  0
 74177  1  0  0  0  0
 84178  1  0  0  0  0
 85179  1  0  0  0  0
 87180  1  0  0  0  0
 88181  1  0  0  0  0
 90182  1  0  0  0  0
 96183  1  0  0  0  0
 96184  1  0  0  0  0
 97185  1  0  0  0  0
 97186  1  0  0  0  0
 97187  1  0  0  0  0
108188  1  0  0  0  0
108189  1  0  0  0  0
109190  1  0  0  0  0
109191  1  0  0  0  0
109192  1  0  0  0  0
116193  1  0  0  0  0
120194  1  0  0  0  0
126195  1  0  0  0  0
126196  1  0  0  0  0
127197  1  0  0  0  0
127198  1  0  0  0  0
127199  1  0  0  0  0
138200  1  0  0  0  0
138201  1  0  0  0  0
139202  1  0  0  0  0
139203  1  0  0  0  0
139204  1  0  0  0  0
146205  1  0  0  0  0
147206  1  0  0  0  0
M  END
