
  xtb     03052202333D
 energy: -422.541323089247 gnorm: 0.000246466922 xtb: 6.4.1 (unknown)
256277  0     0  0            999 V2000
   -2.6456    0.0112   10.3698 C   0  0  0  0  0  0  0  0  0  0  0  0
   -3.3545    0.8790    9.6204 C   0  0  0  0  0  0  0  0  0  0  0  0
   -3.2997    0.5838    8.2250 C   0  0  0  0  0  0  0  0  0  0  0  0
   -3.8952    1.2839    7.1640 C   0  0  0  0  0  0  0  0  0  0  0  0
   -4.7897    2.4238    7.3982 C   0  0  0  0  0  0  0  0  0  0  0  0
   -4.6253    3.6226    6.7122 C   0  0  0  0  0  0  0  0  0  0  0  0
   -5.4784    4.6900    6.9183 C   0  0  0  0  0  0  0  0  0  0  0  0
   -6.5312    4.5963    7.8208 C   0  0  0  0  0  0  0  0  0  0  0  0
   -7.7101    5.8563    8.1713 S   0  0  0  0  0  0  0  0  0  0  0  0
   -7.0894    7.3250    7.2826 C   0  0  0  0  0  0  0  0  0  0  0  0
   -5.8971    7.9595    7.9739 C   0  0  0  0  0  0  0  0  0  0  0  0
   -6.6883    3.3841    8.4970 C   0  0  0  0  0  0  0  0  0  0  0  0
   -7.7060    3.2517    9.3727 F   0  0  0  0  0  0  0  0  0  0  0  0
   -5.8456    2.3144    8.3021 C   0  0  0  0  0  0  0  0  0  0  0  0
   -3.6174    0.8266    5.8838 C   0  0  0  0  0  0  0  0  0  0  0  0
   -2.8029   -0.3032    5.6267 C   0  0  0  0  0  0  0  0  0  0  0  0
   -2.2276   -1.0174    6.6884 C   0  0  0  0  0  0  0  0  0  0  0  0
   -1.4247   -2.2200    6.4364 C   0  0  0  0  0  0  0  0  0  0  0  0
   -1.7419   -3.4208    7.0633 C   0  0  0  0  0  0  0  0  0  0  0  0
   -1.0450   -4.5788    6.7818 C   0  0  0  0  0  0  0  0  0  0  0  0
    0.0082   -4.5716    5.8752 C   0  0  0  0  0  0  0  0  0  0  0  0
    0.9361   -5.9921    5.3945 S   0  0  0  0  0  0  0  0  0  0  0  0
    0.6235   -7.1952    6.7331 C   0  0  0  0  0  0  0  0  0  0  0  0
    1.2063   -6.7551    8.0623 C   0  0  0  0  0  0  0  0  0  0  0  0
    0.3310   -3.3567    5.2698 C   0  0  0  0  0  0  0  0  0  0  0  0
   -0.3639   -2.1977    5.5331 C   0  0  0  0  0  0  0  0  0  0  0  0
    1.3528   -3.3118    4.3872 F   0  0  0  0  0  0  0  0  0  0  0  0
   -2.4944   -0.5514    7.9672 C   0  0  0  0  0  0  0  0  0  0  0  0
   -1.8601   -1.2245    9.4467 S   0  0  0  0  0  0  0  0  0  0  0  0
   -2.7293   -0.5981    4.2419 C   0  0  0  0  0  0  0  0  0  0  0  0
   -3.4420    0.2591    3.4603 C   0  0  0  0  0  0  0  0  0  0  0  0
   -4.2596    1.4923    4.4013 S   0  0  0  0  0  0  0  0  0  0  0  0
   -3.5394    0.2355    2.0378 C   0  0  0  0  0  0  0  0  0  0  0  0
   -4.3200    0.9997    1.2248 C   0  0  0  0  0  0  0  0  0  0  0  0
   -4.1410    0.7232   -0.1556 C   0  0  0  0  0  0  0  0  0  0  0  0
   -4.7760    1.3303   -1.2515 C   0  0  0  0  0  0  0  0  0  0  0  0
   -5.7551    2.4088   -1.0710 C   0  0  0  0  0  0  0  0  0  0  0  0
   -5.4600    3.5274   -0.2925 C   0  0  0  0  0  0  0  0  0  0  0  0
   -6.3818    4.5393   -0.1408 C   0  0  0  0  0  0  0  0  0  0  0  0
   -7.6380    4.4773   -0.7447 C   0  0  0  0  0  0  0  0  0  0  0  0
   -8.7402    5.8180   -0.4266 S   0  0  0  0  0  0  0  0  0  0  0  0
   -9.8011    5.9043   -1.9243 C   0  0  0  0  0  0  0  0  0  0  0  0
  -10.3944    7.2961   -2.0197 C   0  0  0  0  0  0  0  0  0  0  0  0
   -7.9249    3.3465   -1.5032 C   0  0  0  0  0  0  0  0  0  0  0  0
   -9.1347    3.1875   -2.0877 F   0  0  0  0  0  0  0  0  0  0  0  0
   -7.0019    2.3360   -1.6815 C   0  0  0  0  0  0  0  0  0  0  0  0
   -4.4144    0.8741   -2.5091 C   0  0  0  0  0  0  0  0  0  0  0  0
   -3.4467   -0.1383   -2.7271 C   0  0  0  0  0  0  0  0  0  0  0  0
   -2.8367   -0.7718   -1.6310 C   0  0  0  0  0  0  0  0  0  0  0  0
   -1.8765   -1.8711   -1.7905 C   0  0  0  0  0  0  0  0  0  0  0  0
   -2.0176   -3.0400   -1.0399 C   0  0  0  0  0  0  0  0  0  0  0  0
   -1.1239   -4.0770   -1.1720 C   0  0  0  0  0  0  0  0  0  0  0  0
   -0.0527   -4.0149   -2.0671 C   0  0  0  0  0  0  0  0  0  0  0  0
    0.9927   -5.4336   -2.0819 S   0  0  0  0  0  0  0  0  0  0  0  0
    2.1385   -5.2250   -3.4962 C   0  0  0  0  0  0  0  0  0  0  0  0
    3.0270   -6.4506   -3.5701 C   0  0  0  0  0  0  0  0  0  0  0  0
    0.0670   -2.8505   -2.8180 C   0  0  0  0  0  0  0  0  0  0  0  0
   -0.8124   -1.7936   -2.6812 C   0  0  0  0  0  0  0  0  0  0  0  0
    1.0514   -2.6989   -3.7345 F   0  0  0  0  0  0  0  0  0  0  0  0
   -3.2053   -0.3178   -0.3717 C   0  0  0  0  0  0  0  0  0  0  0  0
   -2.5444   -0.8940    1.1366 S   0  0  0  0  0  0  0  0  0  0  0  0
   -3.2371   -0.3683   -4.1112 C   0  0  0  0  0  0  0  0  0  0  0  0
   -3.9842    0.4237   -4.9293 C   0  0  0  0  0  0  0  0  0  0  0  0
   -5.0286    1.5013   -4.0172 S   0  0  0  0  0  0  0  0  0  0  0  0
   -3.8759    0.4855   -6.3574 C   0  0  0  0  0  0  0  0  0  0  0  0
   -2.2867    0.2847   -7.0355 S   0  0  0  0  0  0  0  0  0  0  0  0
   -2.8976    0.5276   -8.6404 C   0  0  0  0  0  0  0  0  0  0  0  0
   -4.2626    0.7120   -8.6347 C   0  0  0  0  0  0  0  0  0  0  0  0
   -4.8218    0.7105   -7.3331 C   0  0  0  0  0  0  0  0  0  0  0  0
   -6.2791    0.8710   -7.0230 C   0  0  0  0  0  0  0  0  0  0  0  0
   -6.8908   -0.4389   -6.5234 C   0  0  0  0  0  0  0  0  0  0  0  0
   -5.0400    0.9229   -9.8996 C   0  0  0  0  0  0  0  0  0  0  0  0
   -5.6697   -0.3822  -10.3893 C   0  0  0  0  0  0  0  0  0  0  0  0
   -2.0083    0.4934   -9.7779 C   0  0  0  0  0  0  0  0  0  0  0  0
   -0.8135    1.1145   -9.8508 C   0  0  0  0  0  0  0  0  0  0  0  0
   -0.3225    2.0330   -8.8733 C   0  0  0  0  0  0  0  0  0  0  0  0
    0.8710    2.6546   -8.9598 C   0  0  0  0  0  0  0  0  0  0  0  0
    1.3887    3.6374   -8.0577 C   0  0  0  0  0  0  0  0  0  0  0  0
    2.6466    4.6802   -8.6782 S   0  0  0  0  0  0  0  0  0  0  0  0
    2.7607    5.5323   -7.1683 C   0  0  0  0  0  0  0  0  0  0  0  0
    1.8540    5.0485   -6.2552 C   0  0  0  0  0  0  0  0  0  0  0  0
    1.0909    3.9562   -6.7473 C   0  0  0  0  0  0  0  0  0  0  0  0
    0.1387    3.1749   -5.8914 C   0  0  0  0  0  0  0  0  0  0  0  0
   -1.2552    3.8033   -5.8274 C   0  0  0  0  0  0  0  0  0  0  0  0
    1.6437    5.6963   -4.9188 C   0  0  0  0  0  0  0  0  0  0  0  0
    0.9768    7.0635   -5.0802 C   0  0  0  0  0  0  0  0  0  0  0  0
    3.7387    6.5988   -7.0394 C   0  0  0  0  0  0  0  0  0  0  0  0
    4.6800    6.6925   -6.0865 C   0  0  0  0  0  0  0  0  0  0  0  0
    4.9371    5.6951   -5.0747 C   0  0  0  0  0  0  0  0  0  0  0  0
    4.7730    4.3783   -5.2907 C   0  0  0  0  0  0  0  0  0  0  0  0
    4.8092    3.3413   -4.3148 C   0  0  0  0  0  0  0  0  0  0  0  0
    4.3837    2.0639   -4.5372 C   0  0  0  0  0  0  0  0  0  0  0  0
    4.3685    1.2528   -3.3782 C   0  0  0  0  0  0  0  0  0  0  0  0
    3.9314   -0.0764   -3.2704 C   0  0  0  0  0  0  0  0  0  0  0  0
    3.3671   -0.7872   -4.4235 C   0  0  0  0  0  0  0  0  0  0  0  0
    3.8415   -2.0380   -4.8011 C   0  0  0  0  0  0  0  0  0  0  0  0
    3.2989   -2.7150   -5.8765 C   0  0  0  0  0  0  0  0  0  0  0  0
    2.2531   -2.1637   -6.6063 C   0  0  0  0  0  0  0  0  0  0  0  0
    1.4504   -2.9227   -7.9750 S   0  0  0  0  0  0  0  0  0  0  0  0
    2.1709   -4.6074   -7.9992 C   0  0  0  0  0  0  0  0  0  0  0  0
    1.4467   -5.4340   -9.0449 C   0  0  0  0  0  0  0  0  0  0  0  0
    1.7972   -0.9009   -6.2255 C   0  0  0  0  0  0  0  0  0  0  0  0
    0.7933   -0.3302   -6.9238 F   0  0  0  0  0  0  0  0  0  0  0  0
    2.3309   -0.2156   -5.1601 C   0  0  0  0  0  0  0  0  0  0  0  0
    4.0405   -0.6637   -2.0213 C   0  0  0  0  0  0  0  0  0  0  0  0
    4.5423    0.0174   -0.8843 C   0  0  0  0  0  0  0  0  0  0  0  0
    4.9561    1.3583   -0.9885 C   0  0  0  0  0  0  0  0  0  0  0  0
    5.4580    2.0781    0.1877 C   0  0  0  0  0  0  0  0  0  0  0  0
    4.7467    2.0714    1.3853 C   0  0  0  0  0  0  0  0  0  0  0  0
    5.2394    2.6964    2.5136 C   0  0  0  0  0  0  0  0  0  0  0  0
    6.4694    3.3443    2.4888 C   0  0  0  0  0  0  0  0  0  0  0  0
    7.2115    4.1488    3.8706 S   0  0  0  0  0  0  0  0  0  0  0  0
    6.4232    3.3461    5.3114 C   0  0  0  0  0  0  0  0  0  0  0  0
    6.7778    1.8762    5.4199 C   0  0  0  0  0  0  0  0  0  0  0  0
    7.1518    3.3791    1.2719 C   0  0  0  0  0  0  0  0  0  0  0  0
    6.6687    2.7652    0.1378 C   0  0  0  0  0  0  0  0  0  0  0  0
    8.3365    4.0181    1.2025 F   0  0  0  0  0  0  0  0  0  0  0  0
    4.8634    1.9425   -2.2426 C   0  0  0  0  0  0  0  0  0  0  0  0
    5.2628    3.5968   -2.6390 S   0  0  0  0  0  0  0  0  0  0  0  0
    4.5709   -0.8210    0.2592 C   0  0  0  0  0  0  0  0  0  0  0  0
    4.0796   -2.0735    0.0339 C   0  0  0  0  0  0  0  0  0  0  0  0
    3.5597   -2.2887   -1.6222 S   0  0  0  0  0  0  0  0  0  0  0  0
    3.9915   -3.1613    0.9551 C   0  0  0  0  0  0  0  0  0  0  0  0
    4.2507   -3.1476    2.2940 C   0  0  0  0  0  0  0  0  0  0  0  0
    4.1307   -4.4208    2.9062 C   0  0  0  0  0  0  0  0  0  0  0  0
    4.3175   -4.7592    4.2550 C   0  0  0  0  0  0  0  0  0  0  0  0
    4.6449   -3.7396    5.2578 C   0  0  0  0  0  0  0  0  0  0  0  0
    5.7173   -2.8654    5.0950 C   0  0  0  0  0  0  0  0  0  0  0  0
    5.9810   -1.8957    6.0397 C   0  0  0  0  0  0  0  0  0  0  0  0
    5.1764   -1.7478    7.1665 C   0  0  0  0  0  0  0  0  0  0  0  0
    5.5563   -0.4267    8.2862 S   0  0  0  0  0  0  0  0  0  0  0  0
    5.4100   -1.2106    9.9328 C   0  0  0  0  0  0  0  0  0  0  0  0
    6.3243   -2.4111   10.0693 C   0  0  0  0  0  0  0  0  0  0  0  0
    4.1005   -2.6180    7.3091 C   0  0  0  0  0  0  0  0  0  0  0  0
    3.2576   -2.5094    8.3610 F   0  0  0  0  0  0  0  0  0  0  0  0
    3.8467   -3.6139    6.3897 C   0  0  0  0  0  0  0  0  0  0  0  0
    4.1310   -6.0901    4.5940 C   0  0  0  0  0  0  0  0  0  0  0  0
    3.7165   -7.0777    3.6703 C   0  0  0  0  0  0  0  0  0  0  0  0
    3.4901   -6.7320    2.3329 C   0  0  0  0  0  0  0  0  0  0  0  0
    2.9832   -7.6963    1.3475 C   0  0  0  0  0  0  0  0  0  0  0  0
    3.6595   -7.9313    0.1535 C   0  0  0  0  0  0  0  0  0  0  0  0
    3.1412   -8.7981   -0.7849 C   0  0  0  0  0  0  0  0  0  0  0  0
    1.9313   -9.4535   -0.5735 C   0  0  0  0  0  0  0  0  0  0  0  0
    1.3663  -10.5557   -1.8397 S   0  0  0  0  0  0  0  0  0  0  0  0
   -0.4196  -10.1726   -1.9700 C   0  0  0  0  0  0  0  0  0  0  0  0
   -0.6593   -8.7266   -2.3528 C   0  0  0  0  0  0  0  0  0  0  0  0
    1.2841   -9.2341    0.6381 C   0  0  0  0  0  0  0  0  0  0  0  0
    1.7885   -8.3660    1.5851 C   0  0  0  0  0  0  0  0  0  0  0  0
    0.1298   -9.8735    0.9329 F   0  0  0  0  0  0  0  0  0  0  0  0
    3.7369   -5.4154    1.9782 C   0  0  0  0  0  0  0  0  0  0  0  0
    3.5469   -4.7537    0.3809 S   0  0  0  0  0  0  0  0  0  0  0  0
    3.6230   -8.3649    4.2788 C   0  0  0  0  0  0  0  0  0  0  0  0
    3.9573   -8.3535    5.5843 C   0  0  0  0  0  0  0  0  0  0  0  0
    4.4036   -6.7851    6.1702 S   0  0  0  0  0  0  0  0  0  0  0  0
   -2.5224    0.0088   11.4352 H   0  0  0  0  0  0  0  0  0  0  0  0
   -3.8888    1.7182   10.0269 H   0  0  0  0  0  0  0  0  0  0  0  0
   -3.8073    3.7318    6.0169 H   0  0  0  0  0  0  0  0  0  0  0  0
   -5.3146    5.5970    6.3601 H   0  0  0  0  0  0  0  0  0  0  0  0
   -6.8768    7.0427    6.2524 H   0  0  0  0  0  0  0  0  0  0  0  0
   -7.9425    8.0035    7.2861 H   0  0  0  0  0  0  0  0  0  0  0  0
   -6.1638    8.2507    8.9870 H   0  0  0  0  0  0  0  0  0  0  0  0
   -5.0592    7.2678    8.0271 H   0  0  0  0  0  0  0  0  0  0  0  0
   -5.5820    8.8470    7.4282 H   0  0  0  0  0  0  0  0  0  0  0  0
   -6.0303    1.3948    8.8350 H   0  0  0  0  0  0  0  0  0  0  0  0
   -2.5666   -3.4578    7.7583 H   0  0  0  0  0  0  0  0  0  0  0  0
   -1.3435   -5.4954    7.2638 H   0  0  0  0  0  0  0  0  0  0  0  0
    1.1144   -8.1004    6.3740 H   0  0  0  0  0  0  0  0  0  0  0  0
   -0.4486   -7.3815    6.7888 H   0  0  0  0  0  0  0  0  0  0  0  0
    0.9969   -7.5067    8.8209 H   0  0  0  0  0  0  0  0  0  0  0  0
    0.7790   -5.8081    8.3857 H   0  0  0  0  0  0  0  0  0  0  0  0
    2.2844   -6.6361    7.9809 H   0  0  0  0  0  0  0  0  0  0  0  0
   -0.0648   -1.2828    5.0461 H   0  0  0  0  0  0  0  0  0  0  0  0
   -2.1830   -1.4302    3.8352 H   0  0  0  0  0  0  0  0  0  0  0  0
   -5.0128    1.7292    1.6047 H   0  0  0  0  0  0  0  0  0  0  0  0
   -4.4885    3.6149    0.1695 H   0  0  0  0  0  0  0  0  0  0  0  0
   -6.1459    5.4087    0.4532 H   0  0  0  0  0  0  0  0  0  0  0  0
   -9.1669    5.6859   -2.7820 H   0  0  0  0  0  0  0  0  0  0  0  0
  -10.5811    5.1495   -1.8385 H   0  0  0  0  0  0  0  0  0  0  0  0
  -10.9917    7.5170   -1.1379 H   0  0  0  0  0  0  0  0  0  0  0  0
   -9.6076    8.0430   -2.0989 H   0  0  0  0  0  0  0  0  0  0  0  0
  -11.0319    7.3633   -2.8986 H   0  0  0  0  0  0  0  0  0  0  0  0
   -7.2832    1.4799   -2.2747 H   0  0  0  0  0  0  0  0  0  0  0  0
   -2.8505   -3.1448   -0.3624 H   0  0  0  0  0  0  0  0  0  0  0  0
   -1.2404   -4.9737   -0.5832 H   0  0  0  0  0  0  0  0  0  0  0  0
    2.7290   -4.3275   -3.3274 H   0  0  0  0  0  0  0  0  0  0  0  0
    1.5340   -5.1097   -4.3952 H   0  0  0  0  0  0  0  0  0  0  0  0
    3.6023   -6.5459   -2.6526 H   0  0  0  0  0  0  0  0  0  0  0  0
    2.4333   -7.3526   -3.7003 H   0  0  0  0  0  0  0  0  0  0  0  0
    3.7144   -6.3585   -4.4085 H   0  0  0  0  0  0  0  0  0  0  0  0
   -0.6340   -0.9064   -3.2689 H   0  0  0  0  0  0  0  0  0  0  0  0
   -2.5646   -1.1111   -4.4994 H   0  0  0  0  0  0  0  0  0  0  0  0
   -6.4049    1.6394   -6.2563 H   0  0  0  0  0  0  0  0  0  0  0  0
   -6.8124    1.1994   -7.9148 H   0  0  0  0  0  0  0  0  0  0  0  0
   -7.9513   -0.3065   -6.3226 H   0  0  0  0  0  0  0  0  0  0  0  0
   -6.4027   -0.7638   -5.6076 H   0  0  0  0  0  0  0  0  0  0  0  0
   -6.7730   -1.2245   -7.2667 H   0  0  0  0  0  0  0  0  0  0  0  0
   -4.3702    1.3136  -10.6676 H   0  0  0  0  0  0  0  0  0  0  0  0
   -5.8227    1.6664   -9.7357 H   0  0  0  0  0  0  0  0  0  0  0  0
   -4.9007   -1.1327  -10.5585 H   0  0  0  0  0  0  0  0  0  0  0  0
   -6.3690   -0.7705   -9.6531 H   0  0  0  0  0  0  0  0  0  0  0  0
   -6.2052   -0.2179  -11.3216 H   0  0  0  0  0  0  0  0  0  0  0  0
   -2.3536   -0.0840  -10.6263 H   0  0  0  0  0  0  0  0  0  0  0  0
   -0.2053    0.9685  -10.7339 H   0  0  0  0  0  0  0  0  0  0  0  0
   -0.9936    2.2705   -8.0673 H   0  0  0  0  0  0  0  0  0  0  0  0
    1.5042    2.4460   -9.8147 H   0  0  0  0  0  0  0  0  0  0  0  0
    0.0657    2.1582   -6.2788 H   0  0  0  0  0  0  0  0  0  0  0  0
    0.5442    3.1132   -4.8773 H   0  0  0  0  0  0  0  0  0  0  0  0
   -1.2177    4.7751   -5.3411 H   0  0  0  0  0  0  0  0  0  0  0  0
   -1.6641    3.9428   -6.8257 H   0  0  0  0  0  0  0  0  0  0  0  0
   -1.9299    3.1615   -5.2643 H   0  0  0  0  0  0  0  0  0  0  0  0
    1.0162    5.0629   -4.2927 H   0  0  0  0  0  0  0  0  0  0  0  0
    2.6006    5.8252   -4.4099 H   0  0  0  0  0  0  0  0  0  0  0  0
    0.7904    7.5107   -4.1063 H   0  0  0  0  0  0  0  0  0  0  0  0
    1.6194    7.7304   -5.6505 H   0  0  0  0  0  0  0  0  0  0  0  0
    0.0291    6.9684   -5.6063 H   0  0  0  0  0  0  0  0  0  0  0  0
    3.6905    7.3644   -7.8050 H   0  0  0  0  0  0  0  0  0  0  0  0
    5.2877    7.5870   -6.0431 H   0  0  0  0  0  0  0  0  0  0  0  0
    5.2856    6.0431   -4.1092 H   0  0  0  0  0  0  0  0  0  0  0  0
    4.5058    4.0370   -6.2814 H   0  0  0  0  0  0  0  0  0  0  0  0
    4.0752    1.7177   -5.5071 H   0  0  0  0  0  0  0  0  0  0  0  0
    4.6589   -2.4850   -4.2556 H   0  0  0  0  0  0  0  0  0  0  0  0
    3.6997   -3.6799   -6.1396 H   0  0  0  0  0  0  0  0  0  0  0  0
    2.0442   -5.0375   -7.0055 H   0  0  0  0  0  0  0  0  0  0  0  0
    3.2310   -4.5212   -8.2388 H   0  0  0  0  0  0  0  0  0  0  0  0
    1.5595   -4.9857  -10.0292 H   0  0  0  0  0  0  0  0  0  0  0  0
    1.8570   -6.4414   -9.0701 H   0  0  0  0  0  0  0  0  0  0  0  0
    0.3857   -5.4936   -8.8141 H   0  0  0  0  0  0  0  0  0  0  0  0
    1.9196    0.7451   -4.8919 H   0  0  0  0  0  0  0  0  0  0  0  0
    3.7828    1.5865    1.4289 H   0  0  0  0  0  0  0  0  0  0  0  0
    4.6536    2.6779    3.4187 H   0  0  0  0  0  0  0  0  0  0  0  0
    5.3477    3.5108    5.2635 H   0  0  0  0  0  0  0  0  0  0  0  0
    6.8211    3.9043    6.1585 H   0  0  0  0  0  0  0  0  0  0  0  0
    6.4166    1.3234    4.5546 H   0  0  0  0  0  0  0  0  0  0  0  0
    7.8569    1.7553    5.4808 H   0  0  0  0  0  0  0  0  0  0  0  0
    6.3267    1.4529    6.3157 H   0  0  0  0  0  0  0  0  0  0  0  0
    7.2536    2.8015   -0.7675 H   0  0  0  0  0  0  0  0  0  0  0  0
    4.9678   -0.5110    1.2082 H   0  0  0  0  0  0  0  0  0  0  0  0
    4.5020   -2.2550    2.8358 H   0  0  0  0  0  0  0  0  0  0  0  0
    6.3637   -2.9667    4.2363 H   0  0  0  0  0  0  0  0  0  0  0  0
    6.8202   -1.2283    5.9191 H   0  0  0  0  0  0  0  0  0  0  0  0
    4.3676   -1.4685   10.1073 H   0  0  0  0  0  0  0  0  0  0  0  0
    5.6992   -0.4133   10.6175 H   0  0  0  0  0  0  0  0  0  0  0  0
    6.2666   -2.8009   11.0836 H   0  0  0  0  0  0  0  0  0  0  0  0
    6.0327   -3.2017    9.3798 H   0  0  0  0  0  0  0  0  0  0  0  0
    7.3550   -2.1324    9.8595 H   0  0  0  0  0  0  0  0  0  0  0  0
    2.9980   -4.2610    6.5416 H   0  0  0  0  0  0  0  0  0  0  0  0
    4.5999   -7.4357   -0.0334 H   0  0  0  0  0  0  0  0  0  0  0  0
    3.6669   -8.9859   -1.7080 H   0  0  0  0  0  0  0  0  0  0  0  0
   -0.9048  -10.4327   -1.0323 H   0  0  0  0  0  0  0  0  0  0  0  0
   -0.7672  -10.8519   -2.7486 H   0  0  0  0  0  0  0  0  0  0  0  0
   -0.2654   -8.0507   -1.5963 H   0  0  0  0  0  0  0  0  0  0  0  0
   -0.1755   -8.4963   -3.2995 H   0  0  0  0  0  0  0  0  0  0  0  0
   -1.7274   -8.5458   -2.4550 H   0  0  0  0  0  0  0  0  0  0  0  0
    1.2379   -8.2052    2.4994 H   0  0  0  0  0  0  0  0  0  0  0  0
    3.3330   -9.2500    3.7415 H   0  0  0  0  0  0  0  0  0  0  0  0
    3.9810   -9.1794    6.2688 H   0  0  0  0  0  0  0  0  0  0  0  0
  1  2  2  0  0  0  0
  2  3  1  0  0  0  0
  3  4  2  0  0  0  0
  4  5  1  0  0  0  0
  5  6  2  0  0  0  0
  6  7  1  0  0  0  0
  7  8  2  0  0  0  0
  8  9  1  0  0  0  0
  9 10  1  0  0  0  0
 10 11  1  0  0  0  0
  8 12  1  0  0  0  0
 12 13  1  0  0  0  0
 12 14  2  0  0  0  0
  4 15  1  0  0  0  0
 15 16  2  0  0  0  0
 16 17  1  0  0  0  0
 17 18  1  0  0  0  0
 18 19  2  0  0  0  0
 19 20  1  0  0  0  0
 20 21  2  0  0  0  0
 21 22  1  0  0  0  0
 22 23  1  0  0  0  0
 23 24  1  0  0  0  0
 21 25  1  0  0  0  0
 25 26  2  0  0  0  0
 25 27  1  0  0  0  0
 17 28  2  0  0  0  0
 28 29  1  0  0  0  0
 16 30  1  0  0  0  0
 30 31  2  0  0  0  0
 31 32  1  0  0  0  0
 31 33  1  0  0  0  0
 33 34  2  0  0  0  0
 34 35  1  0  0  0  0
 35 36  2  0  0  0  0
 36 37  1  0  0  0  0
 37 38  2  0  0  0  0
 38 39  1  0  0  0  0
 39 40  2  0  0  0  0
 40 41  1  0  0  0  0
 41 42  1  0  0  0  0
 42 43  1  0  0  0  0
 40 44  1  0  0  0  0
 44 45  1  0  0  0  0
 44 46  2  0  0  0  0
 36 47  1  0  0  0  0
 47 48  2  0  0  0  0
 48 49  1  0  0  0  0
 49 50  1  0  0  0  0
 50 51  2  0  0  0  0
 51 52  1  0  0  0  0
 52 53  2  0  0  0  0
 53 54  1  0  0  0  0
 54 55  1  0  0  0  0
 55 56  1  0  0  0  0
 53 57  1  0  0  0  0
 57 58  2  0  0  0  0
 57 59  1  0  0  0  0
 49 60  2  0  0  0  0
 60 61  1  0  0  0  0
 48 62  1  0  0  0  0
 62 63  2  0  0  0  0
 63 64  1  0  0  0  0
 63 65  1  0  0  0  0
 65 66  1  0  0  0  0
 66 67  1  0  0  0  0
 67 68  2  0  0  0  0
 68 69  1  0  0  0  0
 69 70  1  0  0  0  0
 70 71  1  0  0  0  0
 68 72  1  0  0  0  0
 72 73  1  0  0  0  0
 67 74  1  0  0  0  0
 74 75  2  0  0  0  0
 75 76  1  0  0  0  0
 76 77  2  0  0  0  0
 77 78  1  0  0  0  0
 78 79  1  0  0  0  0
 79 80  1  0  0  0  0
 80 81  2  0  0  0  0
 81 82  1  0  0  0  0
 82 83  1  0  0  0  0
 83 84  1  0  0  0  0
 81 85  1  0  0  0  0
 85 86  1  0  0  0  0
 80 87  1  0  0  0  0
 87 88  2  0  0  0  0
 88 89  1  0  0  0  0
 89 90  2  0  0  0  0
 90 91  1  0  0  0  0
 91 92  2  0  0  0  0
 92 93  1  0  0  0  0
 93 94  2  0  0  0  0
 94 95  1  0  0  0  0
 95 96  2  0  0  0  0
 96 97  1  0  0  0  0
 97 98  2  0  0  0  0
 98 99  1  0  0  0  0
 99100  1  0  0  0  0
100101  1  0  0  0  0
 98102  1  0  0  0  0
102103  1  0  0  0  0
102104  2  0  0  0  0
 94105  1  0  0  0  0
105106  2  0  0  0  0
106107  1  0  0  0  0
107108  1  0  0  0  0
108109  2  0  0  0  0
109110  1  0  0  0  0
110111  2  0  0  0  0
111112  1  0  0  0  0
112113  1  0  0  0  0
113114  1  0  0  0  0
111115  1  0  0  0  0
115116  2  0  0  0  0
115117  1  0  0  0  0
107118  2  0  0  0  0
118119  1  0  0  0  0
106120  1  0  0  0  0
120121  2  0  0  0  0
121122  1  0  0  0  0
121123  1  0  0  0  0
123124  2  0  0  0  0
124125  1  0  0  0  0
125126  2  0  0  0  0
126127  1  0  0  0  0
127128  2  0  0  0  0
128129  1  0  0  0  0
129130  2  0  0  0  0
130131  1  0  0  0  0
131132  1  0  0  0  0
132133  1  0  0  0  0
130134  1  0  0  0  0
134135  1  0  0  0  0
134136  2  0  0  0  0
126137  1  0  0  0  0
137138  2  0  0  0  0
138139  1  0  0  0  0
139140  1  0  0  0  0
140141  2  0  0  0  0
141142  1  0  0  0  0
142143  2  0  0  0  0
143144  1  0  0  0  0
144145  1  0  0  0  0
145146  1  0  0  0  0
143147  1  0  0  0  0
147148  2  0  0  0  0
147149  1  0  0  0  0
139150  2  0  0  0  0
150151  1  0  0  0  0
138152  1  0  0  0  0
152153  2  0  0  0  0
153154  1  0  0  0  0
 29  1  1  0  0  0  0
 61 33  1  0  0  0  0
 69 65  2  0  0  0  0
 82 78  2  0  0  0  0
119 91  1  0  0  0  0
151123  1  0  0  0  0
 28  3  1  0  0  0  0
 60 35  1  0  0  0  0
118 93  1  0  0  0  0
150125  1  0  0  0  0
 14  5  1  0  0  0  0
 32 15  1  0  0  0  0
 46 37  1  0  0  0  0
 64 47  1  0  0  0  0
104 95  1  0  0  0  0
122105  1  0  0  0  0
136127  1  0  0  0  0
154137  1  0  0  0  0
 26 18  1  0  0  0  0
 58 50  1  0  0  0  0
116108  1  0  0  0  0
148140  1  0  0  0  0
  1155  1  0  0  0  0
  2156  1  0  0  0  0
  6157  1  0  0  0  0
  7158  1  0  0  0  0
 10159  1  0  0  0  0
 10160  1  0  0  0  0
 11161  1  0  0  0  0
 11162  1  0  0  0  0
 11163  1  0  0  0  0
 14164  1  0  0  0  0
 19165  1  0  0  0  0
 20166  1  0  0  0  0
 23167  1  0  0  0  0
 23168  1  0  0  0  0
 24169  1  0  0  0  0
 24170  1  0  0  0  0
 24171  1  0  0  0  0
 26172  1  0  0  0  0
 30173  1  0  0  0  0
 34174  1  0  0  0  0
 38175  1  0  0  0  0
 39176  1  0  0  0  0
 42177  1  0  0  0  0
 42178  1  0  0  0  0
 43179  1  0  0  0  0
 43180  1  0  0  0  0
 43181  1  0  0  0  0
 46182  1  0  0  0  0
 51183  1  0  0  0  0
 52184  1  0  0  0  0
 55185  1  0  0  0  0
 55186  1  0  0  0  0
 56187  1  0  0  0  0
 56188  1  0  0  0  0
 56189  1  0  0  0  0
 58190  1  0  0  0  0
 62191  1  0  0  0  0
 70192  1  0  0  0  0
 70193  1  0  0  0  0
 71194  1  0  0  0  0
 71195  1  0  0  0  0
 71196  1  0  0  0  0
 72197  1  0  0  0  0
 72198  1  0  0  0  0
 73199  1  0  0  0  0
 73200  1  0  0  0  0
 73201  1  0  0  0  0
 74202  1  0  0  0  0
 75203  1  0  0  0  0
 76204  1  0  0  0  0
 77205  1  0  0  0  0
 83206  1  0  0  0  0
 83207  1  0  0  0  0
 84208  1  0  0  0  0
 84209  1  0  0  0  0
 84210  1  0  0  0  0
 85211  1  0  0  0  0
 85212  1  0  0  0  0
 86213  1  0  0  0  0
 86214  1  0  0  0  0
 86215  1  0  0  0  0
 87216  1  0  0  0  0
 88217  1  0  0  0  0
 89218  1  0  0  0  0
 90219  1  0  0  0  0
 92220  1  0  0  0  0
 96221  1  0  0  0  0
 97222  1  0  0  0  0
100223  1  0  0  0  0
100224  1  0  0  0  0
101225  1  0  0  0  0
101226  1  0  0  0  0
101227  1  0  0  0  0
104228  1  0  0  0  0
109229  1  0  0  0  0
110230  1  0  0  0  0
113231  1  0  0  0  0
113232  1  0  0  0  0
114233  1  0  0  0  0
114234  1  0  0  0  0
114235  1  0  0  0  0
116236  1  0  0  0  0
120237  1  0  0  0  0
124238  1  0  0  0  0
128239  1  0  0  0  0
129240  1  0  0  0  0
132241  1  0  0  0  0
132242  1  0  0  0  0
133243  1  0  0  0  0
133244  1  0  0  0  0
133245  1  0  0  0  0
136246  1  0  0  0  0
141247  1  0  0  0  0
142248  1  0  0  0  0
145249  1  0  0  0  0
145250  1  0  0  0  0
146251  1  0  0  0  0
146252  1  0  0  0  0
146253  1  0  0  0  0
148254  1  0  0  0  0
152255  1  0  0  0  0
153256  1  0  0  0  0
M  END
