238

C         -8.89340      -14.13480       -0.89400
C         -8.59510      -13.59260       -2.09160
C         -8.26340      -12.20710       -2.00830
C         -7.93940      -11.32790       -3.05240
C         -7.78470      -11.79460       -4.43550
C         -8.41820      -11.15030       -5.49680
C         -8.24790      -11.59520       -6.78920
C         -7.42860      -12.68570       -7.08480
S         -7.26410      -13.11200       -8.78870
C         -6.86170      -14.90510       -8.78710
C         -7.18990      -15.47750      -10.15190
C         -6.78070      -13.30090       -6.01780
F         -5.93070      -14.33600       -6.21630
C         -6.96200      -12.88050       -4.71580
C         -7.73230      -10.00040       -2.70650
C         -7.79840       -9.52870       -1.37210
C         -8.11470      -10.40980       -0.32570
C         -8.20350       -9.94520        1.06320
C         -8.96670       -8.82730        1.40130
C         -9.04910       -8.40160        2.70860
C         -8.36930       -9.06190        3.73310
S         -8.52160       -8.38920        5.35570
C         -8.35490       -9.84550        6.46540
C         -9.00910       -9.51970        7.79370
C         -7.59640      -10.16360        3.37780
C         -7.52190      -10.61260        2.07490
F         -6.86840      -10.83100        4.30240
C         -8.33850      -11.73390       -0.67630
S         -8.79380      -13.01350        0.42000
C         -7.45450       -8.15600       -1.27910
C         -7.15590       -7.58460       -2.48080
S         -7.28460       -8.72300       -3.80600
C         -6.75220       -6.23460       -2.71670
C         -6.45150       -5.29070       -1.77930
C         -6.03570       -4.05290       -2.32980
C         -5.64240       -2.89560       -1.63450
C         -5.75610       -2.81140       -0.17470
C         -4.70270       -2.36210        0.61510
C         -4.82110       -2.27920        1.98950
C         -6.00420       -2.63890        2.62580
S         -6.29540       -2.58140        4.35780
C         -4.75800       -1.84330        5.02600
C         -4.92120       -1.66190        6.52350
C         -7.05420       -3.08740        1.82020
F         -8.21860       -3.44440        2.40100
C         -6.94800       -3.17650        0.45240
C         -5.15920       -1.84840       -2.40390
C         -5.12980       -1.88330       -3.81870
C         -5.60240       -3.00770       -4.51750
C         -5.66830       -2.99610       -5.98210
C         -5.19100       -4.05030       -6.75400
C         -5.24460       -4.00830       -8.13420
C         -5.78060       -2.91000       -8.79780
S         -5.88380       -2.71360      -10.54430
C         -5.58480       -4.39010      -11.20180
C         -6.73690       -5.33520      -10.91840
C         -6.25390       -1.85870       -8.01050
C         -6.21260       -1.89030       -6.63670
F         -6.76830       -0.76190       -8.60970
C         -6.00550       -4.08780       -3.74650
S         -6.55150       -5.63110       -4.34840
C         -4.54610       -0.71400       -4.36930
C         -4.16900        0.20560       -3.43650
S         -4.53720       -0.33340       -1.80510
C         -3.48920        1.44940       -3.61710
S         -2.65670        2.14650       -2.26100
C         -2.06240        3.45620       -3.23830
C         -2.51500        3.35730       -4.53500
C         -3.32050        2.21640       -4.75220
C         -3.86270        1.86050       -6.10300
C         -3.71150        3.00550       -7.09530
S         -3.96210        2.38530       -8.81300
C         -2.31740        3.60740       -6.99940
C         -2.15920        4.29540       -5.64590
C         -1.09500        4.33990       -2.65100
S          0.11160        3.61770       -1.61970
C          0.89190        5.15350       -1.34740
C          0.24410        6.15050       -2.03610
C         -0.88450        5.69060       -2.75820
C         -1.75830        6.72270       -3.39120
C         -1.96820        7.83070       -2.35480
S         -3.12860        9.09410       -2.99870
C         -0.65800        8.46710       -1.86790
C          0.57420        7.59950       -2.17560
C          2.03420        5.16960       -0.48510
C          2.58970        6.19050        0.22570
C          3.70700        5.80100        1.01060
C          4.50680        6.61040        1.83580
C          4.29880        8.06210        1.88560
C          4.19230        8.74970        3.09280
C          3.94900       10.10660        3.10800
C          3.81590       10.83610        1.92760
S          3.51760       12.57270        2.07390
C          2.33550       12.93810        0.72250
C          1.08340       12.08890        0.81170
C          3.97500       10.14510        0.73030
F          3.91310       10.78690       -0.45980
C          4.19700        8.78430        0.69960
C          5.49560        5.96810        2.56600
C          5.74660        4.57590        2.47000
C          4.97770        3.77540        1.61060
C          5.24290        2.34230        1.43980
C          6.52630        1.87670        1.15510
C          6.75460        0.53510        0.94120
C          5.72150       -0.39920        1.01480
S          6.13720       -2.08960        0.72950
C          4.61960       -2.78730       -0.03830
C          5.00350       -3.98590       -0.88330
C          4.45420        0.07510        1.34100
C          4.20730        1.41880        1.53350
F          3.41240       -0.77320        1.49250
C          3.96110        4.41180        0.91530
S          2.86600        3.64920       -0.20370
C          6.79570        4.16660        3.33040
C          7.35540        5.18930        4.03510
S          6.60570        6.73350        3.67440
C          8.41430        5.10430        4.98660
C          8.97840        6.11110        5.71010
C         10.00730        5.67480        6.58540
C         10.80300        6.44960        7.44410
C         10.57800        7.88970        7.61090
C         11.62830        8.79790        7.52570
C         11.42100       10.15240        7.70250
C         10.15150       10.64930        7.97380
S          9.74240       12.33860        8.25550
C         11.24540       13.25750        7.77680
C         11.44420       13.29500        6.27320
C          9.10780        9.72520        8.06310
F          7.86430       10.16850        8.33850
C          9.29990        8.37460        7.88590
C         11.79340        5.77780        8.14830
C         12.00490        4.38180        8.05060
C         11.20460        3.60670        7.19990
C         11.39700        2.15700        7.06050
C         12.64120        1.62610        6.73520
C         12.81900        0.26430        6.58280
C         11.75640       -0.61590        6.75280
S         11.85280       -2.37080        6.62020
C         13.37960       -2.65950        5.66030
C         13.25100       -2.18820        4.22450
C         10.51700       -0.06930        7.09050
C         10.32490        1.28570        7.23800
F          9.46880       -0.89350        7.28210
C         10.22040        4.27750        6.49010
S          9.13250        3.54360        5.34160
C         13.03500        3.94150        8.93460
C         13.57600        4.94660        9.65130
S         12.88180        6.49500        9.30970
H         -9.17440      -15.14760       -0.68060
H         -8.62450      -14.13860       -3.01700
H         -9.06760      -10.31080       -5.30340
H         -8.75030      -11.10120       -7.60620
H         -7.46370      -15.37220       -8.00930
H         -5.80380      -15.02130       -8.55670
H         -6.95550      -16.53970      -10.16950
H         -6.60820      -14.97930      -10.92420
H         -8.24580      -15.34730      -10.37800
H         -6.42200      -13.38600       -3.92990
H         -9.52370       -8.31020        0.63500
H         -9.64630       -7.54080        2.96640
H         -8.85070      -10.68270        5.97650
H         -7.29590      -10.06520        6.59190
H        -10.06250       -9.28770        7.65430
H         -8.92290      -10.37220        8.46410
H         -8.52600       -8.66190        8.25600
H         -6.89790      -11.46560        1.85900
H         -7.41510       -7.62330       -0.34730
H         -6.48590       -5.48060       -0.72250
H         -3.76510       -2.09250        0.15430
H         -3.97690       -1.93370        2.56280
H         -3.93260       -2.52010        4.80410
H         -4.60390       -0.88430        4.53140
H         -4.01850       -1.22330        6.94330
H         -5.10160       -2.61990        7.00540
H         -5.76150       -1.00560        6.73770
H         -7.80140       -3.50340       -0.12120
H         -4.74730       -4.90820       -6.27310
H         -4.84800       -4.84100       -8.69150
H         -5.47370       -4.22430      -12.27340
H         -4.63720       -4.75600      -10.80880
H         -6.53330       -6.30890      -11.35990
H         -7.65630       -4.94390      -11.34740
H         -6.88550       -5.46360       -9.84830
H         -6.62720       -1.06480       -6.07920
H         -4.35610       -0.61300       -5.41920
H         -4.91220        1.56480       -6.01870
H         -3.30250        1.00140       -6.48910
H         -4.46500        3.77840       -6.92060
H         -5.14980        1.82510       -8.60010
H         -1.57600        2.81330       -7.10970
H         -2.16470        4.32820       -7.80420
H         -1.13640        4.65370       -5.51260
H         -2.82220        5.16520       -5.61810
H         -1.28260        7.13920       -4.28460
H         -2.72220        6.30050       -3.67220
H         -2.51230        7.40410       -1.50820
H         -2.38550        9.44240       -4.04910
H         -0.52010        9.44390       -2.33560
H         -0.72730        8.63050       -0.79130
H          0.87620        7.76910       -3.21450
H          1.40630        7.89760       -1.54330
H          2.18960        7.18660        0.24750
H          4.26710        8.21190        4.02470
H          3.84880       10.63130        4.04510
H          2.10530       13.99240        0.87530
H          2.84100       12.82120       -0.23360
H          1.31420       11.03730        0.65150
H          0.37220       12.40370        0.05060
H          0.61870       12.19490        1.78960
H          4.32450        8.30060       -0.25700
H          7.34120        2.57860        1.06460
H          7.74540        0.18090        0.70310
H          4.17790       -2.00130       -0.64900
H          3.93020       -3.06990        0.75580
H          5.47160       -4.75200       -0.26930
H          5.70250       -3.69520       -1.66440
H          4.11380       -4.40610       -1.34750
H          3.20500        1.72620        1.78740
H          7.11230        3.14460        3.43990
H          8.67730        7.13820        5.60510
H         12.62310        8.44430        7.30190
H         12.26580       10.81770        7.63300
H         12.09810       12.82950        8.30220
H         11.06560       14.25900        8.16760
H         12.32740       13.88300        6.03100
H         11.57090       12.29320        5.86870
H         10.58100       13.75010        5.79340
H          8.46000        7.70570        7.98920
H         13.47880        2.28990        6.58030
H         13.79990       -0.10780        6.33440
H         14.21660       -2.19430        6.17940
H         13.50410       -3.74150        5.70440
H         13.07550       -1.11520        4.17970
H         12.41860       -2.69160        3.73850
H         14.16370       -2.41510        3.67680
H          9.34610        1.65120        7.50530
H         13.32990        2.91220        9.02900
H         14.35900        4.88890       10.38200
