
  xtb     03082208023D
 energy: -552.272123447224 gnorm: 0.000361155582 xtb: 6.4.1 (unknown)
298325  0     0  0            999 V2000
   -7.8280   -3.3283   10.2459 C   0  0  0  0  0  0  0  0  0  0  0  0
   -7.9341   -4.2498    9.2676 C   0  0  0  0  0  0  0  0  0  0  0  0
   -6.7679   -4.3298    8.4486 C   0  0  0  0  0  0  0  0  0  0  0  0
   -6.5368   -5.1681    7.3468 C   0  0  0  0  0  0  0  0  0  0  0  0
   -7.5102   -6.1871    6.9348 C   0  0  0  0  0  0  0  0  0  0  0  0
   -7.9202   -6.2997    5.6104 C   0  0  0  0  0  0  0  0  0  0  0  0
   -8.8210   -7.2717    5.2188 C   0  0  0  0  0  0  0  0  0  0  0  0
   -9.3456   -8.1696    6.1410 C   0  0  0  0  0  0  0  0  0  0  0  0
  -10.4786   -9.4706    5.7895 S   0  0  0  0  0  0  0  0  0  0  0  0
  -10.9704   -9.1915    4.0540 C   0  0  0  0  0  0  0  0  0  0  0  0
  -11.9286   -8.0244    3.9050 C   0  0  0  0  0  0  0  0  0  0  0  0
   -8.9189   -8.0491    7.4657 C   0  0  0  0  0  0  0  0  0  0  0  0
   -9.3978   -8.9102    8.3869 F   0  0  0  0  0  0  0  0  0  0  0  0
   -8.0237   -7.0855    7.8690 C   0  0  0  0  0  0  0  0  0  0  0  0
   -5.3310   -5.0010    6.6799 C   0  0  0  0  0  0  0  0  0  0  0  0
   -4.3414   -4.0824    7.1054 C   0  0  0  0  0  0  0  0  0  0  0  0
   -4.5587   -3.2647    8.2258 C   0  0  0  0  0  0  0  0  0  0  0  0
   -3.5151   -2.3289    8.6637 C   0  0  0  0  0  0  0  0  0  0  0  0
   -3.7734   -0.9697    8.8252 C   0  0  0  0  0  0  0  0  0  0  0  0
   -2.7490   -0.0922    9.1162 C   0  0  0  0  0  0  0  0  0  0  0  0
   -1.4395   -0.5364    9.2791 C   0  0  0  0  0  0  0  0  0  0  0  0
   -0.1725    0.6602    9.5859 S   0  0  0  0  0  0  0  0  0  0  0  0
    1.1729    0.1216    8.4649 C   0  0  0  0  0  0  0  0  0  0  0  0
    0.7086    0.0572    7.0246 C   0  0  0  0  0  0  0  0  0  0  0  0
   -1.2118   -1.9078    9.2014 C   0  0  0  0  0  0  0  0  0  0  0  0
   -2.2200   -2.7922    8.8786 C   0  0  0  0  0  0  0  0  0  0  0  0
    0.0148   -2.4171    9.4297 F   0  0  0  0  0  0  0  0  0  0  0  0
   -5.7861   -3.3929    8.8560 C   0  0  0  0  0  0  0  0  0  0  0  0
   -6.3160   -2.4859   10.2484 S   0  0  0  0  0  0  0  0  0  0  0  0
   -3.2050   -4.1001    6.2604 C   0  0  0  0  0  0  0  0  0  0  0  0
   -3.2918   -5.0019    5.2411 C   0  0  0  0  0  0  0  0  0  0  0  0
   -4.8041   -5.8837    5.2677 S   0  0  0  0  0  0  0  0  0  0  0  0
   -2.2979   -5.2118    4.2355 C   0  0  0  0  0  0  0  0  0  0  0  0
   -1.0100   -4.7640    4.2877 C   0  0  0  0  0  0  0  0  0  0  0  0
   -0.2568   -5.0505    3.1251 C   0  0  0  0  0  0  0  0  0  0  0  0
    1.0579   -4.6452    2.8409 C   0  0  0  0  0  0  0  0  0  0  0  0
    1.8567   -3.8803    3.8067 C   0  0  0  0  0  0  0  0  0  0  0  0
    2.4853   -2.6979    3.4240 C   0  0  0  0  0  0  0  0  0  0  0  0
    3.2234   -1.9497    4.3195 C   0  0  0  0  0  0  0  0  0  0  0  0
    3.3613   -2.3564    5.6417 C   0  0  0  0  0  0  0  0  0  0  0  0
    4.2590   -1.4961    6.8865 S   0  0  0  0  0  0  0  0  0  0  0  0
    5.1370   -0.1641    5.9967 C   0  0  0  0  0  0  0  0  0  0  0  0
    4.2953    1.0820    5.8019 C   0  0  0  0  0  0  0  0  0  0  0  0
    2.7284   -3.5458    6.0140 C   0  0  0  0  0  0  0  0  0  0  0  0
    2.8443   -3.9794    7.2851 F   0  0  0  0  0  0  0  0  0  0  0  0
    1.9925   -4.3015    5.1292 C   0  0  0  0  0  0  0  0  0  0  0  0
    1.5273   -4.9396    1.5697 C   0  0  0  0  0  0  0  0  0  0  0  0
    0.7477   -5.5926    0.5807 C   0  0  0  0  0  0  0  0  0  0  0  0
   -0.5701   -5.9993    0.8699 C   0  0  0  0  0  0  0  0  0  0  0  0
   -1.4376   -6.5782   -0.1623 C   0  0  0  0  0  0  0  0  0  0  0  0
   -1.5751   -5.9488   -1.3976 C   0  0  0  0  0  0  0  0  0  0  0  0
   -2.4214   -6.4487   -2.3684 C   0  0  0  0  0  0  0  0  0  0  0  0
   -3.1597   -7.6032   -2.1415 C   0  0  0  0  0  0  0  0  0  0  0  0
   -4.3006   -8.3168   -3.2757 S   0  0  0  0  0  0  0  0  0  0  0  0
   -4.1442   -7.3136   -4.7955 C   0  0  0  0  0  0  0  0  0  0  0  0
   -2.9091   -7.6610   -5.6042 C   0  0  0  0  0  0  0  0  0  0  0  0
   -3.0099   -8.2287   -0.9015 C   0  0  0  0  0  0  0  0  0  0  0  0
   -2.1775   -7.7348    0.0776 C   0  0  0  0  0  0  0  0  0  0  0  0
   -3.7127   -9.3491   -0.6481 F   0  0  0  0  0  0  0  0  0  0  0  0
   -1.0297   -5.7351    2.1507 C   0  0  0  0  0  0  0  0  0  0  0  0
   -2.6471   -6.0444    2.7363 S   0  0  0  0  0  0  0  0  0  0  0  0
    1.4420   -5.6966   -0.6454 C   0  0  0  0  0  0  0  0  0  0  0  0
    2.6897   -5.1339   -0.6301 C   0  0  0  0  0  0  0  0  0  0  0  0
    3.0974   -4.5154    0.9636 S   0  0  0  0  0  0  0  0  0  0  0  0
    3.4973   -4.7969   -1.7678 C   0  0  0  0  0  0  0  0  0  0  0  0
    4.6375   -4.0168   -1.6441 C   0  0  0  0  0  0  0  0  0  0  0  0
    5.2120   -3.8148   -0.4456 F   0  0  0  0  0  0  0  0  0  0  0  0
    5.1613   -3.2816   -2.7092 C   0  0  0  0  0  0  0  0  0  0  0  0
    6.1241   -2.3949   -2.3996 F   0  0  0  0  0  0  0  0  0  0  0  0
    4.5965   -3.2988   -3.9732 C   0  0  0  0  0  0  0  0  0  0  0  0
    3.6034   -4.2850   -4.2006 C   0  0  0  0  0  0  0  0  0  0  0  0
    3.1011   -4.4542   -5.4273 N   0  0  0  0  0  0  0  0  0  0  0  0
    2.2203   -5.4022   -5.6614 C   0  0  0  0  0  0  0  0  0  0  0  0
    1.6373   -5.4126   -7.0050 C   0  0  0  0  0  0  0  0  0  0  0  0
    2.3782   -4.8986   -8.0708 C   0  0  0  0  0  0  0  0  0  0  0  0
    1.8315   -4.8703   -9.3296 C   0  0  0  0  0  0  0  0  0  0  0  0
    0.5307   -5.3231   -9.6279 C   0  0  0  0  0  0  0  0  0  0  0  0
    0.1711   -5.2473  -10.9187 O   0  0  0  0  0  0  0  0  0  0  0  0
   -1.1557   -5.5150  -11.3510 C   0  0  0  0  0  0  0  0  0  0  0  0
   -2.1138   -4.3795  -11.0122 C   0  0  0  0  0  0  0  0  0  0  0  0
   -0.1845   -5.8082   -8.5279 C   0  0  0  0  0  0  0  0  0  0  0  0
    0.3427   -5.8550   -7.2526 C   0  0  0  0  0  0  0  0  0  0  0  0
   -1.4563   -6.2560   -8.6665 F   0  0  0  0  0  0  0  0  0  0  0  0
    2.5632   -4.3811  -10.3462 F   0  0  0  0  0  0  0  0  0  0  0  0
    1.8767   -6.3213   -4.6192 C   0  0  0  0  0  0  0  0  0  0  0  0
    2.2641   -6.0753   -3.3851 N   0  0  0  0  0  0  0  0  0  0  0  0
    3.0904   -5.0626   -3.1177 C   0  0  0  0  0  0  0  0  0  0  0  0
    1.1897   -7.5996   -4.8163 C   0  0  0  0  0  0  0  0  0  0  0  0
    1.3647   -8.3675   -5.9689 C   0  0  0  0  0  0  0  0  0  0  0  0
    0.7574   -9.5957   -6.0643 C   0  0  0  0  0  0  0  0  0  0  0  0
    0.9434  -10.3190   -7.1830 F   0  0  0  0  0  0  0  0  0  0  0  0
   -0.0425  -10.1629   -5.0515 C   0  0  0  0  0  0  0  0  0  0  0  0
   -0.5267  -11.3851   -5.3103 O   0  0  0  0  0  0  0  0  0  0  0  0
   -1.3523  -12.0896   -4.3890 C   0  0  0  0  0  0  0  0  0  0  0  0
   -2.8004  -11.6203   -4.4240 C   0  0  0  0  0  0  0  0  0  0  0  0
   -0.1821   -9.3676   -3.9090 C   0  0  0  0  0  0  0  0  0  0  0  0
   -0.9127   -9.7867   -2.8512 F   0  0  0  0  0  0  0  0  0  0  0  0
    0.4127   -8.1272   -3.7913 C   0  0  0  0  0  0  0  0  0  0  0  0
    4.8122   -2.1026   -4.7930 C   0  0  0  0  0  0  0  0  0  0  0  0
    6.0663   -1.5299   -4.9201 C   0  0  0  0  0  0  0  0  0  0  0  0
    7.1622   -2.2921   -4.8135 F   0  0  0  0  0  0  0  0  0  0  0  0
    6.2351   -0.1372   -4.9840 C   0  0  0  0  0  0  0  0  0  0  0  0
    7.4779    0.3537   -4.8624 F   0  0  0  0  0  0  0  0  0  0  0  0
    5.1552    0.7224   -5.0090 C   0  0  0  0  0  0  0  0  0  0  0  0
    3.8757    0.1375   -5.2353 C   0  0  0  0  0  0  0  0  0  0  0  0
    2.8274    0.9109   -5.5116 N   0  0  0  0  0  0  0  0  0  0  0  0
    1.6096    0.4137   -5.5136 C   0  0  0  0  0  0  0  0  0  0  0  0
    0.5565    1.3095   -5.9839 C   0  0  0  0  0  0  0  0  0  0  0  0
    0.7781    2.6819   -5.9110 C   0  0  0  0  0  0  0  0  0  0  0  0
   -0.1638    3.5755   -6.3701 C   0  0  0  0  0  0  0  0  0  0  0  0
   -1.3862    3.1717   -6.9203 C   0  0  0  0  0  0  0  0  0  0  0  0
   -2.3842    3.9346   -7.3800 O   0  0  0  0  0  0  0  0  0  0  0  0
   -2.3090    5.3567   -7.3071 C   0  0  0  0  0  0  0  0  0  0  0  0
   -3.6174    5.9036   -7.8488 C   0  0  0  0  0  0  0  0  0  0  0  0
   -1.5606    1.7764   -6.9995 C   0  0  0  0  0  0  0  0  0  0  0  0
   -0.6337    0.8617   -6.5586 C   0  0  0  0  0  0  0  0  0  0  0  0
   -2.7020    1.3203   -7.5483 F   0  0  0  0  0  0  0  0  0  0  0  0
    0.1505    4.8875   -6.2799 F   0  0  0  0  0  0  0  0  0  0  0  0
    1.4153   -0.9347   -5.0778 C   0  0  0  0  0  0  0  0  0  0  0  0
    2.4456   -1.7309   -4.9137 N   0  0  0  0  0  0  0  0  0  0  0  0
    3.6924   -1.2642   -5.0479 C   0  0  0  0  0  0  0  0  0  0  0  0
    0.1153   -1.5157   -4.7268 C   0  0  0  0  0  0  0  0  0  0  0  0
   -0.8258   -0.8256   -3.9736 C   0  0  0  0  0  0  0  0  0  0  0  0
   -2.0051   -1.4375   -3.5904 C   0  0  0  0  0  0  0  0  0  0  0  0
   -2.8574   -0.6943   -2.8486 F   0  0  0  0  0  0  0  0  0  0  0  0
   -2.3166   -2.7582   -3.9316 C   0  0  0  0  0  0  0  0  0  0  0  0
   -3.4163   -3.4840   -3.6557 O   0  0  0  0  0  0  0  0  0  0  0  0
   -4.4019   -3.0389   -2.7307 C   0  0  0  0  0  0  0  0  0  0  0  0
   -3.9344   -3.1454   -1.2849 C   0  0  0  0  0  0  0  0  0  0  0  0
   -1.3389   -3.4093   -4.7047 C   0  0  0  0  0  0  0  0  0  0  0  0
   -1.5922   -4.6805   -5.0762 F   0  0  0  0  0  0  0  0  0  0  0  0
   -0.1542   -2.8329   -5.0890 C   0  0  0  0  0  0  0  0  0  0  0  0
    5.1955    2.0401   -4.3988 C   0  0  0  0  0  0  0  0  0  0  0  0
    5.6342    2.1730   -3.1162 C   0  0  0  0  0  0  0  0  0  0  0  0
    5.1864    3.3590   -2.4834 C   0  0  0  0  0  0  0  0  0  0  0  0
    5.2239    3.6372   -1.1085 C   0  0  0  0  0  0  0  0  0  0  0  0
    5.7963    2.6692   -0.1641 C   0  0  0  0  0  0  0  0  0  0  0  0
    7.0846    2.1605   -0.2988 C   0  0  0  0  0  0  0  0  0  0  0  0
    7.5557    1.1761    0.5496 C   0  0  0  0  0  0  0  0  0  0  0  0
    6.7492    0.6534    1.5553 C   0  0  0  0  0  0  0  0  0  0  0  0
    7.2147   -0.6161    2.6842 S   0  0  0  0  0  0  0  0  0  0  0  0
    8.5709   -1.4887    1.8326 C   0  0  0  0  0  0  0  0  0  0  0  0
    8.0969   -2.2034    0.5832 C   0  0  0  0  0  0  0  0  0  0  0  0
    5.4719    1.1957    1.6937 C   0  0  0  0  0  0  0  0  0  0  0  0
    4.6576    0.7224    2.6609 F   0  0  0  0  0  0  0  0  0  0  0  0
    4.9921    2.1804    0.8639 C   0  0  0  0  0  0  0  0  0  0  0  0
    4.5415    4.7675   -0.6908 C   0  0  0  0  0  0  0  0  0  0  0  0
    3.8393    5.6266   -1.5736 C   0  0  0  0  0  0  0  0  0  0  0  0
    3.7597    5.3144   -2.9435 C   0  0  0  0  0  0  0  0  0  0  0  0
    2.9157    6.0854   -3.8637 C   0  0  0  0  0  0  0  0  0  0  0  0
    3.3937    6.4980   -5.1031 C   0  0  0  0  0  0  0  0  0  0  0  0
    2.5947    7.2057   -5.9809 C   0  0  0  0  0  0  0  0  0  0  0  0
    1.2816    7.5199   -5.6535 C   0  0  0  0  0  0  0  0  0  0  0  0
    0.1342    8.3726   -6.6794 S   0  0  0  0  0  0  0  0  0  0  0  0
    1.1316    8.9537   -8.0938 C   0  0  0  0  0  0  0  0  0  0  0  0
    2.0184   10.1305   -7.7322 C   0  0  0  0  0  0  0  0  0  0  0  0
    0.8097    7.0837   -4.4141 C   0  0  0  0  0  0  0  0  0  0  0  0
    1.5951    6.3846   -3.5284 C   0  0  0  0  0  0  0  0  0  0  0  0
   -0.4722    7.3400   -4.0766 F   0  0  0  0  0  0  0  0  0  0  0  0
    4.4367    4.1764   -3.3638 C   0  0  0  0  0  0  0  0  0  0  0  0
    4.2994    3.4297   -4.9433 S   0  0  0  0  0  0  0  0  0  0  0  0
    3.2179    6.6954   -0.8748 C   0  0  0  0  0  0  0  0  0  0  0  0
    3.3846    6.6345    0.4769 C   0  0  0  0  0  0  0  0  0  0  0  0
    4.3854    5.2823    0.9663 S   0  0  0  0  0  0  0  0  0  0  0  0
    2.7859    7.4469    1.4861 C   0  0  0  0  0  0  0  0  0  0  0  0
    2.7452    7.1845    2.8228 C   0  0  0  0  0  0  0  0  0  0  0  0
    1.9852    8.1240    3.5650 C   0  0  0  0  0  0  0  0  0  0  0  0
    1.6953    8.1107    4.9387 C   0  0  0  0  0  0  0  0  0  0  0  0
    2.0912    6.9905    5.8013 C   0  0  0  0  0  0  0  0  0  0  0  0
    1.8175    5.6748    5.4266 C   0  0  0  0  0  0  0  0  0  0  0  0
    2.1250    4.6247    6.2651 C   0  0  0  0  0  0  0  0  0  0  0  0
    2.7240    4.8407    7.5038 C   0  0  0  0  0  0  0  0  0  0  0  0
    3.0903    3.4283    8.5053 S   0  0  0  0  0  0  0  0  0  0  0  0
    2.5438    3.9320   10.1768 C   0  0  0  0  0  0  0  0  0  0  0  0
    1.0724    4.2905   10.2033 C   0  0  0  0  0  0  0  0  0  0  0  0
    3.0281    6.1540    7.8484 C   0  0  0  0  0  0  0  0  0  0  0  0
    3.6585    6.4327    9.0089 F   0  0  0  0  0  0  0  0  0  0  0  0
    2.7075    7.2165    7.0278 C   0  0  0  0  0  0  0  0  0  0  0  0
    0.9590    9.1826    5.4264 C   0  0  0  0  0  0  0  0  0  0  0  0
    0.4620   10.2204    4.6013 C   0  0  0  0  0  0  0  0  0  0  0  0
    0.7087   10.2045    3.2210 C   0  0  0  0  0  0  0  0  0  0  0  0
    0.1446   11.2170    2.3188 C   0  0  0  0  0  0  0  0  0  0  0  0
    0.9533   11.9122    1.4223 C   0  0  0  0  0  0  0  0  0  0  0  0
    0.4058   12.8283    0.5498 C   0  0  0  0  0  0  0  0  0  0  0  0
   -0.9625   13.0889    0.5367 C   0  0  0  0  0  0  0  0  0  0  0  0
   -1.5553   14.2996   -0.6095 S   0  0  0  0  0  0  0  0  0  0  0  0
   -3.0895   13.5483   -1.2708 C   0  0  0  0  0  0  0  0  0  0  0  0
   -2.8333   12.1913   -1.8945 C   0  0  0  0  0  0  0  0  0  0  0  0
   -1.7531   12.4099    1.4588 C   0  0  0  0  0  0  0  0  0  0  0  0
   -1.2211   11.4805    2.3293 C   0  0  0  0  0  0  0  0  0  0  0  0
   -3.0830   12.6386    1.5327 F   0  0  0  0  0  0  0  0  0  0  0  0
    1.4852    9.1614    2.7399 C   0  0  0  0  0  0  0  0  0  0  0  0
    1.9072    8.9037    1.0654 S   0  0  0  0  0  0  0  0  0  0  0  0
   -0.2661   11.1891    5.3548 C   0  0  0  0  0  0  0  0  0  0  0  0
   -0.3409   10.8855    6.6659 C   0  0  0  0  0  0  0  0  0  0  0  0
    0.4672    9.4144    7.0849 S   0  0  0  0  0  0  0  0  0  0  0  0
   -8.5568   -3.0705   10.9893 H   0  0  0  0  0  0  0  0  0  0  0  0
   -8.8107   -4.8508    9.1085 H   0  0  0  0  0  0  0  0  0  0  0  0
   -7.5439   -5.6072    4.8732 H   0  0  0  0  0  0  0  0  0  0  0  0
   -9.1042   -7.3242    4.1806 H   0  0  0  0  0  0  0  0  0  0  0  0
  -11.4557  -10.1264    3.7737 H   0  0  0  0  0  0  0  0  0  0  0  0
  -10.0703   -9.0754    3.4521 H   0  0  0  0  0  0  0  0  0  0  0  0
  -11.4715   -7.0955    4.2393 H   0  0  0  0  0  0  0  0  0  0  0  0
  -12.8233   -8.1972    4.4983 H   0  0  0  0  0  0  0  0  0  0  0  0
  -12.2186   -7.9142    2.8617 H   0  0  0  0  0  0  0  0  0  0  0  0
   -7.7117   -7.0557    8.9012 H   0  0  0  0  0  0  0  0  0  0  0  0
   -4.7745   -0.5945    8.6789 H   0  0  0  0  0  0  0  0  0  0  0  0
   -2.9452    0.9650    9.2050 H   0  0  0  0  0  0  0  0  0  0  0  0
    1.5682   -0.8314    8.8087 H   0  0  0  0  0  0  0  0  0  0  0  0
    1.9354    0.8892    8.5943 H   0  0  0  0  0  0  0  0  0  0  0  0
    1.5450   -0.2155    6.3860 H   0  0  0  0  0  0  0  0  0  0  0  0
    0.3186    1.0214    6.7042 H   0  0  0  0  0  0  0  0  0  0  0  0
   -0.0735   -0.6904    6.8978 H   0  0  0  0  0  0  0  0  0  0  0  0
   -1.9901   -3.8451    8.8209 H   0  0  0  0  0  0  0  0  0  0  0  0
   -2.3694   -3.4378    6.3883 H   0  0  0  0  0  0  0  0  0  0  0  0
   -0.6085   -4.2269    5.1262 H   0  0  0  0  0  0  0  0  0  0  0  0
    2.3777   -2.3361    2.4134 H   0  0  0  0  0  0  0  0  0  0  0  0
    3.6912   -1.0446    3.9744 H   0  0  0  0  0  0  0  0  0  0  0  0
    5.9879    0.0515    6.6428 H   0  0  0  0  0  0  0  0  0  0  0  0
    5.5060   -0.5674    5.0553 H   0  0  0  0  0  0  0  0  0  0  0  0
    3.9459    1.4609    6.7592 H   0  0  0  0  0  0  0  0  0  0  0  0
    3.4353    0.8834    5.1677 H   0  0  0  0  0  0  0  0  0  0  0  0
    4.8976    1.8519    5.3246 H   0  0  0  0  0  0  0  0  0  0  0  0
    1.5543   -5.2273    5.4684 H   0  0  0  0  0  0  0  0  0  0  0  0
   -1.0351   -5.0336   -1.5940 H   0  0  0  0  0  0  0  0  0  0  0  0
   -2.5132   -5.9209   -3.3004 H   0  0  0  0  0  0  0  0  0  0  0  0
   -4.1734   -6.2600   -4.5234 H   0  0  0  0  0  0  0  0  0  0  0  0
   -5.0498   -7.5567   -5.3515 H   0  0  0  0  0  0  0  0  0  0  0  0
   -2.0040   -7.4704   -5.0322 H   0  0  0  0  0  0  0  0  0  0  0  0
   -2.9233   -8.7099   -5.8906 H   0  0  0  0  0  0  0  0  0  0  0  0
   -2.8825   -7.0562   -6.5077 H   0  0  0  0  0  0  0  0  0  0  0  0
   -2.0979   -8.2644    1.0135 H   0  0  0  0  0  0  0  0  0  0  0  0
    1.0418   -6.1479   -1.5312 H   0  0  0  0  0  0  0  0  0  0  0  0
    3.3759   -4.5268   -7.9061 H   0  0  0  0  0  0  0  0  0  0  0  0
   -1.0548   -5.6072  -12.4354 H   0  0  0  0  0  0  0  0  0  0  0  0
   -1.5158   -6.4670  -10.9514 H   0  0  0  0  0  0  0  0  0  0  0  0
   -3.0780   -4.5734  -11.4725 H   0  0  0  0  0  0  0  0  0  0  0  0
   -1.7228   -3.4387  -11.3926 H   0  0  0  0  0  0  0  0  0  0  0  0
   -2.2555   -4.2913   -9.9382 H   0  0  0  0  0  0  0  0  0  0  0  0
   -0.2880   -6.2251   -6.4622 H   0  0  0  0  0  0  0  0  0  0  0  0
    1.9880   -8.0327   -6.7819 H   0  0  0  0  0  0  0  0  0  0  0  0
   -0.9458  -12.0332   -3.3758 H   0  0  0  0  0  0  0  0  0  0  0  0
   -1.2871  -13.1248   -4.7348 H   0  0  0  0  0  0  0  0  0  0  0  0
   -3.1708  -11.6343   -5.4465 H   0  0  0  0  0  0  0  0  0  0  0  0
   -3.4072  -12.2885   -3.8205 H   0  0  0  0  0  0  0  0  0  0  0  0
   -2.9028  -10.6169   -4.0211 H   0  0  0  0  0  0  0  0  0  0  0  0
    0.2546   -7.5757   -2.8800 H   0  0  0  0  0  0  0  0  0  0  0  0
    1.6997    3.0610   -5.5008 H   0  0  0  0  0  0  0  0  0  0  0  0
   -1.4672    5.7189   -7.9075 H   0  0  0  0  0  0  0  0  0  0  0  0
   -2.1640    5.6761   -6.2694 H   0  0  0  0  0  0  0  0  0  0  0  0
   -4.4498    5.5388   -7.2536 H   0  0  0  0  0  0  0  0  0  0  0  0
   -3.5975    6.9883   -7.8085 H   0  0  0  0  0  0  0  0  0  0  0  0
   -3.7604    5.5836   -8.8773 H   0  0  0  0  0  0  0  0  0  0  0  0
   -0.8405   -0.1878   -6.6898 H   0  0  0  0  0  0  0  0  0  0  0  0
   -0.6546    0.1921   -3.6599 H   0  0  0  0  0  0  0  0  0  0  0  0
   -4.7270   -2.0222   -2.9664 H   0  0  0  0  0  0  0  0  0  0  0  0
   -5.2380   -3.7214   -2.9035 H   0  0  0  0  0  0  0  0  0  0  0  0
   -4.7540   -2.8784   -0.6248 H   0  0  0  0  0  0  0  0  0  0  0  0
   -3.6203   -4.1634   -1.0645 H   0  0  0  0  0  0  0  0  0  0  0  0
   -3.1032   -2.4722   -1.0907 H   0  0  0  0  0  0  0  0  0  0  0  0
    0.5578   -3.3907   -5.6730 H   0  0  0  0  0  0  0  0  0  0  0  0
    6.1706    1.3965   -2.6013 H   0  0  0  0  0  0  0  0  0  0  0  0
    7.7331    2.5487   -1.0698 H   0  0  0  0  0  0  0  0  0  0  0  0
    8.5623    0.8132    0.4184 H   0  0  0  0  0  0  0  0  0  0  0  0
    8.9188   -2.2010    2.5810 H   0  0  0  0  0  0  0  0  0  0  0  0
    9.3718   -0.7774    1.6326 H   0  0  0  0  0  0  0  0  0  0  0  0
    7.7308   -1.4999   -0.1616 H   0  0  0  0  0  0  0  0  0  0  0  0
    7.2918   -2.8928    0.8248 H   0  0  0  0  0  0  0  0  0  0  0  0
    8.9195   -2.7669    0.1479 H   0  0  0  0  0  0  0  0  0  0  0  0
    3.9822    2.5332    1.0004 H   0  0  0  0  0  0  0  0  0  0  0  0
    4.4124    6.2756   -5.3819 H   0  0  0  0  0  0  0  0  0  0  0  0
    3.0082    7.5000   -6.9312 H   0  0  0  0  0  0  0  0  0  0  0  0
    1.6952    8.1094   -8.4883 H   0  0  0  0  0  0  0  0  0  0  0  0
    0.3845    9.2470   -8.8315 H   0  0  0  0  0  0  0  0  0  0  0  0
    2.5768   10.4560   -8.6077 H   0  0  0  0  0  0  0  0  0  0  0  0
    2.7240    9.8647   -6.9482 H   0  0  0  0  0  0  0  0  0  0  0  0
    1.4120   10.9608   -7.3783 H   0  0  0  0  0  0  0  0  0  0  0  0
    1.1655    6.0483   -2.5978 H   0  0  0  0  0  0  0  0  0  0  0  0
    2.6534    7.4763   -1.3521 H   0  0  0  0  0  0  0  0  0  0  0  0
    3.2444    6.3403    3.2644 H   0  0  0  0  0  0  0  0  0  0  0  0
    1.3233    5.4800    4.4870 H   0  0  0  0  0  0  0  0  0  0  0  0
    1.8977    3.6101    5.9776 H   0  0  0  0  0  0  0  0  0  0  0  0
    3.1744    4.7494   10.5197 H   0  0  0  0  0  0  0  0  0  0  0  0
    2.7429    3.0486   10.7834 H   0  0  0  0  0  0  0  0  0  0  0  0
    0.8703    5.1550    9.5724 H   0  0  0  0  0  0  0  0  0  0  0  0
    0.7764    4.5312   11.2220 H   0  0  0  0  0  0  0  0  0  0  0  0
    0.4703    3.4534    9.8562 H   0  0  0  0  0  0  0  0  0  0  0  0
    2.9713    8.2127    7.3461 H   0  0  0  0  0  0  0  0  0  0  0  0
    2.0180   11.7369    1.4151 H   0  0  0  0  0  0  0  0  0  0  0  0
    1.0333   13.3621   -0.1466 H   0  0  0  0  0  0  0  0  0  0  0  0
   -3.8311   13.4999   -0.4765 H   0  0  0  0  0  0  0  0  0  0  0  0
   -3.4174   14.2702   -2.0188 H   0  0  0  0  0  0  0  0  0  0  0  0
   -3.7507   11.8153   -2.3425 H   0  0  0  0  0  0  0  0  0  0  0  0
   -2.4990   11.4752   -1.1459 H   0  0  0  0  0  0  0  0  0  0  0  0
   -2.0707   12.2620   -2.6671 H   0  0  0  0  0  0  0  0  0  0  0  0
   -1.8834   10.9592    3.0035 H   0  0  0  0  0  0  0  0  0  0  0  0
   -0.6946   12.0741    4.9210 H   0  0  0  0  0  0  0  0  0  0  0  0
   -0.8233   11.4422    7.4454 H   0  0  0  0  0  0  0  0  0  0  0  0
  1  2  2  0  0  0  0
  2  3  1  0  0  0  0
  3  4  2  0  0  0  0
  4  5  1  0  0  0  0
  5  6  2  0  0  0  0
  6  7  1  0  0  0  0
  7  8  2  0  0  0  0
  8  9  1  0  0  0  0
  9 10  1  0  0  0  0
 10 11  1  0  0  0  0
  8 12  1  0  0  0  0
 12 13  1  0  0  0  0
 12 14  2  0  0  0  0
  4 15  1  0  0  0  0
 15 16  2  0  0  0  0
 16 17  1  0  0  0  0
 17 18  1  0  0  0  0
 18 19  2  0  0  0  0
 19 20  1  0  0  0  0
 20 21  2  0  0  0  0
 21 22  1  0  0  0  0
 22 23  1  0  0  0  0
 23 24  1  0  0  0  0
 21 25  1  0  0  0  0
 25 26  2  0  0  0  0
 25 27  1  0  0  0  0
 17 28  2  0  0  0  0
 28 29  1  0  0  0  0
 16 30  1  0  0  0  0
 30 31  2  0  0  0  0
 31 32  1  0  0  0  0
 31 33  1  0  0  0  0
 33 34  2  0  0  0  0
 34 35  1  0  0  0  0
 35 36  2  0  0  0  0
 36 37  1  0  0  0  0
 37 38  2  0  0  0  0
 38 39  1  0  0  0  0
 39 40  2  0  0  0  0
 40 41  1  0  0  0  0
 41 42  1  0  0  0  0
 42 43  1  0  0  0  0
 40 44  1  0  0  0  0
 44 45  1  0  0  0  0
 44 46  2  0  0  0  0
 36 47  1  0  0  0  0
 47 48  2  0  0  0  0
 48 49  1  0  0  0  0
 49 50  1  0  0  0  0
 50 51  2  0  0  0  0
 51 52  1  0  0  0  0
 52 53  2  0  0  0  0
 53 54  1  0  0  0  0
 54 55  1  0  0  0  0
 55 56  1  0  0  0  0
 53 57  1  0  0  0  0
 57 58  2  0  0  0  0
 57 59  1  0  0  0  0
 49 60  2  0  0  0  0
 60 61  1  0  0  0  0
 48 62  1  0  0  0  0
 62 63  2  0  0  0  0
 63 64  1  0  0  0  0
 63 65  1  0  0  0  0
 65 66  2  0  0  0  0
 66 67  1  0  0  0  0
 66 68  1  0  0  0  0
 68 69  1  0  0  0  0
 68 70  2  0  0  0  0
 70 71  1  0  0  0  0
 71 72  2  0  0  0  0
 72 73  1  0  0  0  0
 73 74  1  0  0  0  0
 74 75  2  0  0  0  0
 75 76  1  0  0  0  0
 76 77  2  0  0  0  0
 77 78  1  0  0  0  0
 78 79  1  0  0  0  0
 79 80  1  0  0  0  0
 77 81  1  0  0  0  0
 81 82  2  0  0  0  0
 81 83  1  0  0  0  0
 76 84  1  0  0  0  0
 73 85  2  0  0  0  0
 85 86  1  0  0  0  0
 86 87  2  0  0  0  0
 85 88  1  0  0  0  0
 88 89  2  0  0  0  0
 89 90  1  0  0  0  0
 90 91  1  0  0  0  0
 90 92  2  0  0  0  0
 92 93  1  0  0  0  0
 93 94  1  0  0  0  0
 94 95  1  0  0  0  0
 92 96  1  0  0  0  0
 96 97  1  0  0  0  0
 96 98  2  0  0  0  0
 70 99  1  0  0  0  0
 99100  2  0  0  0  0
100101  1  0  0  0  0
100102  1  0  0  0  0
102103  1  0  0  0  0
102104  2  0  0  0  0
104105  1  0  0  0  0
105106  2  0  0  0  0
106107  1  0  0  0  0
107108  1  0  0  0  0
108109  2  0  0  0  0
109110  1  0  0  0  0
110111  2  0  0  0  0
111112  1  0  0  0  0
112113  1  0  0  0  0
113114  1  0  0  0  0
111115  1  0  0  0  0
115116  2  0  0  0  0
115117  1  0  0  0  0
110118  1  0  0  0  0
107119  2  0  0  0  0
119120  1  0  0  0  0
120121  2  0  0  0  0
119122  1  0  0  0  0
122123  2  0  0  0  0
123124  1  0  0  0  0
124125  1  0  0  0  0
124126  2  0  0  0  0
126127  1  0  0  0  0
127128  1  0  0  0  0
128129  1  0  0  0  0
126130  1  0  0  0  0
130131  1  0  0  0  0
130132  2  0  0  0  0
104133  1  0  0  0  0
133134  2  0  0  0  0
134135  1  0  0  0  0
135136  2  0  0  0  0
136137  1  0  0  0  0
137138  2  0  0  0  0
138139  1  0  0  0  0
139140  2  0  0  0  0
140141  1  0  0  0  0
141142  1  0  0  0  0
142143  1  0  0  0  0
140144  1  0  0  0  0
144145  1  0  0  0  0
144146  2  0  0  0  0
136147  1  0  0  0  0
147148  2  0  0  0  0
148149  1  0  0  0  0
149150  1  0  0  0  0
150151  2  0  0  0  0
151152  1  0  0  0  0
152153  2  0  0  0  0
153154  1  0  0  0  0
154155  1  0  0  0  0
155156  1  0  0  0  0
153157  1  0  0  0  0
157158  2  0  0  0  0
157159  1  0  0  0  0
149160  2  0  0  0  0
160161  1  0  0  0  0
148162  1  0  0  0  0
162163  2  0  0  0  0
163164  1  0  0  0  0
163165  1  0  0  0  0
165166  2  0  0  0  0
166167  1  0  0  0  0
167168  2  0  0  0  0
168169  1  0  0  0  0
169170  2  0  0  0  0
170171  1  0  0  0  0
171172  2  0  0  0  0
172173  1  0  0  0  0
173174  1  0  0  0  0
174175  1  0  0  0  0
172176  1  0  0  0  0
176177  1  0  0  0  0
176178  2  0  0  0  0
168179  1  0  0  0  0
179180  2  0  0  0  0
180181  1  0  0  0  0
181182  1  0  0  0  0
182183  2  0  0  0  0
183184  1  0  0  0  0
184185  2  0  0  0  0
185186  1  0  0  0  0
186187  1  0  0  0  0
187188  1  0  0  0  0
185189  1  0  0  0  0
189190  2  0  0  0  0
189191  1  0  0  0  0
181192  2  0  0  0  0
192193  1  0  0  0  0
180194  1  0  0  0  0
194195  2  0  0  0  0
195196  1  0  0  0  0
 29  1  1  0  0  0  0
 61 33  1  0  0  0  0
 87 65  1  0  0  0  0
 98 88  1  0  0  0  0
121 99  1  0  0  0  0
132122  1  0  0  0  0
161133  1  0  0  0  0
193165  1  0  0  0  0
 28  3  1  0  0  0  0
 60 35  1  0  0  0  0
 87 71  1  0  0  0  0
121105  1  0  0  0  0
160135  1  0  0  0  0
192167  1  0  0  0  0
 14  5  1  0  0  0  0
 32 15  1  0  0  0  0
 46 37  1  0  0  0  0
 64 47  1  0  0  0  0
 82 74  1  0  0  0  0
116108  1  0  0  0  0
146137  1  0  0  0  0
164147  1  0  0  0  0
178169  1  0  0  0  0
196179  1  0  0  0  0
 26 18  1  0  0  0  0
 58 50  1  0  0  0  0
158150  1  0  0  0  0
190182  1  0  0  0  0
  1197  1  0  0  0  0
  2198  1  0  0  0  0
  6199  1  0  0  0  0
  7200  1  0  0  0  0
 10201  1  0  0  0  0
 10202  1  0  0  0  0
 11203  1  0  0  0  0
 11204  1  0  0  0  0
 11205  1  0  0  0  0
 14206  1  0  0  0  0
 19207  1  0  0  0  0
 20208  1  0  0  0  0
 23209  1  0  0  0  0
 23210  1  0  0  0  0
 24211  1  0  0  0  0
 24212  1  0  0  0  0
 24213  1  0  0  0  0
 26214  1  0  0  0  0
 30215  1  0  0  0  0
 34216  1  0  0  0  0
 38217  1  0  0  0  0
 39218  1  0  0  0  0
 42219  1  0  0  0  0
 42220  1  0  0  0  0
 43221  1  0  0  0  0
 43222  1  0  0  0  0
 43223  1  0  0  0  0
 46224  1  0  0  0  0
 51225  1  0  0  0  0
 52226  1  0  0  0  0
 55227  1  0  0  0  0
 55228  1  0  0  0  0
 56229  1  0  0  0  0
 56230  1  0  0  0  0
 56231  1  0  0  0  0
 58232  1  0  0  0  0
 62233  1  0  0  0  0
 75234  1  0  0  0  0
 79235  1  0  0  0  0
 79236  1  0  0  0  0
 80237  1  0  0  0  0
 80238  1  0  0  0  0
 80239  1  0  0  0  0
 82240  1  0  0  0  0
 89241  1  0  0  0  0
 94242  1  0  0  0  0
 94243  1  0  0  0  0
 95244  1  0  0  0  0
 95245  1  0  0  0  0
 95246  1  0  0  0  0
 98247  1  0  0  0  0
109248  1  0  0  0  0
113249  1  0  0  0  0
113250  1  0  0  0  0
114251  1  0  0  0  0
114252  1  0  0  0  0
114253  1  0  0  0  0
116254  1  0  0  0  0
123255  1  0  0  0  0
128256  1  0  0  0  0
128257  1  0  0  0  0
129258  1  0  0  0  0
129259  1  0  0  0  0
129260  1  0  0  0  0
132261  1  0  0  0  0
134262  1  0  0  0  0
138263  1  0  0  0  0
139264  1  0  0  0  0
142265  1  0  0  0  0
142266  1  0  0  0  0
143267  1  0  0  0  0
143268  1  0  0  0  0
143269  1  0  0  0  0
146270  1  0  0  0  0
151271  1  0  0  0  0
152272  1  0  0  0  0
155273  1  0  0  0  0
155274  1  0  0  0  0
156275  1  0  0  0  0
156276  1  0  0  0  0
156277  1  0  0  0  0
158278  1  0  0  0  0
162279  1  0  0  0  0
166280  1  0  0  0  0
170281  1  0  0  0  0
171282  1  0  0  0  0
174283  1  0  0  0  0
174284  1  0  0  0  0
175285  1  0  0  0  0
175286  1  0  0  0  0
175287  1  0  0  0  0
178288  1  0  0  0  0
183289  1  0  0  0  0
184290  1  0  0  0  0
187291  1  0  0  0  0
187292  1  0  0  0  0
188293  1  0  0  0  0
188294  1  0  0  0  0
188295  1  0  0  0  0
190296  1  0  0  0  0
194297  1  0  0  0  0
195298  1  0  0  0  0
M  END
