200

C          8.72730       -1.62210       10.24580
C          8.23290       -1.24780        9.04870
C          6.81940       -1.40950        8.95940
C          5.97950       -1.16400        7.86300
C          6.45770       -0.54990        6.63630
S          6.08580       -1.23190        5.07780
C          6.88550        0.05100        4.23990
C          6.86720        0.13720        2.75530
C          5.63780        0.91740        2.28470
C          7.40260        0.94800        5.12610
Cl         8.25580        2.36180        4.65940
C          7.16670        0.61010        6.48540
Cl         7.64770        1.62550        7.78300
C          4.64600       -1.53020        7.99990
C          4.10760       -2.09080        9.18170
C          4.93620       -2.27820       10.29970
C          4.42700       -2.82080       11.54870
S          3.59310       -4.34630       11.60470
C          3.40230       -4.27110       13.32310
C          2.67170       -5.33230       14.06940
C          1.16870       -5.04440       14.10050
C          3.94420       -3.11860       13.80760
C          4.53180       -2.29780       12.80740
Cl         5.22170       -0.76970       13.16120
Cl         3.93650       -2.68360       15.46710
C          6.27840       -1.94160       10.15460
S          7.52270       -2.19510       11.34570
C          2.72030       -2.36330        9.04580
C          2.21760       -2.06350        7.81570
S          3.43230       -1.34990        6.77240
C          0.85330       -2.21560        7.38090
C          0.42820       -2.29940        6.11340
C          1.29350       -2.40760        4.94590
C          1.13860       -1.68110        3.79720
S          2.31930       -2.04990        2.61170
C          3.04640       -3.24950        3.64750
C          2.38440       -3.30800        4.84380
C          4.21340       -4.01390        3.30590
C          4.81730       -4.09010        2.11480
C          4.32840       -3.43150        0.91060
C          3.32690       -3.83130        0.09260
C          3.04510       -2.91510       -0.95930
C          2.02150       -2.98250       -1.91890
C          1.19110       -4.16550       -2.05710
S         -0.54350       -4.06210       -2.12010
C         -0.72010       -5.77330       -2.28220
C         -2.06450       -6.41090       -2.36310
C         -2.37900       -7.22530       -1.10700
C          0.50360       -6.37630       -2.30000
Cl         0.73750       -8.06620       -2.48640
C          1.58840       -5.47040       -2.17000
Cl         3.22560       -5.97910       -2.24080
C          1.82550       -1.85450       -2.70760
C          2.63950       -0.70090       -2.61160
C          3.69800       -0.65600       -1.69070
C          4.51310        0.53920       -1.53960
S          6.24630        0.47240       -1.65890
C          6.40970        2.17460       -1.37930
C          7.75080        2.81720       -1.31310
C          8.45230        2.49300        0.00760
C          5.18440        2.74190       -1.19550
C          4.10640        1.82060       -1.28920
Cl         2.47530        2.29100       -1.02400
Cl         4.93660        4.40920       -0.87950
C          3.87910       -1.77490       -0.89030
S          5.03380       -1.91050        0.40170
C          2.20570        0.32600       -3.48440
C          1.08490        0.00160       -4.18680
S          0.56200       -1.64170       -3.88780
C          0.26930        0.93880       -4.89970
C          0.13870        2.24020       -4.51980
C         -0.84630        2.94600       -5.24870
C         -1.32540        4.24010       -4.99550
C         -0.73690        5.04680       -3.93790
S          0.97000        5.38160       -3.90060
C          0.84680        6.26290       -2.41670
C          2.03910        6.90280       -1.79690
C          2.27840        8.29820       -2.37710
C         -0.44840        6.29670       -1.99420
Cl        -0.96660        7.08020       -0.55840
C         -1.34700        5.60280       -2.84900
Cl        -3.00780        5.41130       -2.48030
C         -2.39940        4.67000       -5.76120
C         -2.97570        3.88610       -6.79210
C         -2.50020        2.58710       -7.03110
C         -3.09350        1.72720       -8.04550
S         -2.13430        1.08380       -9.34370
C         -3.48150        0.23530      -10.02050
C         -3.34970       -0.54330      -11.28270
C         -3.55170        0.35530      -12.50530
C         -4.60160        0.45130       -9.27490
C         -4.38330        1.29230       -8.15170
Cl        -5.60900        1.65510       -7.01220
Cl        -6.13270       -0.22510       -9.64160
C         -1.45210        2.13800       -6.23770
S         -0.79230        0.52270       -6.22520
C         -4.04240        4.57300       -7.43920
C         -4.31350        5.78500       -6.89700
S         -3.20210        6.19960       -5.60750
C         -5.40750        6.71700       -7.15360
C         -6.31010        6.98830       -6.20870
C         -6.34480        6.23520       -4.95580
C         -6.41680        6.75300       -3.69160
S         -6.33530        5.54670       -2.47310
C         -6.23760        4.28630       -3.67150
C         -6.26820        4.82300       -4.93150
C         -6.14880        2.89190       -3.38500
C         -5.84410        2.31510       -2.20770
C         -5.83150        0.89050       -2.04830
C         -6.48730       -0.03100       -2.81070
C         -6.28740       -1.36890       -2.39550
C         -6.82030       -2.53000       -2.97600
C         -7.69080       -2.46580       -4.13960
S         -7.19600       -1.68420       -5.61320
C         -8.69350       -2.04860       -6.40300
C         -8.96550       -1.58610       -7.79100
C         -9.21330       -0.07690       -7.82970
C         -9.51870       -2.72790       -5.55860
Cl       -11.09800       -3.25530       -5.97600
C         -8.95280       -2.97100       -4.27790
Cl        -9.82480       -3.74530       -3.02180
C         -6.48080       -3.74040       -2.38590
C         -5.64260       -3.83290       -1.25030
C         -5.10940       -2.66910       -0.66600
C         -4.19550       -2.76570        0.46080
S         -2.84000       -3.85300        0.37450
C         -2.27740       -3.42300        1.95010
C         -1.08860       -4.07980        2.56250
C         -0.03610       -4.47070        1.53180
C         -3.10020       -2.48320        2.49540
C         -4.18770       -2.10790        1.65970
Cl        -5.40220       -1.01590        2.18050
Cl        -2.86660       -1.80900        4.05530
C         -5.45420       -1.45460       -1.25120
S         -4.92870        0.12970       -0.75290
C         -5.47290       -5.18940       -0.84290
C         -6.10970       -6.06430       -1.64780
S         -6.97050       -5.31440       -2.94490
H          9.74880       -1.60230       10.57210
H          8.83940       -0.88530        8.23970
H          7.77370        0.64380        2.42010
H          6.84300       -0.86580        2.32780
H          4.72850        0.41620        2.60690
H          5.63130        0.98210        1.20120
H          5.64720        1.92320        2.69690
H          2.84760       -6.29800       13.59260
H          3.05660       -5.36930       15.09010
H          0.76940       -5.01180       13.08950
H          0.65110       -5.82220       14.65530
H          0.97870       -4.08820       14.58120
H          2.12310       -2.79110        9.83070
H          0.12540       -2.23440        8.18190
H         -0.63530       -2.30570        5.91500
H          0.40870       -0.92140        3.59600
H          2.65410       -3.99200        5.62890
H          4.63250       -4.56530        4.13730
H          5.72970       -4.66270        2.01330
H          2.77250       -4.73720        0.25280
H         -2.81850       -5.63350       -2.49280
H         -2.09160       -7.07250       -3.23280
H         -3.36280       -7.67640       -1.19860
H         -1.64460       -8.01410       -0.97110
H         -2.37090       -6.58330       -0.23020
H          8.36440        2.46150       -2.14320
H          7.62550        3.89680       -1.41020
H          7.86390        2.85440        0.84710
H          8.58250        1.41790        0.10690
H          9.42900        2.96800        0.03730
H          2.70130        1.27310       -3.58450
H          0.68330        2.66080       -3.69570
H          2.91690        6.27940       -1.97390
H          1.87500        6.97750       -0.72020
H          1.41610        8.93470       -2.19560
H          2.44650        8.23730       -3.44990
H          3.15010        8.75050       -1.91190
H         -4.09820       -1.33810      -11.28590
H         -2.35800       -0.99650      -11.32460
H         -3.45280       -0.22760      -13.41690
H         -2.80930        1.14980      -12.51610
H         -4.54170        0.80410      -12.48470
H         -4.61180        4.15050       -8.24780
H         -5.42850        7.21320       -8.11410
H         -7.06310        7.74870       -6.35920
H         -6.47460        7.78470       -3.40510
H         -6.24550        4.21840       -5.81960
H         -6.31840        2.25960       -4.24710
H         -5.58450        2.91940       -1.34940
H         -7.12850        0.23590       -3.62980
H         -8.11250       -1.82730       -8.42830
H         -9.84190       -2.11560       -8.16800
H         -9.41110        0.24240       -8.84950
H        -10.06840        0.18280       -7.21030
H         -8.34090        0.45710       -7.46110
H         -1.41610       -4.97490        3.10230
H         -0.65830       -3.39500        3.29600
H          0.82110       -4.91600        2.03050
H         -0.44060       -5.19120        0.82410
H          0.29890       -3.59610        0.97930
H         -4.91050       -5.48680        0.02190
H         -6.14630       -7.13260       -1.56070
