
  xtb     03012210323D
 energy: -385.764478646619 gnorm: 0.000336446500 xtb: 6.4.1 (unknown)
200221  0     0  0            999 V2000
    8.7273   -1.6221   10.2458 C   0  0  0  0  0  0  0  0  0  0  0  0
    8.2329   -1.2478    9.0487 C   0  0  0  0  0  0  0  0  0  0  0  0
    6.8194   -1.4095    8.9594 C   0  0  0  0  0  0  0  0  0  0  0  0
    5.9795   -1.1640    7.8630 C   0  0  0  0  0  0  0  0  0  0  0  0
    6.4577   -0.5499    6.6363 C   0  0  0  0  0  0  0  0  0  0  0  0
    6.0858   -1.2319    5.0778 S   0  0  0  0  0  0  0  0  0  0  0  0
    6.8855    0.0510    4.2399 C   0  0  0  0  0  0  0  0  0  0  0  0
    6.8672    0.1372    2.7553 C   0  0  0  0  0  0  0  0  0  0  0  0
    5.6378    0.9174    2.2847 C   0  0  0  0  0  0  0  0  0  0  0  0
    7.4026    0.9480    5.1261 C   0  0  0  0  0  0  0  0  0  0  0  0
    8.2558    2.3618    4.6594 Cl  0  0  0  0  0  0  0  0  0  0  0  0
    7.1667    0.6101    6.4854 C   0  0  0  0  0  0  0  0  0  0  0  0
    7.6477    1.6255    7.7830 Cl  0  0  0  0  0  0  0  0  0  0  0  0
    4.6460   -1.5302    7.9999 C   0  0  0  0  0  0  0  0  0  0  0  0
    4.1076   -2.0908    9.1817 C   0  0  0  0  0  0  0  0  0  0  0  0
    4.9362   -2.2782   10.2997 C   0  0  0  0  0  0  0  0  0  0  0  0
    4.4270   -2.8208   11.5487 C   0  0  0  0  0  0  0  0  0  0  0  0
    3.5931   -4.3463   11.6047 S   0  0  0  0  0  0  0  0  0  0  0  0
    3.4023   -4.2711   13.3231 C   0  0  0  0  0  0  0  0  0  0  0  0
    2.6717   -5.3323   14.0694 C   0  0  0  0  0  0  0  0  0  0  0  0
    1.1687   -5.0444   14.1005 C   0  0  0  0  0  0  0  0  0  0  0  0
    3.9442   -3.1186   13.8076 C   0  0  0  0  0  0  0  0  0  0  0  0
    4.5318   -2.2978   12.8074 C   0  0  0  0  0  0  0  0  0  0  0  0
    5.2217   -0.7697   13.1612 Cl  0  0  0  0  0  0  0  0  0  0  0  0
    3.9365   -2.6836   15.4671 Cl  0  0  0  0  0  0  0  0  0  0  0  0
    6.2784   -1.9416   10.1546 C   0  0  0  0  0  0  0  0  0  0  0  0
    7.5227   -2.1951   11.3457 S   0  0  0  0  0  0  0  0  0  0  0  0
    2.7203   -2.3633    9.0458 C   0  0  0  0  0  0  0  0  0  0  0  0
    2.2176   -2.0635    7.8157 C   0  0  0  0  0  0  0  0  0  0  0  0
    3.4323   -1.3499    6.7724 S   0  0  0  0  0  0  0  0  0  0  0  0
    0.8533   -2.2156    7.3809 C   0  0  0  0  0  0  0  0  0  0  0  0
    0.4282   -2.2994    6.1134 C   0  0  0  0  0  0  0  0  0  0  0  0
    1.2935   -2.4076    4.9459 C   0  0  0  0  0  0  0  0  0  0  0  0
    1.1386   -1.6811    3.7972 C   0  0  0  0  0  0  0  0  0  0  0  0
    2.3193   -2.0499    2.6117 S   0  0  0  0  0  0  0  0  0  0  0  0
    3.0464   -3.2495    3.6475 C   0  0  0  0  0  0  0  0  0  0  0  0
    2.3844   -3.3080    4.8438 C   0  0  0  0  0  0  0  0  0  0  0  0
    4.2134   -4.0139    3.3059 C   0  0  0  0  0  0  0  0  0  0  0  0
    4.8173   -4.0901    2.1148 C   0  0  0  0  0  0  0  0  0  0  0  0
    4.3284   -3.4315    0.9106 C   0  0  0  0  0  0  0  0  0  0  0  0
    3.3269   -3.8313    0.0926 C   0  0  0  0  0  0  0  0  0  0  0  0
    3.0451   -2.9151   -0.9593 C   0  0  0  0  0  0  0  0  0  0  0  0
    2.0215   -2.9825   -1.9189 C   0  0  0  0  0  0  0  0  0  0  0  0
    1.1911   -4.1655   -2.0571 C   0  0  0  0  0  0  0  0  0  0  0  0
   -0.5435   -4.0621   -2.1201 S   0  0  0  0  0  0  0  0  0  0  0  0
   -0.7201   -5.7733   -2.2822 C   0  0  0  0  0  0  0  0  0  0  0  0
   -2.0645   -6.4109   -2.3631 C   0  0  0  0  0  0  0  0  0  0  0  0
   -2.3790   -7.2253   -1.1070 C   0  0  0  0  0  0  0  0  0  0  0  0
    0.5036   -6.3763   -2.3000 C   0  0  0  0  0  0  0  0  0  0  0  0
    0.7375   -8.0662   -2.4864 Cl  0  0  0  0  0  0  0  0  0  0  0  0
    1.5884   -5.4704   -2.1700 C   0  0  0  0  0  0  0  0  0  0  0  0
    3.2256   -5.9791   -2.2408 Cl  0  0  0  0  0  0  0  0  0  0  0  0
    1.8255   -1.8545   -2.7076 C   0  0  0  0  0  0  0  0  0  0  0  0
    2.6395   -0.7009   -2.6116 C   0  0  0  0  0  0  0  0  0  0  0  0
    3.6980   -0.6560   -1.6907 C   0  0  0  0  0  0  0  0  0  0  0  0
    4.5131    0.5392   -1.5396 C   0  0  0  0  0  0  0  0  0  0  0  0
    6.2463    0.4724   -1.6589 S   0  0  0  0  0  0  0  0  0  0  0  0
    6.4097    2.1746   -1.3793 C   0  0  0  0  0  0  0  0  0  0  0  0
    7.7508    2.8172   -1.3131 C   0  0  0  0  0  0  0  0  0  0  0  0
    8.4523    2.4930    0.0076 C   0  0  0  0  0  0  0  0  0  0  0  0
    5.1844    2.7419   -1.1955 C   0  0  0  0  0  0  0  0  0  0  0  0
    4.1064    1.8206   -1.2892 C   0  0  0  0  0  0  0  0  0  0  0  0
    2.4753    2.2910   -1.0240 Cl  0  0  0  0  0  0  0  0  0  0  0  0
    4.9366    4.4092   -0.8795 Cl  0  0  0  0  0  0  0  0  0  0  0  0
    3.8791   -1.7749   -0.8903 C   0  0  0  0  0  0  0  0  0  0  0  0
    5.0338   -1.9105    0.4017 S   0  0  0  0  0  0  0  0  0  0  0  0
    2.2057    0.3260   -3.4844 C   0  0  0  0  0  0  0  0  0  0  0  0
    1.0849    0.0016   -4.1868 C   0  0  0  0  0  0  0  0  0  0  0  0
    0.5620   -1.6417   -3.8878 S   0  0  0  0  0  0  0  0  0  0  0  0
    0.2693    0.9388   -4.8997 C   0  0  0  0  0  0  0  0  0  0  0  0
    0.1387    2.2402   -4.5198 C   0  0  0  0  0  0  0  0  0  0  0  0
   -0.8463    2.9460   -5.2487 C   0  0  0  0  0  0  0  0  0  0  0  0
   -1.3254    4.2401   -4.9955 C   0  0  0  0  0  0  0  0  0  0  0  0
   -0.7369    5.0468   -3.9379 C   0  0  0  0  0  0  0  0  0  0  0  0
    0.9700    5.3816   -3.9006 S   0  0  0  0  0  0  0  0  0  0  0  0
    0.8468    6.2629   -2.4167 C   0  0  0  0  0  0  0  0  0  0  0  0
    2.0391    6.9028   -1.7969 C   0  0  0  0  0  0  0  0  0  0  0  0
    2.2784    8.2982   -2.3771 C   0  0  0  0  0  0  0  0  0  0  0  0
   -0.4484    6.2967   -1.9942 C   0  0  0  0  0  0  0  0  0  0  0  0
   -0.9666    7.0802   -0.5584 Cl  0  0  0  0  0  0  0  0  0  0  0  0
   -1.3470    5.6028   -2.8490 C   0  0  0  0  0  0  0  0  0  0  0  0
   -3.0078    5.4113   -2.4803 Cl  0  0  0  0  0  0  0  0  0  0  0  0
   -2.3994    4.6700   -5.7612 C   0  0  0  0  0  0  0  0  0  0  0  0
   -2.9757    3.8861   -6.7921 C   0  0  0  0  0  0  0  0  0  0  0  0
   -2.5002    2.5871   -7.0311 C   0  0  0  0  0  0  0  0  0  0  0  0
   -3.0935    1.7272   -8.0455 C   0  0  0  0  0  0  0  0  0  0  0  0
   -2.1343    1.0838   -9.3437 S   0  0  0  0  0  0  0  0  0  0  0  0
   -3.4815    0.2353  -10.0205 C   0  0  0  0  0  0  0  0  0  0  0  0
   -3.3497   -0.5433  -11.2827 C   0  0  0  0  0  0  0  0  0  0  0  0
   -3.5517    0.3553  -12.5053 C   0  0  0  0  0  0  0  0  0  0  0  0
   -4.6016    0.4513   -9.2749 C   0  0  0  0  0  0  0  0  0  0  0  0
   -4.3833    1.2923   -8.1517 C   0  0  0  0  0  0  0  0  0  0  0  0
   -5.6090    1.6551   -7.0122 Cl  0  0  0  0  0  0  0  0  0  0  0  0
   -6.1327   -0.2251   -9.6416 Cl  0  0  0  0  0  0  0  0  0  0  0  0
   -1.4521    2.1380   -6.2377 C   0  0  0  0  0  0  0  0  0  0  0  0
   -0.7923    0.5227   -6.2252 S   0  0  0  0  0  0  0  0  0  0  0  0
   -4.0424    4.5730   -7.4392 C   0  0  0  0  0  0  0  0  0  0  0  0
   -4.3135    5.7850   -6.8970 C   0  0  0  0  0  0  0  0  0  0  0  0
   -3.2021    6.1996   -5.6075 S   0  0  0  0  0  0  0  0  0  0  0  0
   -5.4075    6.7170   -7.1536 C   0  0  0  0  0  0  0  0  0  0  0  0
   -6.3101    6.9883   -6.2087 C   0  0  0  0  0  0  0  0  0  0  0  0
   -6.3448    6.2352   -4.9558 C   0  0  0  0  0  0  0  0  0  0  0  0
   -6.4168    6.7530   -3.6916 C   0  0  0  0  0  0  0  0  0  0  0  0
   -6.3353    5.5467   -2.4731 S   0  0  0  0  0  0  0  0  0  0  0  0
   -6.2376    4.2863   -3.6715 C   0  0  0  0  0  0  0  0  0  0  0  0
   -6.2682    4.8230   -4.9315 C   0  0  0  0  0  0  0  0  0  0  0  0
   -6.1488    2.8919   -3.3850 C   0  0  0  0  0  0  0  0  0  0  0  0
   -5.8441    2.3151   -2.2077 C   0  0  0  0  0  0  0  0  0  0  0  0
   -5.8315    0.8905   -2.0483 C   0  0  0  0  0  0  0  0  0  0  0  0
   -6.4873   -0.0310   -2.8107 C   0  0  0  0  0  0  0  0  0  0  0  0
   -6.2874   -1.3689   -2.3955 C   0  0  0  0  0  0  0  0  0  0  0  0
   -6.8203   -2.5300   -2.9760 C   0  0  0  0  0  0  0  0  0  0  0  0
   -7.6908   -2.4658   -4.1396 C   0  0  0  0  0  0  0  0  0  0  0  0
   -7.1960   -1.6842   -5.6132 S   0  0  0  0  0  0  0  0  0  0  0  0
   -8.6935   -2.0486   -6.4030 C   0  0  0  0  0  0  0  0  0  0  0  0
   -8.9655   -1.5861   -7.7910 C   0  0  0  0  0  0  0  0  0  0  0  0
   -9.2133   -0.0769   -7.8297 C   0  0  0  0  0  0  0  0  0  0  0  0
   -9.5187   -2.7279   -5.5586 C   0  0  0  0  0  0  0  0  0  0  0  0
  -11.0980   -3.2553   -5.9760 Cl  0  0  0  0  0  0  0  0  0  0  0  0
   -8.9528   -2.9710   -4.2779 C   0  0  0  0  0  0  0  0  0  0  0  0
   -9.8248   -3.7453   -3.0218 Cl  0  0  0  0  0  0  0  0  0  0  0  0
   -6.4808   -3.7404   -2.3859 C   0  0  0  0  0  0  0  0  0  0  0  0
   -5.6426   -3.8329   -1.2503 C   0  0  0  0  0  0  0  0  0  0  0  0
   -5.1094   -2.6691   -0.6660 C   0  0  0  0  0  0  0  0  0  0  0  0
   -4.1955   -2.7657    0.4608 C   0  0  0  0  0  0  0  0  0  0  0  0
   -2.8400   -3.8530    0.3745 S   0  0  0  0  0  0  0  0  0  0  0  0
   -2.2774   -3.4230    1.9501 C   0  0  0  0  0  0  0  0  0  0  0  0
   -1.0886   -4.0798    2.5625 C   0  0  0  0  0  0  0  0  0  0  0  0
   -0.0361   -4.4707    1.5318 C   0  0  0  0  0  0  0  0  0  0  0  0
   -3.1002   -2.4832    2.4954 C   0  0  0  0  0  0  0  0  0  0  0  0
   -4.1877   -2.1079    1.6597 C   0  0  0  0  0  0  0  0  0  0  0  0
   -5.4022   -1.0159    2.1805 Cl  0  0  0  0  0  0  0  0  0  0  0  0
   -2.8666   -1.8090    4.0553 Cl  0  0  0  0  0  0  0  0  0  0  0  0
   -5.4542   -1.4546   -1.2512 C   0  0  0  0  0  0  0  0  0  0  0  0
   -4.9287    0.1297   -0.7529 S   0  0  0  0  0  0  0  0  0  0  0  0
   -5.4729   -5.1894   -0.8429 C   0  0  0  0  0  0  0  0  0  0  0  0
   -6.1097   -6.0643   -1.6478 C   0  0  0  0  0  0  0  0  0  0  0  0
   -6.9705   -5.3144   -2.9449 S   0  0  0  0  0  0  0  0  0  0  0  0
    9.7488   -1.6023   10.5721 H   0  0  0  0  0  0  0  0  0  0  0  0
    8.8394   -0.8853    8.2397 H   0  0  0  0  0  0  0  0  0  0  0  0
    7.7737    0.6438    2.4201 H   0  0  0  0  0  0  0  0  0  0  0  0
    6.8430   -0.8658    2.3278 H   0  0  0  0  0  0  0  0  0  0  0  0
    4.7285    0.4162    2.6069 H   0  0  0  0  0  0  0  0  0  0  0  0
    5.6313    0.9821    1.2012 H   0  0  0  0  0  0  0  0  0  0  0  0
    5.6472    1.9232    2.6969 H   0  0  0  0  0  0  0  0  0  0  0  0
    2.8476   -6.2980   13.5926 H   0  0  0  0  0  0  0  0  0  0  0  0
    3.0566   -5.3693   15.0901 H   0  0  0  0  0  0  0  0  0  0  0  0
    0.7694   -5.0118   13.0895 H   0  0  0  0  0  0  0  0  0  0  0  0
    0.6511   -5.8222   14.6553 H   0  0  0  0  0  0  0  0  0  0  0  0
    0.9787   -4.0882   14.5812 H   0  0  0  0  0  0  0  0  0  0  0  0
    2.1231   -2.7911    9.8307 H   0  0  0  0  0  0  0  0  0  0  0  0
    0.1254   -2.2344    8.1819 H   0  0  0  0  0  0  0  0  0  0  0  0
   -0.6353   -2.3057    5.9150 H   0  0  0  0  0  0  0  0  0  0  0  0
    0.4087   -0.9214    3.5960 H   0  0  0  0  0  0  0  0  0  0  0  0
    2.6541   -3.9920    5.6289 H   0  0  0  0  0  0  0  0  0  0  0  0
    4.6325   -4.5653    4.1373 H   0  0  0  0  0  0  0  0  0  0  0  0
    5.7297   -4.6627    2.0133 H   0  0  0  0  0  0  0  0  0  0  0  0
    2.7725   -4.7372    0.2528 H   0  0  0  0  0  0  0  0  0  0  0  0
   -2.8185   -5.6335   -2.4928 H   0  0  0  0  0  0  0  0  0  0  0  0
   -2.0916   -7.0725   -3.2328 H   0  0  0  0  0  0  0  0  0  0  0  0
   -3.3628   -7.6764   -1.1986 H   0  0  0  0  0  0  0  0  0  0  0  0
   -1.6446   -8.0141   -0.9711 H   0  0  0  0  0  0  0  0  0  0  0  0
   -2.3709   -6.5833   -0.2302 H   0  0  0  0  0  0  0  0  0  0  0  0
    8.3644    2.4615   -2.1432 H   0  0  0  0  0  0  0  0  0  0  0  0
    7.6255    3.8968   -1.4102 H   0  0  0  0  0  0  0  0  0  0  0  0
    7.8639    2.8544    0.8471 H   0  0  0  0  0  0  0  0  0  0  0  0
    8.5825    1.4179    0.1069 H   0  0  0  0  0  0  0  0  0  0  0  0
    9.4290    2.9680    0.0373 H   0  0  0  0  0  0  0  0  0  0  0  0
    2.7013    1.2731   -3.5845 H   0  0  0  0  0  0  0  0  0  0  0  0
    0.6833    2.6608   -3.6957 H   0  0  0  0  0  0  0  0  0  0  0  0
    2.9169    6.2794   -1.9739 H   0  0  0  0  0  0  0  0  0  0  0  0
    1.8750    6.9775   -0.7202 H   0  0  0  0  0  0  0  0  0  0  0  0
    1.4161    8.9347   -2.1956 H   0  0  0  0  0  0  0  0  0  0  0  0
    2.4465    8.2373   -3.4499 H   0  0  0  0  0  0  0  0  0  0  0  0
    3.1501    8.7505   -1.9119 H   0  0  0  0  0  0  0  0  0  0  0  0
   -4.0982   -1.3381  -11.2859 H   0  0  0  0  0  0  0  0  0  0  0  0
   -2.3580   -0.9965  -11.3246 H   0  0  0  0  0  0  0  0  0  0  0  0
   -3.4528   -0.2276  -13.4169 H   0  0  0  0  0  0  0  0  0  0  0  0
   -2.8093    1.1498  -12.5161 H   0  0  0  0  0  0  0  0  0  0  0  0
   -4.5417    0.8041  -12.4847 H   0  0  0  0  0  0  0  0  0  0  0  0
   -4.6118    4.1505   -8.2478 H   0  0  0  0  0  0  0  0  0  0  0  0
   -5.4285    7.2132   -8.1141 H   0  0  0  0  0  0  0  0  0  0  0  0
   -7.0631    7.7487   -6.3592 H   0  0  0  0  0  0  0  0  0  0  0  0
   -6.4746    7.7847   -3.4051 H   0  0  0  0  0  0  0  0  0  0  0  0
   -6.2455    4.2184   -5.8196 H   0  0  0  0  0  0  0  0  0  0  0  0
   -6.3184    2.2596   -4.2471 H   0  0  0  0  0  0  0  0  0  0  0  0
   -5.5845    2.9194   -1.3494 H   0  0  0  0  0  0  0  0  0  0  0  0
   -7.1285    0.2359   -3.6298 H   0  0  0  0  0  0  0  0  0  0  0  0
   -8.1125   -1.8273   -8.4283 H   0  0  0  0  0  0  0  0  0  0  0  0
   -9.8419   -2.1156   -8.1680 H   0  0  0  0  0  0  0  0  0  0  0  0
   -9.4111    0.2424   -8.8495 H   0  0  0  0  0  0  0  0  0  0  0  0
  -10.0684    0.1828   -7.2103 H   0  0  0  0  0  0  0  0  0  0  0  0
   -8.3409    0.4571   -7.4611 H   0  0  0  0  0  0  0  0  0  0  0  0
   -1.4161   -4.9749    3.1023 H   0  0  0  0  0  0  0  0  0  0  0  0
   -0.6583   -3.3950    3.2960 H   0  0  0  0  0  0  0  0  0  0  0  0
    0.8211   -4.9160    2.0305 H   0  0  0  0  0  0  0  0  0  0  0  0
   -0.4406   -5.1912    0.8241 H   0  0  0  0  0  0  0  0  0  0  0  0
    0.2989   -3.5961    0.9793 H   0  0  0  0  0  0  0  0  0  0  0  0
   -4.9105   -5.4868    0.0219 H   0  0  0  0  0  0  0  0  0  0  0  0
   -6.1463   -7.1326   -1.5607 H   0  0  0  0  0  0  0  0  0  0  0  0
  1  2  2  0  0  0  0
  2  3  1  0  0  0  0
  3  4  2  0  0  0  0
  4  5  1  0  0  0  0
  5  6  1  0  0  0  0
  6  7  1  0  0  0  0
  7  8  1  0  0  0  0
  8  9  1  0  0  0  0
  7 10  2  0  0  0  0
 10 11  1  0  0  0  0
 10 12  1  0  0  0  0
 12 13  1  0  0  0  0
  4 14  1  0  0  0  0
 14 15  2  0  0  0  0
 15 16  1  0  0  0  0
 16 17  1  0  0  0  0
 17 18  1  0  0  0  0
 18 19  1  0  0  0  0
 19 20  1  0  0  0  0
 20 21  1  0  0  0  0
 19 22  2  0  0  0  0
 22 23  1  0  0  0  0
 23 24  1  0  0  0  0
 22 25  1  0  0  0  0
 16 26  2  0  0  0  0
 26 27  1  0  0  0  0
 15 28  1  0  0  0  0
 28 29  2  0  0  0  0
 29 30  1  0  0  0  0
 29 31  1  0  0  0  0
 31 32  2  0  0  0  0
 32 33  1  0  0  0  0
 33 34  2  0  0  0  0
 34 35  1  0  0  0  0
 35 36  1  0  0  0  0
 36 37  2  0  0  0  0
 36 38  1  0  0  0  0
 38 39  2  0  0  0  0
 39 40  1  0  0  0  0
 40 41  2  0  0  0  0
 41 42  1  0  0  0  0
 42 43  2  0  0  0  0
 43 44  1  0  0  0  0
 44 45  1  0  0  0  0
 45 46  1  0  0  0  0
 46 47  1  0  0  0  0
 47 48  1  0  0  0  0
 46 49  2  0  0  0  0
 49 50  1  0  0  0  0
 49 51  1  0  0  0  0
 51 52  1  0  0  0  0
 43 53  1  0  0  0  0
 53 54  2  0  0  0  0
 54 55  1  0  0  0  0
 55 56  1  0  0  0  0
 56 57  1  0  0  0  0
 57 58  1  0  0  0  0
 58 59  1  0  0  0  0
 59 60  1  0  0  0  0
 58 61  2  0  0  0  0
 61 62  1  0  0  0  0
 62 63  1  0  0  0  0
 61 64  1  0  0  0  0
 55 65  2  0  0  0  0
 65 66  1  0  0  0  0
 54 67  1  0  0  0  0
 67 68  2  0  0  0  0
 68 69  1  0  0  0  0
 68 70  1  0  0  0  0
 70 71  2  0  0  0  0
 71 72  1  0  0  0  0
 72 73  2  0  0  0  0
 73 74  1  0  0  0  0
 74 75  1  0  0  0  0
 75 76  1  0  0  0  0
 76 77  1  0  0  0  0
 77 78  1  0  0  0  0
 76 79  2  0  0  0  0
 79 80  1  0  0  0  0
 79 81  1  0  0  0  0
 81 82  1  0  0  0  0
 73 83  1  0  0  0  0
 83 84  2  0  0  0  0
 84 85  1  0  0  0  0
 85 86  1  0  0  0  0
 86 87  1  0  0  0  0
 87 88  1  0  0  0  0
 88 89  1  0  0  0  0
 89 90  1  0  0  0  0
 88 91  2  0  0  0  0
 91 92  1  0  0  0  0
 92 93  1  0  0  0  0
 91 94  1  0  0  0  0
 85 95  2  0  0  0  0
 95 96  1  0  0  0  0
 84 97  1  0  0  0  0
 97 98  2  0  0  0  0
 98 99  1  0  0  0  0
 98100  1  0  0  0  0
100101  2  0  0  0  0
101102  1  0  0  0  0
102103  2  0  0  0  0
103104  1  0  0  0  0
104105  1  0  0  0  0
105106  2  0  0  0  0
105107  1  0  0  0  0
107108  2  0  0  0  0
108109  1  0  0  0  0
109110  2  0  0  0  0
110111  1  0  0  0  0
111112  2  0  0  0  0
112113  1  0  0  0  0
113114  1  0  0  0  0
114115  1  0  0  0  0
115116  1  0  0  0  0
116117  1  0  0  0  0
115118  2  0  0  0  0
118119  1  0  0  0  0
118120  1  0  0  0  0
120121  1  0  0  0  0
112122  1  0  0  0  0
122123  2  0  0  0  0
123124  1  0  0  0  0
124125  1  0  0  0  0
125126  1  0  0  0  0
126127  1  0  0  0  0
127128  1  0  0  0  0
128129  1  0  0  0  0
127130  2  0  0  0  0
130131  1  0  0  0  0
131132  1  0  0  0  0
130133  1  0  0  0  0
124134  2  0  0  0  0
134135  1  0  0  0  0
123136  1  0  0  0  0
136137  2  0  0  0  0
137138  1  0  0  0  0
 27  1  1  0  0  0  0
 37 33  1  0  0  0  0
 66 40  1  0  0  0  0
 96 70  1  0  0  0  0
106102  1  0  0  0  0
135109  1  0  0  0  0
 26  3  1  0  0  0  0
 65 42  1  0  0  0  0
 95 72  1  0  0  0  0
134111  1  0  0  0  0
 12  5  2  0  0  0  0
 30 14  1  0  0  0  0
 51 44  2  0  0  0  0
 69 53  1  0  0  0  0
 81 74  2  0  0  0  0
 99 83  1  0  0  0  0
120113  2  0  0  0  0
138122  1  0  0  0  0
 23 17  2  0  0  0  0
 62 56  2  0  0  0  0
 92 86  2  0  0  0  0
131125  2  0  0  0  0
  1139  1  0  0  0  0
  2140  1  0  0  0  0
  8141  1  0  0  0  0
  8142  1  0  0  0  0
  9143  1  0  0  0  0
  9144  1  0  0  0  0
  9145  1  0  0  0  0
 20146  1  0  0  0  0
 20147  1  0  0  0  0
 21148  1  0  0  0  0
 21149  1  0  0  0  0
 21150  1  0  0  0  0
 28151  1  0  0  0  0
 31152  1  0  0  0  0
 32153  1  0  0  0  0
 34154  1  0  0  0  0
 37155  1  0  0  0  0
 38156  1  0  0  0  0
 39157  1  0  0  0  0
 41158  1  0  0  0  0
 47159  1  0  0  0  0
 47160  1  0  0  0  0
 48161  1  0  0  0  0
 48162  1  0  0  0  0
 48163  1  0  0  0  0
 59164  1  0  0  0  0
 59165  1  0  0  0  0
 60166  1  0  0  0  0
 60167  1  0  0  0  0
 60168  1  0  0  0  0
 67169  1  0  0  0  0
 71170  1  0  0  0  0
 77171  1  0  0  0  0
 77172  1  0  0  0  0
 78173  1  0  0  0  0
 78174  1  0  0  0  0
 78175  1  0  0  0  0
 89176  1  0  0  0  0
 89177  1  0  0  0  0
 90178  1  0  0  0  0
 90179  1  0  0  0  0
 90180  1  0  0  0  0
 97181  1  0  0  0  0
100182  1  0  0  0  0
101183  1  0  0  0  0
103184  1  0  0  0  0
106185  1  0  0  0  0
107186  1  0  0  0  0
108187  1  0  0  0  0
110188  1  0  0  0  0
116189  1  0  0  0  0
116190  1  0  0  0  0
117191  1  0  0  0  0
117192  1  0  0  0  0
117193  1  0  0  0  0
128194  1  0  0  0  0
128195  1  0  0  0  0
129196  1  0  0  0  0
129197  1  0  0  0  0
129198  1  0  0  0  0
136199  1  0  0  0  0
137200  1  0  0  0  0
M  END
