263

C         -4.21120       -1.90760       -0.02690
C         -4.79240       -0.72470        0.25190
C         -6.19390       -0.83480        0.50940
C         -7.10620        0.18780        0.81840
C         -6.65480        1.58440        0.91100
C         -5.80870        2.13110       -0.05660
C         -5.34560        3.42510        0.04950
C         -5.70210        4.22130        1.12950
S         -5.10340        5.88060        1.29960
C         -3.30040        5.57340        1.19850
C         -2.80630        4.76510        2.38150
C         -6.57320        3.68460        2.07180
F         -6.95290        4.42490        3.12740
C         -7.04280        2.38950        1.97900
C         -8.42090       -0.20600        1.05140
C         -8.84570       -1.55940        1.02840
C         -7.92150       -2.58700        0.76840
C         -8.26410       -4.01400        0.83420
C         -7.41610       -4.92030        1.47710
C         -7.69310       -6.26680        1.47890
C         -8.82450       -6.79510        0.84740
S         -8.95120       -8.54940        0.91190
C        -10.43790       -9.06110       -0.02100
C        -11.70700       -8.95490        0.80020
C         -9.68110       -5.87780        0.24980
C         -9.41370       -4.52340        0.24500
F        -10.82120       -6.26180       -0.37100
C         -6.62150       -2.18290        0.47680
S         -5.30360       -3.24300        0.02330
C        -10.23030       -1.67850        1.33780
C        -10.85090       -0.48990        1.55450
S         -9.75110        0.86570        1.41700
C        -12.24750       -0.28310        1.87590
O        -12.57990        0.45330        2.97330
C        -13.89030        0.44520        3.11500
C        -14.47310       -0.28960        2.10300
N        -15.84250       -0.53480        1.90820
O        -16.14780       -1.29430        1.00080
O        -16.63200        0.01830        2.64360
C        -13.40360       -0.75740        1.27180
N        -13.53880       -1.48290        0.12180
C        -12.57070       -1.38770       -0.85650
C        -11.91480       -0.25690       -1.21150
C        -10.74900       -0.50150       -1.98400
C         -9.76450        0.44040       -2.30500
C         -9.98550        1.87340       -2.08010
C        -11.12150        2.51610       -2.57250
C        -11.30630        3.86540       -2.36670
C        -10.39180        4.63170       -1.63860
S        -10.80100        6.33310       -1.42430
C         -9.23250        7.20940       -1.07630
C         -8.24790        7.11880       -2.22460
C         -9.28550        3.96530       -1.12240
F         -8.37100        4.60000       -0.35540
C         -9.06870        2.62380       -1.35630
C         -8.56050       -0.07290       -2.75810
C         -8.33170       -1.45520       -2.96860
C         -9.35240       -2.39380       -2.71860
C         -9.10830       -3.83580       -2.83560
C        -10.04550       -4.70290       -3.39740
C         -9.79930       -6.05650       -3.46170
C         -8.62110       -6.61980       -2.96280
S         -8.48830       -8.37280       -3.09230
C         -6.70990       -8.79890       -2.97300
C         -6.29440       -9.20410       -1.57340
C         -7.70750       -5.74670       -2.38280
C         -7.93780       -4.38880       -2.32430
F         -6.55710       -6.18440       -1.82160
C        -10.54360       -1.88060       -2.22310
S        -11.88080       -2.82590       -1.59150
C         -6.98780       -1.70870       -3.33840
C         -6.20250       -0.59310       -3.33560
S         -7.12320        0.86400       -3.03680
C         -4.77760       -0.54810       -3.32680
C         -3.92980       -1.60870       -3.19870
C         -2.58520       -1.23590       -2.95230
C         -1.50540       -2.07920       -2.63130
C         -1.70500       -3.53260       -2.59270
C         -1.36720       -4.27070       -1.46250
C         -1.66080       -5.61790       -1.37140
C         -2.29420       -6.28170       -2.41550
S         -2.77730       -7.97240       -2.42330
C         -1.96190       -8.68470       -0.95400
C         -0.46470       -8.83860       -1.14290
C         -2.60150       -5.53450       -3.55500
F         -3.20970       -6.14620       -4.59240
C         -2.32070       -4.19200       -3.65650
C         -0.31650       -1.45680       -2.28050
C         -0.17220       -0.04700       -2.23040
C         -1.25770        0.79370       -2.52230
C         -1.18830        2.24930       -2.35070
C         -0.74030        2.80290       -1.15100
C         -0.75400        4.16640       -0.96020
C         -1.19430        5.04100       -1.95610
S         -1.13870        6.76240       -1.56080
C         -2.45750        7.55200       -2.55380
C         -3.83530        6.99380       -2.26050
C         -1.59450        4.47510       -3.16330
C         -1.61670        3.10760       -3.35620
F         -1.97580        5.24700       -4.20390
C         -2.43540        0.17140       -2.89720
S         -3.94520        0.98610       -3.20090
C          1.13870        0.34070       -1.87110
C          1.97650       -0.71030       -1.63180
S          1.17900       -2.25300       -1.85670
C          3.33850       -0.60750       -1.21540
C          3.97720        0.54970       -0.87640
C          5.32280        0.36350       -0.48300
C          6.23230        1.35260       -0.07550
C          5.84010        2.76840       -0.09790
C          5.32920        3.33360       -1.26570
C          4.89640        4.64270       -1.28180
C          4.95360        5.43190       -0.13720
S          4.37340        7.10570       -0.23860
C          3.19610        7.17910        1.16180
C          2.01740        6.24940        0.94980
C          5.50890        4.87010        1.00810
F          5.62600        5.59820        2.13760
C          5.94270        3.55920        1.04100
C          7.48260        0.91620        0.32590
C          7.87180       -0.44760        0.28490
C          6.96970       -1.43410       -0.15280
C          7.36420       -2.84530       -0.23790
C          6.57540       -3.85120        0.31830
C          6.96820       -5.16970        0.25020
C          8.15070       -5.54860       -0.38570
S          8.50520       -7.27810       -0.43240
C         10.33170       -7.39530       -0.35540
C         10.90280       -6.71400        0.87080
C          8.90780       -4.53710       -0.96960
C          8.53870       -3.20980       -0.88920
F         10.04600       -4.81850       -1.64620
C          5.69900       -1.00200       -0.50320
S          4.38130       -2.00560       -1.05750
C          9.19970       -0.62400        0.74700
C          9.81800        0.54040        1.09980
S          8.77830        1.93320        0.89390
C         11.15490        0.69300        1.58120
C         12.13080       -0.25950        1.60440
C         13.35980        0.20000        2.14140
C         14.56460       -0.51040        2.26270
C         14.64040       -1.92620        1.88240
C         13.72470       -2.84660        2.39120
C         13.75940       -4.16580        1.99330
C         14.70650       -4.61700        1.07790
S         14.66170       -6.32460        0.61150
C         14.87200       -6.26350       -1.20770
C         13.85700       -5.35640       -1.87290
C         15.64670       -3.70020        0.61840
F         16.61940       -4.08390       -0.23480
C         15.61680       -2.37370        0.99950
C         15.65380        0.19180        2.75620
C         15.58530        1.55200        3.14600
C         14.38260        2.26270        3.02170
C         14.27970        3.68330        3.37720
C         15.18060        4.61880        2.86970
C         15.05060        5.95540        3.17620
C         14.03150        6.41540        4.01110
S         13.99470        8.14520        4.35320
C         12.21370        8.51460        4.61790
C         11.97630        9.98740        4.34900
C         13.15910        5.46560        4.53480
C         13.26240        4.12720        4.21460
F         12.17890        5.82080        5.39530
C         13.29300        1.56140        2.52510
S         11.70750        2.22410        2.22660
C         16.82790        2.00520        3.68190
C         17.77890        1.04970        3.68380
S         17.24440       -0.46550        3.04090
H         -3.18120       -2.09900       -0.25580
H         -4.24690        0.19970        0.29700
H         -5.54200        1.55360       -0.92710
H         -4.70530        3.82380       -0.72270
H         -2.85450        6.56720        1.18800
H         -3.08240        5.07330        0.25630
H         -1.72300        4.66940        2.34040
H         -3.24250        3.76750        2.37300
H         -3.07800        5.25370        3.31430
H         -7.68630        2.01460        2.75910
H         -6.53970       -4.56480        1.99550
H         -7.02380       -6.95590        1.97080
H        -10.48460       -8.48600       -0.94220
H        -10.22320      -10.10110       -0.26970
H        -12.54300       -9.34980        0.22750
H        -11.92450       -7.92050        1.05180
H        -11.61300       -9.52590        1.72160
H        -10.10580       -3.88600       -0.27530
H        -10.74000       -2.61950        1.42870
H        -14.33110        0.96320        3.94350
H        -14.45210       -1.88750       -0.05520
H        -12.19940        0.72210       -0.87080
H        -11.84630        1.95650       -3.14430
H        -12.17610        4.36250       -2.76770
H         -8.81190        6.83450       -0.14630
H         -9.56180        8.23800       -0.92600
H         -8.69730        7.48690       -3.14470
H         -7.92310        6.09290       -2.38250
H         -7.37160        7.72090       -1.99380
H         -8.19100        2.17290       -0.92630
H        -10.96430       -4.31100       -3.80510
H        -10.52790       -6.71830       -3.90330
H         -6.13000       -7.95950       -3.34770
H         -6.60290       -9.63550       -3.66420
H         -6.89970      -10.03570       -1.21990
H         -5.25000       -9.50780       -1.58870
H         -6.40240       -8.37700       -0.87760
H         -7.20730       -3.78300       -1.81500
H         -6.60790       -2.68180       -3.58310
H         -4.26610       -2.62840       -3.21220
H         -0.89290       -3.78070       -0.62530
H         -1.40590       -6.14130       -0.46470
H         -2.43830       -9.65900       -0.84330
H         -2.21730       -8.07600       -0.08770
H         -0.25920       -9.47830       -1.99790
H         -0.02460       -9.29140       -0.25650
H          0.01200       -7.87590       -1.31470
H         -2.56710       -3.66940       -4.56770
H         -0.41520        2.15370       -0.35210
H         -0.42380        4.58960       -0.02420
H         -2.38840        8.59830       -2.25510
H         -2.19880        7.46800       -3.60700
H         -4.57270        7.53440       -2.85030
H         -3.89810        5.94120       -2.52890
H         -4.08600        7.10280       -1.20760
H         -1.94420        2.72850       -4.31170
H          1.44690        1.36820       -1.81720
H          3.50030        1.51200       -0.88200
H          5.27850        2.73960       -2.16570
H          4.49480        5.07700       -2.18410
H          2.87600        8.22020        1.17800
H          3.73240        6.95780        2.08190
H          2.34840        5.21260        0.89970
H          1.31820        6.35150        1.77790
H          1.49920        6.49500        0.02480
H          6.34650        3.16490        1.96040
H          5.66380       -3.59360        0.83440
H          6.36190       -5.94240        0.69630
H         10.50570       -8.47080       -0.32120
H         10.74840       -7.00060       -1.27950
H         10.43630       -7.10220        1.77390
H         11.97430       -6.89800        0.92280
H         10.73890       -5.63850        0.83140
H          9.15800       -2.47060       -1.37410
H          9.66820       -1.58610        0.83890
H         11.99330       -1.25370        1.22130
H         12.98680       -2.52180        3.10910
H         13.04490       -4.87400        2.38320
H         14.73120       -7.30160       -1.50870
H         15.89380       -5.96430       -1.43210
H         12.84360       -5.63570       -1.59400
H         13.95440       -5.43250       -2.95390
H         14.01690       -4.31800       -1.58810
H         16.35310       -1.69860        0.59240
H         15.96590        4.29630        2.20300
H         15.73930        6.67890        2.76820
H         11.64920        7.89200        3.92560
H         11.95650        8.25520        5.64370
H         10.92420       10.22080        4.49740
H         12.25010       10.23900        3.32690
H         12.56840       10.59980        5.02540
H         12.55950        3.43670        4.65410
H         16.97930        2.99920        4.06140
H         18.79100        1.12820        4.02960
