
  xtb     03012210183D
 energy: -394.113861626448 gnorm: 0.000499682904 xtb: 6.4.1 (unknown)
192213  0     0  0            999 V2000
    2.9615   -2.1140   10.6088 C   0  0  0  0  0  0  0  0  0  0  0  0
    2.2552   -1.0466   10.1850 C   0  0  0  0  0  0  0  0  0  0  0  0
    1.5514   -1.2964    8.9707 C   0  0  0  0  0  0  0  0  0  0  0  0
    0.7541   -0.4147    8.2253 C   0  0  0  0  0  0  0  0  0  0  0  0
    0.4665    0.9370    8.6773 C   0  0  0  0  0  0  0  0  0  0  0  0
    0.7375    2.3062    7.6416 S   0  0  0  0  0  0  0  0  0  0  0  0
    0.1349    3.4178    8.8235 C   0  0  0  0  0  0  0  0  0  0  0  0
    0.0374    4.8722    8.5213 C   0  0  0  0  0  0  0  0  0  0  0  0
   -1.1093    5.1508    7.5467 C   0  0  0  0  0  0  0  0  0  0  0  0
   -0.2540    2.7509    9.9465 C   0  0  0  0  0  0  0  0  0  0  0  0
   -0.9153    3.5112   11.3359 Cl  0  0  0  0  0  0  0  0  0  0  0  0
   -0.0631    1.3442    9.8695 C   0  0  0  0  0  0  0  0  0  0  0  0
   -0.5399    0.2775   11.1268 Cl  0  0  0  0  0  0  0  0  0  0  0  0
    0.2328   -0.8924    7.0299 C   0  0  0  0  0  0  0  0  0  0  0  0
    0.4532   -2.2086    6.5596 C   0  0  0  0  0  0  0  0  0  0  0  0
    1.2739   -3.0816    7.2927 C   0  0  0  0  0  0  0  0  0  0  0  0
    1.6189   -4.3940    6.7717 C   0  0  0  0  0  0  0  0  0  0  0  0
    1.3795   -5.8578    7.6742 S   0  0  0  0  0  0  0  0  0  0  0  0
    2.0435   -6.8357    6.4088 C   0  0  0  0  0  0  0  0  0  0  0  0
    2.0894   -8.3190    6.5268 C   0  0  0  0  0  0  0  0  0  0  0  0
    0.7448   -8.9411    6.1421 C   0  0  0  0  0  0  0  0  0  0  0  0
    2.4206   -6.0576    5.3550 C   0  0  0  0  0  0  0  0  0  0  0  0
    2.1855   -4.6726    5.5588 C   0  0  0  0  0  0  0  0  0  0  0  0
    2.6561   -3.4721    4.4262 Cl  0  0  0  0  0  0  0  0  0  0  0  0
    3.1290   -6.6629    3.9146 Cl  0  0  0  0  0  0  0  0  0  0  0  0
    1.7850   -2.6089    8.4948 C   0  0  0  0  0  0  0  0  0  0  0  0
    2.8371   -3.4891    9.5667 S   0  0  0  0  0  0  0  0  0  0  0  0
   -0.2591   -2.4676    5.3599 C   0  0  0  0  0  0  0  0  0  0  0  0
   -0.9686   -1.3948    4.9092 C   0  0  0  0  0  0  0  0  0  0  0  0
   -0.8019    0.0018    5.9556 S   0  0  0  0  0  0  0  0  0  0  0  0
   -1.7702   -1.2788    3.7342 C   0  0  0  0  0  0  0  0  0  0  0  0
   -2.3174   -0.1330    3.2395 C   0  0  0  0  0  0  0  0  0  0  0  0
   -3.0378   -0.3220    2.0368 C   0  0  0  0  0  0  0  0  0  0  0  0
   -3.6968    0.6529    1.2701 C   0  0  0  0  0  0  0  0  0  0  0  0
   -3.6598    2.0536    1.6576 C   0  0  0  0  0  0  0  0  0  0  0  0
   -2.1449    2.8658    1.9405 S   0  0  0  0  0  0  0  0  0  0  0  0
   -2.9300    4.3573    2.3318 C   0  0  0  0  0  0  0  0  0  0  0  0
   -2.1547    5.5807    2.6779 C   0  0  0  0  0  0  0  0  0  0  0  0
   -2.0785    6.5411    1.4894 C   0  0  0  0  0  0  0  0  0  0  0  0
   -4.2832    4.2213    2.2352 C   0  0  0  0  0  0  0  0  0  0  0  0
   -5.3948    5.4863    2.5629 Cl  0  0  0  0  0  0  0  0  0  0  0  0
   -4.7011    2.9180    1.8542 C   0  0  0  0  0  0  0  0  0  0  0  0
   -6.3541    2.4781    1.7539 Cl  0  0  0  0  0  0  0  0  0  0  0  0
   -4.3538    0.2139    0.1277 C   0  0  0  0  0  0  0  0  0  0  0  0
   -4.3361   -1.1389   -0.2920 C   0  0  0  0  0  0  0  0  0  0  0  0
   -3.6915   -2.1197    0.4842 C   0  0  0  0  0  0  0  0  0  0  0  0
   -3.6488   -3.5134    0.0736 C   0  0  0  0  0  0  0  0  0  0  0  0
   -3.1064   -3.9714   -1.5129 S   0  0  0  0  0  0  0  0  0  0  0  0
   -3.2490   -5.6575   -1.1726 C   0  0  0  0  0  0  0  0  0  0  0  0
   -2.8850   -6.6950   -2.1787 C   0  0  0  0  0  0  0  0  0  0  0  0
   -1.9138   -6.1670   -3.2277 C   0  0  0  0  0  0  0  0  0  0  0  0
   -3.7137   -5.8422    0.0959 C   0  0  0  0  0  0  0  0  0  0  0  0
   -3.9438   -4.6327    0.8036 C   0  0  0  0  0  0  0  0  0  0  0  0
   -4.6157   -4.6140    2.3804 Cl  0  0  0  0  0  0  0  0  0  0  0  0
   -3.9932   -7.3867    0.7908 Cl  0  0  0  0  0  0  0  0  0  0  0  0
   -3.0569   -1.6823    1.6403 C   0  0  0  0  0  0  0  0  0  0  0  0
   -2.1406   -2.6711    2.7391 S   0  0  0  0  0  0  0  0  0  0  0  0
   -5.0359   -1.3174   -1.5103 C   0  0  0  0  0  0  0  0  0  0  0  0
   -5.5827   -0.1672   -1.9922 C   0  0  0  0  0  0  0  0  0  0  0  0
   -5.2509    1.2133   -0.9799 S   0  0  0  0  0  0  0  0  0  0  0  0
   -6.3967   -0.0927   -3.1745 C   0  0  0  0  0  0  0  0  0  0  0  0
   -7.5310    0.6518   -3.2175 O   0  0  0  0  0  0  0  0  0  0  0  0
   -8.1572    0.4012   -4.3550 C   0  0  0  0  0  0  0  0  0  0  0  0
   -7.4454   -0.5148   -5.0992 C   0  0  0  0  0  0  0  0  0  0  0  0
   -7.7692   -1.0256   -6.3707 N   0  0  0  0  0  4  0  0  0  0  0  0
   -7.0635   -1.9242   -6.7992 O   0  0  0  0  0  1  0  0  0  0  0  0
   -8.7117   -0.5414   -6.9578 O   0  0  0  0  0  0  0  0  0  0  0  0
   -6.2797   -0.8360   -4.3345 C   0  0  0  0  0  0  0  0  0  0  0  0
   -5.2063   -1.6358   -4.6902 N   0  0  0  0  0  0  0  0  0  0  0  0
   -3.9759   -0.9775   -4.7496 C   0  0  0  0  0  0  0  0  0  0  0  0
   -2.7710   -1.3880   -4.2995 C   0  0  0  0  0  0  0  0  0  0  0  0
   -1.7152   -0.4757   -4.6010 C   0  0  0  0  0  0  0  0  0  0  0  0
   -0.3418   -0.6145   -4.3400 C   0  0  0  0  0  0  0  0  0  0  0  0
    0.1769   -1.6986   -3.5238 C   0  0  0  0  0  0  0  0  0  0  0  0
    1.5185   -2.6837   -4.0208 S   0  0  0  0  0  0  0  0  0  0  0  0
    1.4610   -3.6308   -2.5758 C   0  0  0  0  0  0  0  0  0  0  0  0
    2.3880   -4.7718   -2.3322 C   0  0  0  0  0  0  0  0  0  0  0  0
    3.2774   -5.0698   -3.5296 C   0  0  0  0  0  0  0  0  0  0  0  0
    0.4664   -3.1840   -1.7556 C   0  0  0  0  0  0  0  0  0  0  0  0
    0.0971   -3.8993   -0.2377 Cl  0  0  0  0  0  0  0  0  0  0  0  0
   -0.2552   -2.0848   -2.2844 C   0  0  0  0  0  0  0  0  0  0  0  0
   -1.4859   -1.2836   -1.4082 Cl  0  0  0  0  0  0  0  0  0  0  0  0
    0.5003    0.3545   -4.8749 C   0  0  0  0  0  0  0  0  0  0  0  0
    0.0353    1.4873   -5.5822 C   0  0  0  0  0  0  0  0  0  0  0  0
   -1.3391    1.6283   -5.8438 C   0  0  0  0  0  0  0  0  0  0  0  0
   -1.8326    2.6967   -6.6961 C   0  0  0  0  0  0  0  0  0  0  0  0
   -3.1757    3.7082   -6.2528 S   0  0  0  0  0  0  0  0  0  0  0  0
   -3.1135    4.5839   -7.7424 C   0  0  0  0  0  0  0  0  0  0  0  0
   -4.1024    5.6532   -8.0487 C   0  0  0  0  0  0  0  0  0  0  0  0
   -5.3842    5.0559   -8.6346 C   0  0  0  0  0  0  0  0  0  0  0  0
   -2.1155    4.1001   -8.5352 C   0  0  0  0  0  0  0  0  0  0  0  0
   -1.3855    3.0340   -7.9457 C   0  0  0  0  0  0  0  0  0  0  0  0
   -0.1318    2.2109   -8.7792 Cl  0  0  0  0  0  0  0  0  0  0  0  0
   -1.7547    4.7084  -10.0987 Cl  0  0  0  0  0  0  0  0  0  0  0  0
   -2.1768    0.6483   -5.3273 C   0  0  0  0  0  0  0  0  0  0  0  0
   -3.8958    0.5953   -5.5610 S   0  0  0  0  0  0  0  0  0  0  0  0
    1.0861    2.3772   -5.9075 C   0  0  0  0  0  0  0  0  0  0  0  0
    2.3144    1.9409   -5.4973 C   0  0  0  0  0  0  0  0  0  0  0  0
    2.2290    0.3769   -4.7173 S   0  0  0  0  0  0  0  0  0  0  0  0
    3.5521    2.6169   -5.7538 C   0  0  0  0  0  0  0  0  0  0  0  0
    3.5164    3.5659   -6.7393 O   0  0  0  0  0  0  0  0  0  0  0  0
    4.7307    4.0360   -6.9362 C   0  0  0  0  0  0  0  0  0  0  0  0
    5.6203    3.4211   -6.0845 C   0  0  0  0  0  0  0  0  0  0  0  0
    7.0055    3.6492   -6.0187 N   0  0  0  0  0  4  0  0  0  0  0  0
    7.4636    4.5538   -6.6829 O   0  0  0  0  0  1  0  0  0  0  0  0
    7.6629    2.9138   -5.2955 O   0  0  0  0  0  0  0  0  0  0  0  0
    4.8592    2.4991   -5.2845 C   0  0  0  0  0  0  0  0  0  0  0  0
    5.4230    1.7339   -4.3100 N   0  0  0  0  0  0  0  0  0  0  0  0
    4.7921    1.2136   -3.2119 C   0  0  0  0  0  0  0  0  0  0  0  0
    3.6444    1.6312   -2.6170 C   0  0  0  0  0  0  0  0  0  0  0  0
    3.2327    0.7901   -1.5477 C   0  0  0  0  0  0  0  0  0  0  0  0
    2.0784    0.9022   -0.7577 C   0  0  0  0  0  0  0  0  0  0  0  0
    1.1442    2.0003   -0.9448 C   0  0  0  0  0  0  0  0  0  0  0  0
   -0.5463    1.7042   -1.2206 S   0  0  0  0  0  0  0  0  0  0  0  0
   -0.9010    3.3893   -1.3834 C   0  0  0  0  0  0  0  0  0  0  0  0
   -2.2896    3.8454   -1.6683 C   0  0  0  0  0  0  0  0  0  0  0  0
   -2.9042    3.0492   -2.8151 C   0  0  0  0  0  0  0  0  0  0  0  0
    0.2345    4.1256   -1.2298 C   0  0  0  0  0  0  0  0  0  0  0  0
    0.3001    5.8385   -1.3458 Cl  0  0  0  0  0  0  0  0  0  0  0  0
    1.3939    3.3436   -0.9766 C   0  0  0  0  0  0  0  0  0  0  0  0
    2.9277    4.0504   -0.6645 Cl  0  0  0  0  0  0  0  0  0  0  0  0
    1.8595   -0.0997    0.1823 C   0  0  0  0  0  0  0  0  0  0  0  0
    2.7571   -1.1736    0.3780 C   0  0  0  0  0  0  0  0  0  0  0  0
    3.9373   -1.2574   -0.3776 C   0  0  0  0  0  0  0  0  0  0  0  0
    4.9150   -2.3008   -0.1207 C   0  0  0  0  0  0  0  0  0  0  0  0
    5.5582   -3.2914   -1.3960 S   0  0  0  0  0  0  0  0  0  0  0  0
    6.5578   -4.1879   -0.3040 C   0  0  0  0  0  0  0  0  0  0  0  0
    7.3912   -5.3258   -0.7796 C   0  0  0  0  0  0  0  0  0  0  0  0
    6.5686   -6.6148   -0.8446 C   0  0  0  0  0  0  0  0  0  0  0  0
    6.3952   -3.7315    0.9698 C   0  0  0  0  0  0  0  0  0  0  0  0
    5.4723   -2.6563    1.0775 C   0  0  0  0  0  0  0  0  0  0  0  0
    5.1756   -1.8482    2.5623 Cl  0  0  0  0  0  0  0  0  0  0  0  0
    7.2199   -4.3734    2.3304 Cl  0  0  0  0  0  0  0  0  0  0  0  0
    4.1269   -0.2872   -1.3500 C   0  0  0  0  0  0  0  0  0  0  0  0
    5.4660   -0.2216   -2.4654 S   0  0  0  0  0  0  0  0  0  0  0  0
    2.2896   -2.0739    1.3765 C   0  0  0  0  0  0  0  0  0  0  0  0
    1.1341   -1.6727    1.9395 C   0  0  0  0  0  0  0  0  0  0  0  0
    0.5136   -0.1972    1.2827 S   0  0  0  0  0  0  0  0  0  0  0  0
    3.5715   -2.1926   11.4874 H   0  0  0  0  0  0  0  0  0  0  0  0
    2.2339   -0.1036   10.6986 H   0  0  0  0  0  0  0  0  0  0  0  0
   -0.1290    5.4126    9.4544 H   0  0  0  0  0  0  0  0  0  0  0  0
    0.9756    5.2161    8.0810 H   0  0  0  0  0  0  0  0  0  0  0  0
   -1.1676    6.2146    7.3331 H   0  0  0  0  0  0  0  0  0  0  0  0
   -0.9499    4.6134    6.6147 H   0  0  0  0  0  0  0  0  0  0  0  0
   -2.0552    4.8289    7.9752 H   0  0  0  0  0  0  0  0  0  0  0  0
    2.8713   -8.6987    5.8664 H   0  0  0  0  0  0  0  0  0  0  0  0
    2.3349   -8.5930    7.5542 H   0  0  0  0  0  0  0  0  0  0  0  0
   -0.0418   -8.5716    6.7956 H   0  0  0  0  0  0  0  0  0  0  0  0
    0.4917   -8.6881    5.1156 H   0  0  0  0  0  0  0  0  0  0  0  0
    0.7947  -10.0228    6.2325 H   0  0  0  0  0  0  0  0  0  0  0  0
   -0.2580   -3.4205    4.8604 H   0  0  0  0  0  0  0  0  0  0  0  0
   -2.1999    0.8171    3.7276 H   0  0  0  0  0  0  0  0  0  0  0  0
   -2.6446    6.0820    3.5161 H   0  0  0  0  0  0  0  0  0  0  0  0
   -1.1477    5.2928    2.9825 H   0  0  0  0  0  0  0  0  0  0  0  0
   -1.5801    6.0644    0.6502 H   0  0  0  0  0  0  0  0  0  0  0  0
   -3.0765    6.8388    1.1793 H   0  0  0  0  0  0  0  0  0  0  0  0
   -1.5203    7.4311    1.7665 H   0  0  0  0  0  0  0  0  0  0  0  0
   -3.7952   -7.0540   -2.6700 H   0  0  0  0  0  0  0  0  0  0  0  0
   -2.4466   -7.5446   -1.6491 H   0  0  0  0  0  0  0  0  0  0  0  0
   -1.0128   -5.7854   -2.7531 H   0  0  0  0  0  0  0  0  0  0  0  0
   -2.3700   -5.3585   -3.7947 H   0  0  0  0  0  0  0  0  0  0  0  0
   -1.6377   -6.9601   -3.9173 H   0  0  0  0  0  0  0  0  0  0  0  0
   -5.1591   -2.2643   -2.0011 H   0  0  0  0  0  0  0  0  0  0  0  0
   -9.0899    0.8906   -4.5550 H   0  0  0  0  0  0  0  0  0  0  0  0
   -5.4184   -2.1989   -5.5147 H   0  0  0  0  0  0  0  0  0  0  0  0
   -2.6246   -2.3207   -3.7883 H   0  0  0  0  0  0  0  0  0  0  0  0
    1.7929   -5.6533   -2.0749 H   0  0  0  0  0  0  0  0  0  0  0  0
    3.0068   -4.5388   -1.4603 H   0  0  0  0  0  0  0  0  0  0  0  0
    3.9048   -4.2115   -3.7564 H   0  0  0  0  0  0  0  0  0  0  0  0
    2.6735   -5.2996   -4.4040 H   0  0  0  0  0  0  0  0  0  0  0  0
    3.9192   -5.9205   -3.3187 H   0  0  0  0  0  0  0  0  0  0  0  0
   -4.3408    6.1995   -7.1346 H   0  0  0  0  0  0  0  0  0  0  0  0
   -3.6598    6.3458   -8.7668 H   0  0  0  0  0  0  0  0  0  0  0  0
   -5.1650    4.5234   -9.5565 H   0  0  0  0  0  0  0  0  0  0  0  0
   -6.0989    5.8454   -8.8500 H   0  0  0  0  0  0  0  0  0  0  0  0
   -5.8329    4.3599   -7.9298 H   0  0  0  0  0  0  0  0  0  0  0  0
    0.9418    3.3208   -6.3994 H   0  0  0  0  0  0  0  0  0  0  0  0
    4.8882    4.7823   -7.6899 H   0  0  0  0  0  0  0  0  0  0  0  0
    6.4410    1.7007   -4.3439 H   0  0  0  0  0  0  0  0  0  0  0  0
    3.1078    2.5079   -2.9256 H   0  0  0  0  0  0  0  0  0  0  0  0
   -2.2650    4.9081   -1.9151 H   0  0  0  0  0  0  0  0  0  0  0  0
   -2.9069    3.7188   -0.7741 H   0  0  0  0  0  0  0  0  0  0  0  0
   -3.9209    3.3793   -3.0058 H   0  0  0  0  0  0  0  0  0  0  0  0
   -2.9198    1.9896   -2.5703 H   0  0  0  0  0  0  0  0  0  0  0  0
   -2.3185    3.1839   -3.7202 H   0  0  0  0  0  0  0  0  0  0  0  0
    7.7869   -5.0960   -1.7702 H   0  0  0  0  0  0  0  0  0  0  0  0
    8.2263   -5.4597   -0.0898 H   0  0  0  0  0  0  0  0  0  0  0  0
    7.1904   -7.4377   -1.1862 H   0  0  0  0  0  0  0  0  0  0  0  0
    5.7360   -6.4948   -1.5338 H   0  0  0  0  0  0  0  0  0  0  0  0
    6.1742   -6.8605    0.1382 H   0  0  0  0  0  0  0  0  0  0  0  0
    2.7927   -2.9862    1.6363 H   0  0  0  0  0  0  0  0  0  0  0  0
    0.5833   -2.1667    2.7133 H   0  0  0  0  0  0  0  0  0  0  0  0
  1  2  2  0  0  0  0
  2  3  1  0  0  0  0
  3  4  2  0  0  0  0
  4  5  1  0  0  0  0
  5  6  1  0  0  0  0
  6  7  1  0  0  0  0
  7  8  1  0  0  0  0
  8  9  1  0  0  0  0
  7 10  2  0  0  0  0
 10 11  1  0  0  0  0
 10 12  1  0  0  0  0
 12 13  1  0  0  0  0
  4 14  1  0  0  0  0
 14 15  2  0  0  0  0
 15 16  1  0  0  0  0
 16 17  1  0  0  0  0
 17 18  1  0  0  0  0
 18 19  1  0  0  0  0
 19 20  1  0  0  0  0
 20 21  1  0  0  0  0
 19 22  2  0  0  0  0
 22 23  1  0  0  0  0
 23 24  1  0  0  0  0
 22 25  1  0  0  0  0
 16 26  2  0  0  0  0
 26 27  1  0  0  0  0
 15 28  1  0  0  0  0
 28 29  2  0  0  0  0
 29 30  1  0  0  0  0
 29 31  1  0  0  0  0
 31 32  2  0  0  0  0
 32 33  1  0  0  0  0
 33 34  2  0  0  0  0
 34 35  1  0  0  0  0
 35 36  1  0  0  0  0
 36 37  1  0  0  0  0
 37 38  1  0  0  0  0
 38 39  1  0  0  0  0
 37 40  2  0  0  0  0
 40 41  1  0  0  0  0
 40 42  1  0  0  0  0
 42 43  1  0  0  0  0
 34 44  1  0  0  0  0
 44 45  2  0  0  0  0
 45 46  1  0  0  0  0
 46 47  1  0  0  0  0
 47 48  1  0  0  0  0
 48 49  1  0  0  0  0
 49 50  1  0  0  0  0
 50 51  1  0  0  0  0
 49 52  2  0  0  0  0
 52 53  1  0  0  0  0
 53 54  1  0  0  0  0
 52 55  1  0  0  0  0
 46 56  2  0  0  0  0
 56 57  1  0  0  0  0
 45 58  1  0  0  0  0
 58 59  2  0  0  0  0
 59 60  1  0  0  0  0
 59 61  1  0  0  0  0
 61 62  1  0  0  0  0
 62 63  1  0  0  0  0
 63 64  2  0  0  0  0
 64 65  1  0  0  0  0
 65 66  1  0  0  0  0
 65 67  2  0  0  0  0
 64 68  1  0  0  0  0
 68 69  1  0  0  0  0
 69 70  1  0  0  0  0
 70 71  2  0  0  0  0
 71 72  1  0  0  0  0
 72 73  2  0  0  0  0
 73 74  1  0  0  0  0
 74 75  1  0  0  0  0
 75 76  1  0  0  0  0
 76 77  1  0  0  0  0
 77 78  1  0  0  0  0
 76 79  2  0  0  0  0
 79 80  1  0  0  0  0
 79 81  1  0  0  0  0
 81 82  1  0  0  0  0
 73 83  1  0  0  0  0
 83 84  2  0  0  0  0
 84 85  1  0  0  0  0
 85 86  1  0  0  0  0
 86 87  1  0  0  0  0
 87 88  1  0  0  0  0
 88 89  1  0  0  0  0
 89 90  1  0  0  0  0
 88 91  2  0  0  0  0
 91 92  1  0  0  0  0
 92 93  1  0  0  0  0
 91 94  1  0  0  0  0
 85 95  2  0  0  0  0
 95 96  1  0  0  0  0
 84 97  1  0  0  0  0
 97 98  2  0  0  0  0
 98 99  1  0  0  0  0
 98100  1  0  0  0  0
100101  1  0  0  0  0
101102  1  0  0  0  0
102103  2  0  0  0  0
103104  1  0  0  0  0
104105  1  0  0  0  0
104106  2  0  0  0  0
103107  1  0  0  0  0
107108  1  0  0  0  0
108109  1  0  0  0  0
109110  2  0  0  0  0
110111  1  0  0  0  0
111112  2  0  0  0  0
112113  1  0  0  0  0
113114  1  0  0  0  0
114115  1  0  0  0  0
115116  1  0  0  0  0
116117  1  0  0  0  0
115118  2  0  0  0  0
118119  1  0  0  0  0
118120  1  0  0  0  0
120121  1  0  0  0  0
112122  1  0  0  0  0
122123  2  0  0  0  0
123124  1  0  0  0  0
124125  1  0  0  0  0
125126  1  0  0  0  0
126127  1  0  0  0  0
127128  1  0  0  0  0
128129  1  0  0  0  0
127130  2  0  0  0  0
130131  1  0  0  0  0
131132  1  0  0  0  0
130133  1  0  0  0  0
124134  2  0  0  0  0
134135  1  0  0  0  0
123136  1  0  0  0  0
136137  2  0  0  0  0
137138  1  0  0  0  0
 27  1  1  0  0  0  0
 57 31  1  0  0  0  0
 68 61  2  0  0  0  0
 96 70  1  0  0  0  0
107100  2  0  0  0  0
135109  1  0  0  0  0
 26  3  1  0  0  0  0
 56 33  1  0  0  0  0
 95 72  1  0  0  0  0
134111  1  0  0  0  0
 12  5  2  0  0  0  0
 30 14  1  0  0  0  0
 42 35  2  0  0  0  0
 60 44  1  0  0  0  0
 81 74  2  0  0  0  0
 99 83  1  0  0  0  0
120113  2  0  0  0  0
138122  1  0  0  0  0
 23 17  2  0  0  0  0
 53 47  2  0  0  0  0
 92 86  2  0  0  0  0
131125  2  0  0  0  0
  1139  1  0  0  0  0
  2140  1  0  0  0  0
  8141  1  0  0  0  0
  8142  1  0  0  0  0
  9143  1  0  0  0  0
  9144  1  0  0  0  0
  9145  1  0  0  0  0
 20146  1  0  0  0  0
 20147  1  0  0  0  0
 21148  1  0  0  0  0
 21149  1  0  0  0  0
 21150  1  0  0  0  0
 28151  1  0  0  0  0
 32152  1  0  0  0  0
 38153  1  0  0  0  0
 38154  1  0  0  0  0
 39155  1  0  0  0  0
 39156  1  0  0  0  0
 39157  1  0  0  0  0
 50158  1  0  0  0  0
 50159  1  0  0  0  0
 51160  1  0  0  0  0
 51161  1  0  0  0  0
 51162  1  0  0  0  0
 58163  1  0  0  0  0
 63164  1  0  0  0  0
 69165  1  0  0  0  0
 71166  1  0  0  0  0
 77167  1  0  0  0  0
 77168  1  0  0  0  0
 78169  1  0  0  0  0
 78170  1  0  0  0  0
 78171  1  0  0  0  0
 89172  1  0  0  0  0
 89173  1  0  0  0  0
 90174  1  0  0  0  0
 90175  1  0  0  0  0
 90176  1  0  0  0  0
 97177  1  0  0  0  0
102178  1  0  0  0  0
108179  1  0  0  0  0
110180  1  0  0  0  0
116181  1  0  0  0  0
116182  1  0  0  0  0
117183  1  0  0  0  0
117184  1  0  0  0  0
117185  1  0  0  0  0
128186  1  0  0  0  0
128187  1  0  0  0  0
129188  1  0  0  0  0
129189  1  0  0  0  0
129190  1  0  0  0  0
136191  1  0  0  0  0
137192  1  0  0  0  0
M  CHG  1  65   1
M  CHG  1  66  -1
M  CHG  1 104   1
M  CHG  1 105  -1
M  END
