192

C          2.96150       -2.11400       10.60880
C          2.25520       -1.04660       10.18500
C          1.55140       -1.29640        8.97070
C          0.75410       -0.41470        8.22530
C          0.46650        0.93700        8.67730
S          0.73750        2.30620        7.64160
C          0.13490        3.41780        8.82350
C          0.03740        4.87220        8.52130
C         -1.10930        5.15080        7.54670
C         -0.25400        2.75090        9.94650
Cl        -0.91530        3.51120       11.33590
C         -0.06310        1.34420        9.86950
Cl        -0.53990        0.27750       11.12680
C          0.23280       -0.89240        7.02990
C          0.45320       -2.20860        6.55960
C          1.27390       -3.08160        7.29270
C          1.61890       -4.39400        6.77170
S          1.37950       -5.85780        7.67420
C          2.04350       -6.83570        6.40880
C          2.08940       -8.31900        6.52680
C          0.74480       -8.94110        6.14210
C          2.42060       -6.05760        5.35500
C          2.18550       -4.67260        5.55880
Cl         2.65610       -3.47210        4.42620
Cl         3.12900       -6.66290        3.91460
C          1.78500       -2.60890        8.49480
S          2.83710       -3.48910        9.56670
C         -0.25910       -2.46760        5.35990
C         -0.96860       -1.39480        4.90920
S         -0.80190        0.00180        5.95560
C         -1.77020       -1.27880        3.73420
C         -2.31740       -0.13300        3.23950
C         -3.03780       -0.32200        2.03680
C         -3.69680        0.65290        1.27010
C         -3.65980        2.05360        1.65760
S         -2.14490        2.86580        1.94050
C         -2.93000        4.35730        2.33180
C         -2.15470        5.58070        2.67790
C         -2.07850        6.54110        1.48940
C         -4.28320        4.22130        2.23520
Cl        -5.39480        5.48630        2.56290
C         -4.70110        2.91800        1.85420
Cl        -6.35410        2.47810        1.75390
C         -4.35380        0.21390        0.12770
C         -4.33610       -1.13890       -0.29200
C         -3.69150       -2.11970        0.48420
C         -3.64880       -3.51340        0.07360
S         -3.10640       -3.97140       -1.51290
C         -3.24900       -5.65750       -1.17260
C         -2.88500       -6.69500       -2.17870
C         -1.91380       -6.16700       -3.22770
C         -3.71370       -5.84220        0.09590
C         -3.94380       -4.63270        0.80360
Cl        -4.61570       -4.61400        2.38040
Cl        -3.99320       -7.38670        0.79080
C         -3.05690       -1.68230        1.64030
S         -2.14060       -2.67110        2.73910
C         -5.03590       -1.31740       -1.51030
C         -5.58270       -0.16720       -1.99220
S         -5.25090        1.21330       -0.97990
C         -6.39670       -0.09270       -3.17450
O         -7.53100        0.65180       -3.21750
C         -8.15720        0.40120       -4.35500
C         -7.44540       -0.51480       -5.09920
N         -7.76920       -1.02560       -6.37070
O         -7.06350       -1.92420       -6.79920
O         -8.71170       -0.54140       -6.95780
C         -6.27970       -0.83600       -4.33450
N         -5.20630       -1.63580       -4.69020
C         -3.97590       -0.97750       -4.74960
C         -2.77100       -1.38800       -4.29950
C         -1.71520       -0.47570       -4.60100
C         -0.34180       -0.61450       -4.34000
C          0.17690       -1.69860       -3.52380
S          1.51850       -2.68370       -4.02080
C          1.46100       -3.63080       -2.57580
C          2.38800       -4.77180       -2.33220
C          3.27740       -5.06980       -3.52960
C          0.46640       -3.18400       -1.75560
Cl         0.09710       -3.89930       -0.23770
C         -0.25520       -2.08480       -2.28440
Cl        -1.48590       -1.28360       -1.40820
C          0.50030        0.35450       -4.87490
C          0.03530        1.48730       -5.58220
C         -1.33910        1.62830       -5.84380
C         -1.83260        2.69670       -6.69610
S         -3.17570        3.70820       -6.25280
C         -3.11350        4.58390       -7.74240
C         -4.10240        5.65320       -8.04870
C         -5.38420        5.05590       -8.63460
C         -2.11550        4.10010       -8.53520
C         -1.38550        3.03400       -7.94570
Cl        -0.13180        2.21090       -8.77920
Cl        -1.75470        4.70840      -10.09870
C         -2.17680        0.64830       -5.32730
S         -3.89580        0.59530       -5.56100
C          1.08610        2.37720       -5.90750
C          2.31440        1.94090       -5.49730
S          2.22900        0.37690       -4.71730
C          3.55210        2.61690       -5.75380
O          3.51640        3.56590       -6.73930
C          4.73070        4.03600       -6.93620
C          5.62030        3.42110       -6.08450
N          7.00550        3.64920       -6.01870
O          7.46360        4.55380       -6.68290
O          7.66290        2.91380       -5.29550
C          4.85920        2.49910       -5.28450
N          5.42300        1.73390       -4.31000
C          4.79210        1.21360       -3.21190
C          3.64440        1.63120       -2.61700
C          3.23270        0.79010       -1.54770
C          2.07840        0.90220       -0.75770
C          1.14420        2.00030       -0.94480
S         -0.54630        1.70420       -1.22060
C         -0.90100        3.38930       -1.38340
C         -2.28960        3.84540       -1.66830
C         -2.90420        3.04920       -2.81510
C          0.23450        4.12560       -1.22980
Cl         0.30010        5.83850       -1.34580
C          1.39390        3.34360       -0.97660
Cl         2.92770        4.05040       -0.66450
C          1.85950       -0.09970        0.18230
C          2.75710       -1.17360        0.37800
C          3.93730       -1.25740       -0.37760
C          4.91500       -2.30080       -0.12070
S          5.55820       -3.29140       -1.39600
C          6.55780       -4.18790       -0.30400
C          7.39120       -5.32580       -0.77960
C          6.56860       -6.61480       -0.84460
C          6.39520       -3.73150        0.96980
C          5.47230       -2.65630        1.07750
Cl         5.17560       -1.84820        2.56230
Cl         7.21990       -4.37340        2.33040
C          4.12690       -0.28720       -1.35000
S          5.46600       -0.22160       -2.46540
C          2.28960       -2.07390        1.37650
C          1.13410       -1.67270        1.93950
S          0.51360       -0.19720        1.28270
H          3.57150       -2.19260       11.48740
H          2.23390       -0.10360       10.69860
H         -0.12900        5.41260        9.45440
H          0.97560        5.21610        8.08100
H         -1.16760        6.21460        7.33310
H         -0.94990        4.61340        6.61470
H         -2.05520        4.82890        7.97520
H          2.87130       -8.69870        5.86640
H          2.33490       -8.59300        7.55420
H         -0.04180       -8.57160        6.79560
H          0.49170       -8.68810        5.11560
H          0.79470      -10.02280        6.23250
H         -0.25800       -3.42050        4.86040
H         -2.19990        0.81710        3.72760
H         -2.64460        6.08200        3.51610
H         -1.14770        5.29280        2.98250
H         -1.58010        6.06440        0.65020
H         -3.07650        6.83880        1.17930
H         -1.52030        7.43110        1.76650
H         -3.79520       -7.05400       -2.67000
H         -2.44660       -7.54460       -1.64910
H         -1.01280       -5.78540       -2.75310
H         -2.37000       -5.35850       -3.79470
H         -1.63770       -6.96010       -3.91730
H         -5.15910       -2.26430       -2.00110
H         -9.08990        0.89060       -4.55500
H         -5.41840       -2.19890       -5.51470
H         -2.62460       -2.32070       -3.78830
H          1.79290       -5.65330       -2.07490
H          3.00680       -4.53880       -1.46030
H          3.90480       -4.21150       -3.75640
H          2.67350       -5.29960       -4.40400
H          3.91920       -5.92050       -3.31870
H         -4.34080        6.19950       -7.13460
H         -3.65980        6.34580       -8.76680
H         -5.16500        4.52340       -9.55650
H         -6.09890        5.84540       -8.85000
H         -5.83290        4.35990       -7.92980
H          0.94180        3.32080       -6.39940
H          4.88820        4.78230       -7.68990
H          6.44100        1.70070       -4.34390
H          3.10780        2.50790       -2.92560
H         -2.26500        4.90810       -1.91510
H         -2.90690        3.71880       -0.77410
H         -3.92090        3.37930       -3.00580
H         -2.91980        1.98960       -2.57030
H         -2.31850        3.18390       -3.72020
H          7.78690       -5.09600       -1.77020
H          8.22630       -5.45970       -0.08980
H          7.19040       -7.43770       -1.18620
H          5.73600       -6.49480       -1.53380
H          6.17420       -6.86050        0.13820
H          2.79270       -2.98620        1.63630
H          0.58330       -2.16670        2.71330
