191

C          0.33320       -4.11330       10.67270
C          1.29520       -3.16940       10.67770
C          1.64250       -2.72540        9.36650
C          2.60600       -1.77490        9.00100
C          3.46760       -1.12540        9.99730
C          4.20200       -1.88250       10.90860
C          5.03570       -1.26900       11.81830
C          5.15880        0.11870       11.87050
S          6.22170        0.78630       13.11620
C          7.03380        2.21230       12.30380
C          7.78030        1.80350       11.05030
C          4.39630        0.86180       10.97460
F          4.42250        2.21230       10.99410
C          3.57930        0.25970       10.03900
C          2.72630       -1.50150        7.64660
C          1.95900       -2.15360        6.65130
C          1.00960       -3.11950        7.01380
C          0.23920       -3.86810        6.01370
C          0.87420       -4.48700        4.93730
C          0.15540       -5.25170        4.04470
C         -1.22040       -5.42850        4.18130
S         -2.02250       -6.43760        2.97090
C         -3.27700       -7.37050        3.92450
C         -2.65350       -8.17770        5.04490
C         -1.84650       -4.77040        5.23530
C         -1.13760       -4.01380        6.14530
F         -3.18260       -4.85960        5.41460
C          0.86490       -3.36710        8.37370
S         -0.22740       -4.52490        9.08880
C          2.27920       -1.68300        5.34500
C          3.25570       -0.74730        5.34430
S          3.86270       -0.37570        6.94670
S          3.97740       -0.03220        3.91600
C          3.68830        1.68240        4.22130
C          2.75180        2.19310        5.06430
S          2.76090        3.91200        5.07510
C          4.01340        3.95140        3.90530
C          4.41050        2.70540        3.53810
S          5.71850        2.44230        2.37590
C          4.88840        1.73520        1.01960
C          3.60030        1.38480        0.96600
C          2.95400        0.83510       -0.18330
C          1.71110        0.27880       -0.20710
C          1.25670       -0.06810       -1.50540
C          0.00990       -0.60520       -1.87770
C         -0.94800       -0.98460       -0.83060
C         -1.28910       -0.09340        0.18710
C         -2.05910       -0.50450        1.25170
C         -2.50320       -1.82340        1.37060
S         -3.29270       -2.21250        2.89950
C         -4.35020       -3.67580        2.61860
C         -5.47080       -3.39320        1.64310
C         -2.18720       -2.69110        0.33010
F         -2.56120       -3.98720        0.36170
C         -1.44340       -2.28070       -0.76040
C         -0.20290       -0.79110       -3.23490
C          0.76420       -0.46760       -4.21700
C          2.02280        0.02600       -3.84470
C          3.05310        0.33050       -4.84560
C          2.77660        1.14840       -5.93910
C          3.74870        1.42290       -6.87620
C          5.02960        0.88720       -6.76800
S          6.18380        1.26440       -8.05590
C          7.74440        1.59010       -7.15550
C          7.58910        2.70090       -6.13660
C          5.28770        0.05890       -5.68020
C          4.33000       -0.20620       -4.72240
F          6.49550       -0.52710       -5.53090
C          2.23630        0.21260       -2.48810
S          3.67500        0.89940       -1.78030
C          0.30530       -0.73720       -5.53420
C         -0.95280       -1.23560       -5.56880
S         -1.66310       -1.40920       -3.97990
S         -1.86180       -1.70170       -6.99580
C         -0.48960       -1.87540       -8.11160
C          0.37780       -2.92070       -8.05130
S          1.64660       -2.77620       -9.19660
C          0.98610       -1.30860       -9.79740
C         -0.14010       -0.94340       -9.13090
S         -1.09070        0.51300       -9.47500
C          0.10990        1.74330       -9.01650
C          0.04780        2.49170       -7.91190
C         -0.90220        2.36960       -6.84320
C         -2.11730        1.76150       -6.81410
C         -2.67650        1.66560       -5.51660
C         -3.85990        0.99860       -5.17270
C         -4.68350        0.33090       -6.18730
C         -5.17480        1.00110       -7.30140
C         -5.92150        0.34010       -8.25860
C         -6.20420       -1.01500       -8.13140
S         -7.11570       -1.99140       -9.27930
C         -7.85050       -0.77930      -10.42880
C         -8.98600        0.00360       -9.79670
C         -5.69820       -1.67370       -7.00960
F         -5.94410       -2.99220       -6.85640
C         -4.95290       -1.02910       -6.05110
C         -4.14060        0.91150       -3.82280
C         -3.31670        1.46430       -2.81150
C         -2.15470        2.18140       -3.15940
C         -1.31460        2.79610       -2.12600
C          0.07790        2.74240       -2.18240
C          0.85080        3.26720       -1.16950
C          0.27650        3.85330       -0.04390
S          1.36260        4.35320        1.25770
C          0.56430        5.87330        1.91980
C          1.61110        6.73660        2.59450
C         -1.11260        3.93820       -0.01410
C         -1.89620        3.44380       -1.03680
F         -1.75080        4.50700        1.03490
C         -1.85020        2.23380       -4.51700
S         -0.43190        2.94240       -5.24320
C         -3.78250        1.10130       -1.51740
C         -4.90810        0.34640       -1.54680
S         -5.51810        0.07750       -3.15880
S         -5.71860       -0.30130       -0.14150
C         -6.79530       -1.47870       -0.90950
C         -8.14570       -1.42200       -0.76910
S         -8.93330       -2.71040       -1.58000
C         -7.42520       -3.34980       -2.10550
C         -6.37050       -2.60010       -1.68720
S         -4.67420       -2.96290       -2.00280
C         -4.76980       -3.62950       -3.62890
C         -3.75120       -4.23190       -4.21600
H         -0.10830       -4.60920       11.51500
H          1.74640       -2.77900       11.57160
H          4.14130       -2.95980       10.87810
H          5.61560       -1.85800       12.51170
H          7.71970        2.57400       13.07000
H          6.28890        2.97910       12.10450
H          8.31460        2.66140       10.64730
H          8.49840        1.01660       11.27220
H          7.09310        1.43970       10.28860
H          3.00950        0.88680        9.37110
H          1.94460       -4.40190        4.82650
H          0.65310       -5.74390        3.22340
H         -4.03380       -6.68060        4.29110
H         -3.72450       -8.02070        3.17260
H         -1.88240       -8.83940        4.65570
H         -2.20470       -7.52500        5.79150
H         -3.41820       -8.77980        5.53150
H         -1.67940       -3.52220        6.93780
H          1.78370       -2.01220        4.45010
H          2.05810        1.66320        5.68510
H          4.40120        4.88500        3.55180
H          5.55700        1.59460        0.18400
H          2.94990        1.52580        1.81650
H          1.13720        0.12470        0.68760
H         -0.94900        0.93010        0.13150
H         -2.31520        0.18810        2.03910
H         -3.72610       -4.50380        2.29090
H         -4.73780       -3.88590        3.61570
H         -5.06610       -3.20520        0.65270
H         -6.13510       -4.25340        1.58460
H         -6.04620       -2.52410        1.95670
H         -1.21010       -3.00660       -1.52350
H          1.80150        1.59790       -6.03280
H          3.53300        2.06540       -7.71590
H          8.08950        0.66420       -6.70080
H          8.43520        1.87580       -7.94880
H          7.21670        3.60620       -6.61170
H          8.55350        2.91600       -5.68080
H          6.89420        2.41260       -5.34980
H          4.58360       -0.85820       -3.90120
H          0.90570       -0.57040       -6.40920
H          0.35130       -3.75290       -7.37700
H          1.47060       -0.79380      -10.60240
H          0.90960        1.86250       -9.73050
H          0.83930        3.21430       -7.74920
H         -2.60860        1.36360       -7.68010
H         -4.98270        2.05740       -7.41750
H         -6.27410        0.89420       -9.11310
H         -7.05840       -0.13600      -10.80980
H         -8.21780       -1.39750      -11.24810
H         -9.76740       -0.67470       -9.46250
H         -8.63890        0.57410       -8.93800
H         -9.41050        0.69260      -10.52450
H         -4.55480       -1.59410       -5.22340
H          0.56590        2.26640       -3.01620
H          1.92660        3.22150       -1.22690
H          0.11780        6.38850        1.07070
H         -0.21180        5.57630        2.62310
H          2.41560        6.97420        1.90180
H          2.03070        6.22340        3.45650
H          1.15480        7.66460        2.93260
H         -2.96510        3.57270       -0.96990
H         -3.28050        1.33540       -0.59930
H         -8.71380       -0.68750       -0.23510
H         -7.40860       -4.25080       -2.68490
H         -5.71950       -3.46770       -4.11250
H         -2.81240       -4.38480       -3.71290
H         -3.83540       -4.58610       -5.22830
