194

C          5.62050       -4.42110        6.62720
C          5.44830       -5.15680        5.51010
C          4.21550       -4.88000        4.85030
C          3.73500       -5.42690        3.64910
C          4.53550       -6.32170        2.82990
S          6.13890       -5.86910        2.32730
C          6.31980       -7.28620        1.35100
C          7.58260       -7.55810        0.61080
C          8.62360       -8.21140        1.52270
C          5.20390       -8.06360        1.43530
Cl         5.01050       -9.55430        0.60790
C          4.18900       -7.51980        2.26860
Cl         2.72680       -8.35590        2.58620
C          2.47670       -5.01150        3.23200
C          1.70270       -4.06950        3.95220
C          2.22040       -3.45510        5.10370
C          1.51210       -2.35750        5.73780
S          1.28090       -2.28170        7.45970
C          0.48610       -0.74780        7.36990
C         -0.03480       -0.06910        8.58760
C         -1.48600       -0.47040        8.86180
C          0.40050       -0.33560        6.07340
C          0.97420       -1.24430        5.14640
Cl         1.04140       -0.88590        3.46780
Cl        -0.28090        1.16030        5.58170
C          3.45900       -3.90730        5.54680
S          4.30980       -3.34150        6.95590
C          0.45000       -3.83430        3.33720
C          0.29820       -4.49010        2.15280
S          1.67660       -5.49010        1.76460
C         -0.75650       -4.30260        1.21010
C         -1.57240       -3.21210        1.15370
C         -2.34080       -3.14830       -0.03210
C         -3.14490       -2.08110       -0.46620
C         -3.37570       -0.93780        0.40330
S         -2.99470        0.69300       -0.06990
C         -3.47570        1.33700        1.45990
C         -3.36200        2.79350        1.75340
C         -2.25380        3.07680        2.76920
C         -3.90320        0.33670        2.28200
Cl        -4.48030        0.58750        3.87790
C         -3.84240       -0.95150        1.68960
Cl        -4.37580       -2.36920        2.49860
C         -3.63950       -2.16510       -1.75970
C         -3.40580       -3.27530       -2.60680
C         -2.65320       -4.36910       -2.14720
C         -2.43710       -5.54360       -2.97440
S         -0.84920       -6.19380       -3.25300
C         -1.46320       -7.48910       -4.21920
C         -0.54490       -8.46710       -4.86430
C          0.01880       -7.90790       -6.17280
C         -2.81990       -7.40560       -4.31840
C         -3.37770       -6.30760       -3.60980
Cl        -5.06980       -6.03900       -3.50510
Cl        -3.78730       -8.51740       -5.19750
C         -2.10400       -4.25890       -0.87620
S         -0.98050       -5.37510       -0.15150
C         -3.93600       -3.06670       -3.90900
C         -4.55700       -1.86830       -4.03150
S         -4.56360       -0.92850       -2.55600
N         -5.15850       -1.34670       -5.16980
C         -6.02660       -2.02570       -6.01730
S         -6.47060       -3.59440       -5.84650
C         -6.45130       -1.09640       -7.02130
C         -5.84410        0.09850       -6.79490
C         -5.03530       -0.05120       -5.58780
S         -4.20000        1.13820       -4.82650
C         -5.91510        1.38860       -7.42850
C         -4.79890        2.10680       -7.60080
N         -4.76910        3.47130       -7.84980
C         -3.81170        4.10520       -8.61360
S         -2.77760        3.31970       -9.61500
C         -3.89190        5.50880       -8.32940
C         -4.81770        5.69590       -7.35420
C         -5.43280        4.40110       -7.07830
S         -6.69560        4.09620       -6.08340
C         -5.14970        6.88330       -6.58400
C         -4.80900        7.02420       -5.29540
C         -3.96910        6.15360       -4.52100
C         -3.63510        6.34180       -3.21130
C         -2.69160        5.40810       -2.71630
C         -2.11290        5.36740       -1.43720
C         -2.57330        6.22410       -0.35640
S         -4.24000        6.17930        0.14390
C         -3.95830        7.28230        1.44750
C         -5.04600        7.64570        2.39650
C         -5.18700        6.58370        3.49000
C         -2.64800        7.65530        1.47740
Cl        -1.98840        8.74300        2.62900
C         -1.85950        7.05960        0.45550
Cl        -0.20090        7.43200        0.23860
C         -1.10960        4.43110       -1.23440
C         -0.72410        3.48090       -2.21450
C         -1.38170        3.44820       -3.45940
C         -1.16260        2.38020       -4.41690
S         -1.05320        2.70500       -6.12500
C         -0.98080        1.02440       -6.53230
C         -0.81920        0.57290       -7.94090
C          0.65920        0.52680       -8.33370
C         -1.02960        0.26820       -5.40000
C         -1.12500        1.02530       -4.20160
Cl        -1.26870        0.24210       -2.68470
Cl        -1.03530       -1.44940       -5.38780
C         -2.30140        4.46790       -3.70000
S         -3.13120        4.76450       -5.19660
C          0.32840        2.65520       -1.75100
C          0.69810        2.91300       -0.46170
S         -0.21020        4.23040        0.23620
C          1.62180        2.18360        0.34580
C          2.16700        0.96740        0.05750
C          2.87580        0.39510        1.14060
C          3.37530       -0.91940        1.24760
C          2.99950       -1.92810        0.28240
S          4.10470       -3.17440       -0.23370
C          2.98420       -3.81690       -1.38480
C          3.31070       -5.01350       -2.20640
C          2.92820       -6.30050       -1.47090
C          1.81720       -3.11360       -1.34730
Cl         0.50500       -3.36370       -2.42590
C          1.80440       -2.07390       -0.38180
Cl         0.34980       -1.22490       -0.04130
C          4.20750       -1.16530        2.33730
C          4.44960       -0.21240        3.35560
C          3.75840        1.01360        3.35810
C          3.82120        1.93460        4.47700
S          3.96680        3.64900        4.20610
C          3.91310        4.00970        5.89630
C          3.94520        5.41620        6.38180
C          2.58620        6.09190        6.18460
C          3.78110        2.86110        6.61700
C          3.74320        1.68470        5.82210
Cl         3.55380        0.13860        6.54050
Cl         3.66450        2.80780        8.32870
C          3.00030        1.29690        2.22520
S          2.05990        2.73670        1.94830
C          5.42650       -0.67830        4.28370
C          5.85570       -1.92640        4.01080
S          5.10950       -2.62480        2.61650
H          6.45030       -4.43870        7.30650
H          6.15780       -5.88170        5.15540
H          7.36030       -8.22310       -0.22550
H          7.98060       -6.62060        0.21870
H          9.53720       -8.40570        0.96760
H          8.85540       -7.55640        2.35910
H          8.24550       -9.15330        1.91210
H          0.02290        1.01110        8.43710
H          0.58720       -0.33700        9.44310
H         -1.55790       -1.54430        9.01670
H         -1.85140        0.03580        9.75120
H         -2.11800       -0.19710        8.02050
H         -0.31870       -3.22250        3.76950
H         -1.56030       -2.43300        1.89270
H         -3.15700        3.32440        0.82220
H         -4.31490        3.15280        2.15100
H         -2.48940        2.61980        3.72610
H         -1.30500        2.67640        2.42110
H         -2.14410        4.14900        2.90990
H         -1.09840       -9.38560       -5.06670
H          0.27670       -8.69450       -4.18270
H          0.69150       -8.62910       -6.62900
H         -0.78800       -7.69480       -6.86950
H          0.56700       -6.98800       -5.98350
H         -3.82300       -3.76260       -4.71910
H         -7.12030       -1.36020       -7.81690
H         -6.89170        1.79490       -7.64420
H         -3.81620        1.65740       -7.52900
H         -3.25690        6.24280       -8.78600
H         -5.70420        7.66140       -7.08880
H         -5.13010        7.91120       -4.76530
H         -4.03210        7.14410       -2.61530
H         -5.98860        7.73480        1.85380
H         -4.80900        8.60970        2.85010
H         -5.97790        6.86210        4.18100
H         -5.43100        5.61990        3.04980
H         -4.25710        6.48730        4.04470
H         -1.34320        1.25950       -8.60870
H         -1.25590       -0.42300       -8.04240
H          0.75870        0.19180       -9.36230
H          1.10120        1.51600       -8.24470
H          1.20160       -0.15880       -7.68740
H          0.81090        1.91480       -2.36000
H          2.07610        0.50200       -0.90490
H          2.75590       -4.95520       -3.14480
H          4.37950       -5.02240       -2.42560
H          1.86090       -6.31470       -1.26560
H          3.46430       -6.37080       -0.52740
H          3.17850       -7.16490       -2.07950
H          4.70760        5.97220        5.83280
H          4.20770        5.41500        7.44110
H          1.81620        5.55890        6.73670
H          2.62420        7.11770        6.54090
H          2.31750        6.09620        5.13090
H          5.80960       -0.08310        5.09110
H          6.58790       -2.50500        4.53880
