228

C         -7.71800      -11.93370       11.74350
C         -7.38190      -12.34030       10.50280
C         -7.44140      -11.29000        9.54030
C         -7.18210      -11.35820        8.16160
C         -6.68000      -12.57280        7.54040
S         -7.44190      -13.26220        6.13920
C         -6.27980      -14.54020        6.04090
C         -6.32530      -15.53810        4.93720
C         -5.65310      -14.98390        3.67850
C         -5.35550      -14.41910        7.03530
Cl        -4.03670      -15.49560        7.25410
C         -5.58150      -13.30790        7.89080
Cl        -4.51860      -12.90030        9.17580
C         -7.39480      -10.20230        7.42140
C         -7.80410       -8.98410        8.01330
C         -8.06130       -8.91070        9.39290
C         -8.50700       -7.66140        9.98570
S         -7.69010       -6.96060       11.35180
C         -8.70620       -5.56040       11.34200
C         -8.48830       -4.43400       12.29110
C         -7.56350       -3.37740       11.68090
C         -9.62180       -5.64650       10.33570
C         -9.51960       -6.83830        9.57050
Cl       -10.62500       -7.21010        8.30770
Cl       -10.79060       -4.43590        9.99860
C         -7.86230      -10.07220       10.12750
S         -8.13870      -10.25800       11.83600
C         -7.85980       -7.93340        7.06950
C         -7.55820       -8.32200        5.79720
S         -7.13890      -10.01790        5.70700
C         -7.57810       -7.46460        4.65550
C         -8.08600       -6.19820        4.63940
C         -7.93070       -5.53910        3.39980
C         -8.30910       -4.21980        3.08590
C         -9.07460       -3.44630        4.04720
S         -8.55780       -1.88060        4.59900
C         -9.86620       -1.76070        5.72450
C         -9.98790       -0.60880        6.65990
C         -9.35570       -0.94370        8.01390
C        -10.65640       -2.87020        5.65730
Cl       -12.04870       -3.11240        6.63000
C        -10.21360       -3.82600        4.70610
Cl       -11.07720       -5.27550        4.38750
C         -7.86820       -3.71980        1.86970
C         -7.15390       -4.51680        0.94170
C         -6.88730       -5.87400        1.20440
C         -6.20910       -6.68090        0.20610
S         -4.76910       -7.58410        0.57300
C         -4.57950       -8.09650       -1.06870
C         -3.40440       -8.90090       -1.50310
C         -2.28380       -7.99070       -2.01330
C         -5.58540       -7.59780       -1.84260
C         -6.51270       -6.79860       -1.12390
Cl        -7.90570       -6.11650       -1.86040
Cl        -5.72790       -7.88820       -3.52760
C         -7.24810       -6.34640        2.45740
S         -6.90060       -7.92450        3.10890
C         -6.69360       -3.75690       -0.15590
C         -7.04240       -2.43860       -0.09630
S         -8.02640       -2.07820        1.30570
C         -6.54680       -1.43090       -0.97890
C         -5.46330       -1.59820       -1.79210
C         -5.08600       -0.42830       -2.48390
C         -3.99440       -0.27490       -3.35570
C         -3.19580       -1.41820       -3.75660
S         -1.45660       -1.38140       -3.68520
C         -1.31850       -3.02130       -4.21530
C          0.01050       -3.65380       -4.43900
C          0.44570       -3.49390       -5.89780
C         -2.55380       -3.54990       -4.44590
Cl        -2.82160       -5.16030       -4.97480
C         -3.61970       -2.64730       -4.18960
Cl        -5.25750       -3.06720       -4.49600
C         -3.69890        1.02230       -3.74770
C         -4.48620        2.14260       -3.38470
C         -5.63560        1.96770       -2.58990
C         -6.48040        3.10070       -2.24880
S         -7.14750        4.10790       -3.50150
C         -7.97400        5.11500       -2.36260
C         -8.76010        6.29850       -2.80680
C         -7.84700        7.50610       -3.03360
C         -7.72580        4.69130       -1.09140
C         -6.88400        3.54790       -1.02150
Cl        -6.36850        2.88400        0.47150
Cl        -8.36230        5.44840        0.31040
C         -5.89690        0.68060       -2.13460
S         -7.17150        0.19950       -1.04590
C         -3.89170        3.36320       -3.80200
C         -2.70040        3.18990       -4.44230
S         -2.29940        1.49730       -4.65670
C         -1.68990        4.14680       -4.76960
C         -1.71380        5.51070       -4.86070
C         -0.43560        6.09600       -5.02430
C         -0.34110        7.56110       -5.13430
O         -1.25960        8.30710       -4.89570
O          0.86650        7.97190       -5.53890
C          1.08580        9.37630       -5.66310
C          0.75530        9.86000       -7.06700
C          0.59520        5.16470       -5.02540
S         -0.06210        3.55670       -4.90890
C          2.02190        5.22960       -4.97150
C          2.78710        4.13380       -4.66740
C          4.16930        4.39020       -4.58890
C          5.19000        3.49290       -4.22310
C          4.90660        2.08390       -4.02170
S          5.43400        1.23850       -2.59580
C          4.70550       -0.24380       -3.10880
C          4.72980       -1.46170       -2.25270
C          3.50350       -1.50750       -1.33750
C          4.09300       -0.07820       -4.31530
Cl         3.25650       -1.32760       -5.13760
C          4.21090        1.23510       -4.84090
Cl         3.60900        1.65700       -6.39290
C          6.45540        4.03280       -4.05590
C          6.75910        5.39650       -4.30290
C          5.73750        6.28130       -4.69250
C          5.98580        7.69740       -4.90120
S          5.44790        8.49400       -6.34950
C          6.04630       10.03080       -5.82060
C          5.86640       11.25040       -6.65540
C          4.39400       11.65940       -6.72440
C          6.61620        9.91740       -4.58790
C          6.58710        8.59600       -4.06420
Cl         7.17320        8.21810       -2.49510
Cl         7.31300       11.22770       -3.72540
C          4.45890        5.75290       -4.82950
S          3.01030        6.65680       -5.18590
C          8.13680        5.66950       -4.10440
C          8.84720        4.59000       -3.67270
S          7.86030        3.14630       -3.54760
C         10.21680        4.50490       -3.28640
C         10.80570        3.43810       -2.67600
C         12.17330        3.63930       -2.37530
C         13.06140        2.74200       -1.75970
C         12.60900        1.42830       -1.33060
S         11.79240        0.35250       -2.42730
C         11.56250       -0.85070       -1.20510
C         10.79490       -2.09400       -1.49030
C          9.28940       -1.81420       -1.49180
C         12.09720       -0.43130       -0.02420
Cl        12.05780       -1.34880        1.42530
C         12.69670        0.85610       -0.09200
Cl        13.36510        1.62790        1.28380
C         14.37030        3.17440       -1.58660
C         14.81330        4.46040       -1.98150
C         13.91570        5.36820       -2.56620
C         14.33230        6.70360       -2.96630
S         15.66920        6.95120       -4.05070
C         15.48140        8.67100       -4.01800
C         16.35150        9.56180       -4.83400
C         15.76390        9.76970       -6.23200
C         14.43480        9.01640       -3.21660
C         13.78230        7.90550       -2.61680
Cl        12.49100        8.09020       -1.50530
Cl        13.94280       10.63540       -2.93300
C         12.61100        4.93080       -2.75830
S         11.32780        5.83690       -3.51270
C         16.19680        4.64680       -1.69360
C         16.76880        3.55610       -1.14360
S         15.67570        2.23650       -0.92070
H         -7.75400      -12.51970       12.64100
H         -7.11310      -13.35150       10.25980
H         -5.80940      -16.44390        5.26060
H         -7.36430      -15.78630        4.71420
H         -4.61200      -14.74580        3.88140
H         -6.15830      -14.07910        3.34890
H         -5.69350      -15.71900        2.87930
H         -9.45270       -3.97910       12.52570
H         -8.04760       -4.81790       13.21210
H         -7.41510       -2.56170       12.38310
H         -7.99890       -2.97700       10.76890
H         -6.59650       -3.81410       11.44310
H         -8.08700       -6.91880        7.33320
H         -8.53890       -5.73740        5.49600
H        -11.04590       -0.37880        6.80220
H         -9.49380        0.26250        6.22830
H         -9.85040       -1.80440        8.45680
H         -8.29960       -1.17290        7.89100
H         -9.45370       -0.09920        8.69070
H         -3.04140       -9.49480       -0.66320
H         -3.71520       -9.57570       -2.30330
H         -1.95800       -7.31480       -1.22610
H         -2.63260       -7.39970       -2.85620
H         -1.43510       -8.58840       -2.33490
H         -6.09370       -4.16860       -0.94450
H         -4.90600       -2.51330       -1.84310
H         -0.05590       -4.71560       -4.19240
H          0.74900       -3.18570       -3.78680
H          1.41860       -3.95370       -6.04890
H         -0.27240       -3.96920       -6.56080
H          0.51460       -2.44020       -6.15670
H         -9.49780        6.53620       -2.03850
H         -9.28360        6.06030       -3.73430
H         -8.43440        8.36350       -3.35030
H         -7.32470        7.76160       -2.11520
H         -7.11090        7.28410       -3.80260
H         -4.29650        4.33070       -3.56920
H         -2.60590        6.10780       -4.81190
H          2.14500        9.51810       -5.43620
H          0.46810        9.89650       -4.92400
H         -0.30160        9.70930       -7.27320
H          0.98210       10.91900       -7.15020
H          1.34050        9.30900       -7.79940
H          2.36020        3.17100       -4.45380
H          5.63820       -1.46140       -1.64850
H          4.73600       -2.34350       -2.89670
H          3.49370       -0.64370       -0.67740
H          3.52240       -2.40950       -0.73200
H          2.59080       -1.50160       -1.92820
H          6.45780       12.05780       -6.22120
H          6.23240       11.05620       -7.66610
H          4.01200       11.86710       -5.72780
H          3.80350       10.85990       -7.16520
H          4.28300       12.55310       -7.33240
H          8.58880        6.63100       -4.26590
H         10.26310        2.54100       -2.44030
H         11.03150       -2.83440       -0.72450
H         11.08980       -2.48990       -2.46390
H          8.74090       -2.72930       -1.69820
H          9.04210       -1.07820       -2.25360
H          8.97720       -1.43020       -0.52370
H         17.34530        9.11920       -4.91870
H         16.43770       10.52550       -4.32820
H         16.40490       10.42840       -6.81160
H         14.77590       10.21730       -6.16170
H         15.67870        8.81820       -6.75140
H         16.72710        5.55910       -1.89440
H         17.78910        3.43250       -0.83720
