
  xtb     03042213273D
 energy: -404.998000830368 gnorm: 0.000505433350 xtb: 6.4.1 (unknown)
232253  0     0  0            999 V2000
    1.2999   -6.3615   11.1516 C   0  0  0  0  0  0  0  0  0  0  0  0
    1.4722   -5.0957   10.7205 C   0  0  0  0  0  0  0  0  0  0  0  0
    0.7504   -4.8137    9.5225 C   0  0  0  0  0  0  0  0  0  0  0  0
    0.7299   -3.6206    8.7856 C   0  0  0  0  0  0  0  0  0  0  0  0
    1.4504   -2.4150    9.2150 C   0  0  0  0  0  0  0  0  0  0  0  0
    1.2633   -1.8681   10.4829 C   0  0  0  0  0  0  0  0  0  0  0  0
    1.8917   -0.6935   10.8375 C   0  0  0  0  0  0  0  0  0  0  0  0
    2.7470   -0.0311    9.9577 C   0  0  0  0  0  0  0  0  0  0  0  0
    3.5032    1.4595   10.5326 S   0  0  0  0  0  0  0  0  0  0  0  0
    3.5618    2.5407    9.0552 C   0  0  0  0  0  0  0  0  0  0  0  0
    2.1919    2.7550    8.4444 C   0  0  0  0  0  0  0  0  0  0  0  0
    2.9643   -0.6186    8.7151 C   0  0  0  0  0  0  0  0  0  0  0  0
    3.8305   -0.0770    7.8315 F   0  0  0  0  0  0  0  0  0  0  0  0
    2.3140   -1.7742    8.3337 C   0  0  0  0  0  0  0  0  0  0  0  0
   -0.0230   -3.6205    7.6210 C   0  0  0  0  0  0  0  0  0  0  0  0
   -0.7452   -4.7517    7.1741 C   0  0  0  0  0  0  0  0  0  0  0  0
   -0.7071   -5.9550    7.8964 C   0  0  0  0  0  0  0  0  0  0  0  0
   -1.4307   -7.1242    7.3848 C   0  0  0  0  0  0  0  0  0  0  0  0
   -1.2646   -7.5150    6.0575 C   0  0  0  0  0  0  0  0  0  0  0  0
   -2.0116   -8.5394    5.5134 C   0  0  0  0  0  0  0  0  0  0  0  0
   -2.9647   -9.2060    6.2757 C   0  0  0  0  0  0  0  0  0  0  0  0
   -4.0256  -10.4755    5.6700 S   0  0  0  0  0  0  0  0  0  0  0  0
   -4.0059  -10.2318    3.8578 C   0  0  0  0  0  0  0  0  0  0  0  0
   -4.6492   -8.9260    3.4325 C   0  0  0  0  0  0  0  0  0  0  0  0
   -3.0756   -8.8468    7.6202 C   0  0  0  0  0  0  0  0  0  0  0  0
   -2.3300   -7.8312    8.1783 C   0  0  0  0  0  0  0  0  0  0  0  0
   -3.9624   -9.4961    8.4003 F   0  0  0  0  0  0  0  0  0  0  0  0
    0.0318   -5.9482    9.0696 C   0  0  0  0  0  0  0  0  0  0  0  0
    0.2581   -7.3053   10.1418 S   0  0  0  0  0  0  0  0  0  0  0  0
   -1.4957   -4.4689    6.0065 C   0  0  0  0  0  0  0  0  0  0  0  0
   -1.3536   -3.1914    5.5577 C   0  0  0  0  0  0  0  0  0  0  0  0
   -0.2688   -2.2505    6.5631 S   0  0  0  0  0  0  0  0  0  0  0  0
   -1.9897   -2.6323    4.4115 C   0  0  0  0  0  0  0  0  0  0  0  0
   -1.9620   -1.3533    3.9461 C   0  0  0  0  0  0  0  0  0  0  0  0
   -2.7369   -1.1565    2.7716 C   0  0  0  0  0  0  0  0  0  0  0  0
   -2.9547    0.0401    2.0623 C   0  0  0  0  0  0  0  0  0  0  0  0
   -2.2536    1.2667    2.4591 C   0  0  0  0  0  0  0  0  0  0  0  0
   -2.9344    2.4561    2.6951 C   0  0  0  0  0  0  0  0  0  0  0  0
   -2.2704    3.5829    3.1417 C   0  0  0  0  0  0  0  0  0  0  0  0
   -0.8940    3.5692    3.3377 C   0  0  0  0  0  0  0  0  0  0  0  0
    0.0594    4.9308    3.9142 S   0  0  0  0  0  0  0  0  0  0  0  0
   -1.0600    6.3646    3.7015 C   0  0  0  0  0  0  0  0  0  0  0  0
   -0.2450    7.6409    3.7916 C   0  0  0  0  0  0  0  0  0  0  0  0
   -0.2212    2.3745    3.0752 C   0  0  0  0  0  0  0  0  0  0  0  0
    1.1182    2.3228    3.2459 F   0  0  0  0  0  0  0  0  0  0  0  0
   -0.8723    1.2411    2.6489 C   0  0  0  0  0  0  0  0  0  0  0  0
   -3.8336   -0.0210    0.9910 C   0  0  0  0  0  0  0  0  0  0  0  0
   -4.4704   -1.2230    0.5969 C   0  0  0  0  0  0  0  0  0  0  0  0
   -4.2441   -2.4193    1.2881 C   0  0  0  0  0  0  0  0  0  0  0  0
   -4.9166   -3.6698    0.9115 C   0  0  0  0  0  0  0  0  0  0  0  0
   -6.3058   -3.7319    0.8143 C   0  0  0  0  0  0  0  0  0  0  0  0
   -6.9372   -4.9245    0.5320 C   0  0  0  0  0  0  0  0  0  0  0  0
   -6.2163   -6.1008    0.3311 C   0  0  0  0  0  0  0  0  0  0  0  0
   -7.1520   -7.5940    0.1431 S   0  0  0  0  0  0  0  0  0  0  0  0
   -6.2893   -8.5321   -1.1715 C   0  0  0  0  0  0  0  0  0  0  0  0
   -6.4246   -7.8545   -2.5199 C   0  0  0  0  0  0  0  0  0  0  0  0
   -4.8310   -6.0184    0.4163 C   0  0  0  0  0  0  0  0  0  0  0  0
   -4.1838   -4.8311    0.6926 C   0  0  0  0  0  0  0  0  0  0  0  0
   -4.0594   -7.1185    0.2415 F   0  0  0  0  0  0  0  0  0  0  0  0
   -3.3732   -2.3536    2.3626 C   0  0  0  0  0  0  0  0  0  0  0  0
   -2.9765   -3.6850    3.4119 S   0  0  0  0  0  0  0  0  0  0  0  0
   -5.2426   -1.0587   -0.5771 C   0  0  0  0  0  0  0  0  0  0  0  0
   -5.2103    0.1982   -1.0869 C   0  0  0  0  0  0  0  0  0  0  0  0
   -4.2586    1.2861   -0.0922 S   0  0  0  0  0  0  0  0  0  0  0  0
   -5.7693    0.6106   -2.3480 C   0  0  0  0  0  0  0  0  0  0  0  0
   -6.1998    1.8774   -2.6367 C   0  0  0  0  0  0  0  0  0  0  0  0
   -6.2513    2.8966   -1.7633 O   0  0  0  0  0  0  0  0  0  0  0  0
   -6.8544    4.0862   -2.2185 C   0  0  0  0  0  0  0  0  0  0  0  0
   -6.7478    2.0240   -4.2827 S   0  0  0  0  0  0  0  0  0  0  0  0
   -6.3769    0.3441   -4.5817 C   0  0  0  0  0  0  0  0  0  0  0  0
   -6.5699   -0.2418   -5.7778 O   0  0  0  0  0  0  0  0  0  0  0  0
   -7.1104    0.5610   -6.7996 C   0  0  0  0  0  0  0  0  0  0  0  0
   -5.8689   -0.2724   -3.4812 C   0  0  0  0  0  0  0  0  0  0  0  0
   -5.4972   -1.6961   -3.4998 C   0  0  0  0  0  0  0  0  0  0  0  0
   -6.4252   -2.6761   -3.3209 C   0  0  0  0  0  0  0  0  0  0  0  0
   -7.7335   -2.4782   -3.0722 O   0  0  0  0  0  0  0  0  0  0  0  0
   -8.5184   -3.6294   -2.8699 C   0  0  0  0  0  0  0  0  0  0  0  0
   -5.7227   -4.2711   -3.3965 S   0  0  0  0  0  0  0  0  0  0  0  0
   -4.1506   -3.5893   -3.7021 C   0  0  0  0  0  0  0  0  0  0  0  0
   -3.0599   -4.3549   -3.8841 O   0  0  0  0  0  0  0  0  0  0  0  0
   -3.1712   -5.7173   -3.5428 C   0  0  0  0  0  0  0  0  0  0  0  0
   -4.1789   -2.2182   -3.7305 C   0  0  0  0  0  0  0  0  0  0  0  0
   -2.9888   -1.4263   -3.9135 C   0  0  0  0  0  0  0  0  0  0  0  0
   -1.8395   -1.7667   -4.5594 C   0  0  0  0  0  0  0  0  0  0  0  0
   -0.8212   -0.7782   -4.4743 C   0  0  0  0  0  0  0  0  0  0  0  0
    0.4822   -0.7983   -5.0018 C   0  0  0  0  0  0  0  0  0  0  0  0
    0.9307   -1.8729   -5.8932 C   0  0  0  0  0  0  0  0  0  0  0  0
    2.1596   -2.5006   -5.7115 C   0  0  0  0  0  0  0  0  0  0  0  0
    2.5903   -3.4930   -6.5699 C   0  0  0  0  0  0  0  0  0  0  0  0
    1.8118   -3.8874   -7.6518 C   0  0  0  0  0  0  0  0  0  0  0  0
    2.2445   -5.1419   -8.8120 S   0  0  0  0  0  0  0  0  0  0  0  0
    4.0575   -5.2857   -8.6453 C   0  0  0  0  0  0  0  0  0  0  0  0
    4.7796   -4.0412   -9.1247 C   0  0  0  0  0  0  0  0  0  0  0  0
    0.5757   -3.2598   -7.8147 C   0  0  0  0  0  0  0  0  0  0  0  0
   -0.2133   -3.6226   -8.8471 F   0  0  0  0  0  0  0  0  0  0  0  0
    0.1320   -2.2739   -6.9635 C   0  0  0  0  0  0  0  0  0  0  0  0
    1.3100    0.2637   -4.6595 C   0  0  0  0  0  0  0  0  0  0  0  0
    0.8998    1.3349   -3.8263 C   0  0  0  0  0  0  0  0  0  0  0  0
   -0.4110    1.3745   -3.3339 C   0  0  0  0  0  0  0  0  0  0  0  0
   -0.9196    2.4363   -2.4565 C   0  0  0  0  0  0  0  0  0  0  0  0
   -0.3025    2.7445   -1.2464 C   0  0  0  0  0  0  0  0  0  0  0  0
   -0.8650    3.6670   -0.3897 C   0  0  0  0  0  0  0  0  0  0  0  0
   -2.0455    4.3293   -0.7167 C   0  0  0  0  0  0  0  0  0  0  0  0
   -2.6911    5.4978    0.4351 S   0  0  0  0  0  0  0  0  0  0  0  0
   -4.5079    5.3013    0.2521 C   0  0  0  0  0  0  0  0  0  0  0  0
   -5.1967    5.6837    1.5471 C   0  0  0  0  0  0  0  0  0  0  0  0
   -2.6186    4.0547   -1.9536 C   0  0  0  0  0  0  0  0  0  0  0  0
   -2.0859    3.1096   -2.8033 C   0  0  0  0  0  0  0  0  0  0  0  0
   -3.7158    4.7230   -2.3761 F   0  0  0  0  0  0  0  0  0  0  0  0
   -1.2385    0.3239   -3.6914 C   0  0  0  0  0  0  0  0  0  0  0  0
   -2.8857    0.1499   -3.1677 S   0  0  0  0  0  0  0  0  0  0  0  0
    1.9193    2.3024   -3.6531 C   0  0  0  0  0  0  0  0  0  0  0  0
    3.0688    2.0096   -4.3257 C   0  0  0  0  0  0  0  0  0  0  0  0
    2.9484    0.5045   -5.2141 S   0  0  0  0  0  0  0  0  0  0  0  0
    4.2675    2.7879   -4.3400 C   0  0  0  0  0  0  0  0  0  0  0  0
    4.5633    3.8286   -3.5108 C   0  0  0  0  0  0  0  0  0  0  0  0
    5.8239    4.4227   -3.7700 C   0  0  0  0  0  0  0  0  0  0  0  0
    6.4369    5.4727   -3.0691 C   0  0  0  0  0  0  0  0  0  0  0  0
    5.7338    6.1161   -1.9513 C   0  0  0  0  0  0  0  0  0  0  0  0
    4.4481    6.6259   -2.1251 C   0  0  0  0  0  0  0  0  0  0  0  0
    3.7363    7.1172   -1.0505 C   0  0  0  0  0  0  0  0  0  0  0  0
    4.2821    7.1139    0.2278 C   0  0  0  0  0  0  0  0  0  0  0  0
    3.2799    7.6277    1.5990 S   0  0  0  0  0  0  0  0  0  0  0  0
    3.3593    6.1072    2.6210 C   0  0  0  0  0  0  0  0  0  0  0  0
    2.8751    4.8947    1.8536 C   0  0  0  0  0  0  0  0  0  0  0  0
    5.5935    6.6741    0.3749 C   0  0  0  0  0  0  0  0  0  0  0  0
    6.1869    6.6984    1.5851 F   0  0  0  0  0  0  0  0  0  0  0  0
    6.3161    6.1742   -0.6901 C   0  0  0  0  0  0  0  0  0  0  0  0
    7.7130    5.8302   -3.4739 C   0  0  0  0  0  0  0  0  0  0  0  0
    8.3858    5.2015   -4.5504 C   0  0  0  0  0  0  0  0  0  0  0  0
    7.7749    4.1481   -5.2469 C   0  0  0  0  0  0  0  0  0  0  0  0
    8.4532    3.4482   -6.3455 C   0  0  0  0  0  0  0  0  0  0  0  0
    7.8282    3.2790   -7.5793 C   0  0  0  0  0  0  0  0  0  0  0  0
    8.4602    2.5997   -8.5986 C   0  0  0  0  0  0  0  0  0  0  0  0
    9.7357    2.0651   -8.4315 C   0  0  0  0  0  0  0  0  0  0  0  0
   10.4675    1.2505   -9.8225 S   0  0  0  0  0  0  0  0  0  0  0  0
   11.2666   -0.2261   -9.0905 C   0  0  0  0  0  0  0  0  0  0  0  0
   10.2715   -1.1010   -8.3553 C   0  0  0  0  0  0  0  0  0  0  0  0
   10.3565    2.2609   -7.2018 C   0  0  0  0  0  0  0  0  0  0  0  0
    9.7308    2.9279   -6.1680 C   0  0  0  0  0  0  0  0  0  0  0  0
   11.6067    1.7994   -6.9748 F   0  0  0  0  0  0  0  0  0  0  0  0
    6.4991    3.7863   -4.8392 C   0  0  0  0  0  0  0  0  0  0  0  0
    5.5470    2.4787   -5.4958 S   0  0  0  0  0  0  0  0  0  0  0  0
    9.6548    5.8066   -4.7960 C   0  0  0  0  0  0  0  0  0  0  0  0
    9.9279    6.8180   -3.9474 C   0  0  0  0  0  0  0  0  0  0  0  0
    8.6737    7.1166   -2.7928 S   0  0  0  0  0  0  0  0  0  0  0  0
    1.7255   -6.8254   12.0200 H   0  0  0  0  0  0  0  0  0  0  0  0
    2.0984   -4.3750   11.2144 H   0  0  0  0  0  0  0  0  0  0  0  0
    0.5906   -2.3480   11.1774 H   0  0  0  0  0  0  0  0  0  0  0  0
    1.7255   -0.2575   11.8104 H   0  0  0  0  0  0  0  0  0  0  0  0
    4.2667    2.1246    8.3391 H   0  0  0  0  0  0  0  0  0  0  0  0
    3.9664    3.4728    9.4504 H   0  0  0  0  0  0  0  0  0  0  0  0
    1.5002    3.1514    9.1851 H   0  0  0  0  0  0  0  0  0  0  0  0
    1.7867    1.8221    8.0569 H   0  0  0  0  0  0  0  0  0  0  0  0
    2.2667    3.4609    7.6197 H   0  0  0  0  0  0  0  0  0  0  0  0
    2.5127   -2.1798    7.3539 H   0  0  0  0  0  0  0  0  0  0  0  0
   -0.5303   -7.0141    5.4447 H   0  0  0  0  0  0  0  0  0  0  0  0
   -1.8493   -8.8130    4.4835 H   0  0  0  0  0  0  0  0  0  0  0  0
   -2.9799  -10.3238    3.5034 H   0  0  0  0  0  0  0  0  0  0  0  0
   -4.5765  -11.0832    3.4866 H   0  0  0  0  0  0  0  0  0  0  0  0
   -5.6845   -8.8882    3.7629 H   0  0  0  0  0  0  0  0  0  0  0  0
   -4.1226   -8.0717    3.8533 H   0  0  0  0  0  0  0  0  0  0  0  0
   -4.6276   -8.8434    2.3480 H   0  0  0  0  0  0  0  0  0  0  0  0
   -2.4829   -7.5756    9.2148 H   0  0  0  0  0  0  0  0  0  0  0  0
   -2.1451   -5.1796    5.5275 H   0  0  0  0  0  0  0  0  0  0  0  0
   -1.4235   -0.5696    4.4484 H   0  0  0  0  0  0  0  0  0  0  0  0
   -4.0046    2.4887    2.5578 H   0  0  0  0  0  0  0  0  0  0  0  0
   -2.8285    4.4803    3.3491 H   0  0  0  0  0  0  0  0  0  0  0  0
   -1.5272    6.2722    2.7224 H   0  0  0  0  0  0  0  0  0  0  0  0
   -1.8131    6.3258    4.4893 H   0  0  0  0  0  0  0  0  0  0  0  0
    0.2616    7.7088    4.7521 H   0  0  0  0  0  0  0  0  0  0  0  0
   -0.9017    8.5015    3.6839 H   0  0  0  0  0  0  0  0  0  0  0  0
    0.5018    7.6765    3.0017 H   0  0  0  0  0  0  0  0  0  0  0  0
   -0.3000    0.3488    2.4494 H   0  0  0  0  0  0  0  0  0  0  0  0
   -6.8919   -2.8428    0.9906 H   0  0  0  0  0  0  0  0  0  0  0  0
   -8.0146   -4.9752    0.4884 H   0  0  0  0  0  0  0  0  0  0  0  0
   -6.7924   -9.4988   -1.1639 H   0  0  0  0  0  0  0  0  0  0  0  0
   -5.2499   -8.6730   -0.8874 H   0  0  0  0  0  0  0  0  0  0  0  0
   -5.9729   -6.8651   -2.5007 H   0  0  0  0  0  0  0  0  0  0  0  0
   -7.4731   -7.7469   -2.7880 H   0  0  0  0  0  0  0  0  0  0  0  0
   -5.9275   -8.4494   -3.2834 H   0  0  0  0  0  0  0  0  0  0  0  0
   -3.1062   -4.8270    0.7489 H   0  0  0  0  0  0  0  0  0  0  0  0
   -5.7931   -1.8607   -1.0270 H   0  0  0  0  0  0  0  0  0  0  0  0
   -6.2529    4.5515   -3.0047 H   0  0  0  0  0  0  0  0  0  0  0  0
   -6.9099    4.7478   -1.3575 H   0  0  0  0  0  0  0  0  0  0  0  0
   -7.8611    3.8925   -2.6028 H   0  0  0  0  0  0  0  0  0  0  0  0
   -8.1004    0.9389   -6.5226 H   0  0  0  0  0  0  0  0  0  0  0  0
   -7.1924   -0.0792   -7.6754 H   0  0  0  0  0  0  0  0  0  0  0  0
   -6.4560    1.4106   -7.0222 H   0  0  0  0  0  0  0  0  0  0  0  0
   -9.5278   -3.2761   -2.6714 H   0  0  0  0  0  0  0  0  0  0  0  0
   -8.5172   -4.2679   -3.7598 H   0  0  0  0  0  0  0  0  0  0  0  0
   -8.1522   -4.2101   -2.0158 H   0  0  0  0  0  0  0  0  0  0  0  0
   -3.4368   -5.8401   -2.4880 H   0  0  0  0  0  0  0  0  0  0  0  0
   -2.1934   -6.1559   -3.7293 H   0  0  0  0  0  0  0  0  0  0  0  0
   -3.9238   -6.2157   -4.1631 H   0  0  0  0  0  0  0  0  0  0  0  0
   -1.7169   -2.7064   -5.0638 H   0  0  0  0  0  0  0  0  0  0  0  0
    2.7816   -2.2264   -4.8734 H   0  0  0  0  0  0  0  0  0  0  0  0
    3.5414   -3.9647   -6.3830 H   0  0  0  0  0  0  0  0  0  0  0  0
    4.3008   -6.1429   -9.2731 H   0  0  0  0  0  0  0  0  0  0  0  0
    4.2973   -5.5346   -7.6123 H   0  0  0  0  0  0  0  0  0  0  0  0
    5.8556   -4.1867   -9.0505 H   0  0  0  0  0  0  0  0  0  0  0  0
    4.5041   -3.1744   -8.5275 H   0  0  0  0  0  0  0  0  0  0  0  0
    4.5264   -3.8376  -10.1625 H   0  0  0  0  0  0  0  0  0  0  0  0
   -0.8193   -1.8029   -7.1548 H   0  0  0  0  0  0  0  0  0  0  0  0
    0.6022    2.2299   -0.9600 H   0  0  0  0  0  0  0  0  0  0  0  0
   -0.4002    3.8823    0.5594 H   0  0  0  0  0  0  0  0  0  0  0  0
   -4.8292    5.9484   -0.5632 H   0  0  0  0  0  0  0  0  0  0  0  0
   -4.6890    4.2573   -0.0002 H   0  0  0  0  0  0  0  0  0  0  0  0
   -4.8969    5.0191    2.3531 H   0  0  0  0  0  0  0  0  0  0  0  0
   -4.9494    6.7058    1.8268 H   0  0  0  0  0  0  0  0  0  0  0  0
   -6.2753    5.6093    1.4234 H   0  0  0  0  0  0  0  0  0  0  0  0
   -2.5740    2.9249   -3.7475 H   0  0  0  0  0  0  0  0  0  0  0  0
    1.7825    3.1948   -3.0704 H   0  0  0  0  0  0  0  0  0  0  0  0
    3.9164    4.1479   -2.7148 H   0  0  0  0  0  0  0  0  0  0  0  0
    4.0052    6.6263   -3.1097 H   0  0  0  0  0  0  0  0  0  0  0  0
    2.7316    7.4889   -1.1801 H   0  0  0  0  0  0  0  0  0  0  0  0
    4.3787    5.9845    2.9812 H   0  0  0  0  0  0  0  0  0  0  0  0
    2.7054    6.3193    3.4656 H   0  0  0  0  0  0  0  0  0  0  0  0
    1.8881    5.0821    1.4357 H   0  0  0  0  0  0  0  0  0  0  0  0
    2.8114    4.0419    2.5242 H   0  0  0  0  0  0  0  0  0  0  0  0
    3.5545    4.6488    1.0387 H   0  0  0  0  0  0  0  0  0  0  0  0
    7.3175    5.8105   -0.5203 H   0  0  0  0  0  0  0  0  0  0  0  0
    6.8440    3.6906   -7.7411 H   0  0  0  0  0  0  0  0  0  0  0  0
    7.9732    2.4694   -9.5523 H   0  0  0  0  0  0  0  0  0  0  0  0
   11.6795   -0.7417   -9.9575 H   0  0  0  0  0  0  0  0  0  0  0  0
   12.0829    0.0939   -8.4470 H   0  0  0  0  0  0  0  0  0  0  0  0
    9.4529   -1.3841   -9.0139 H   0  0  0  0  0  0  0  0  0  0  0  0
   10.7673   -2.0037   -8.0037 H   0  0  0  0  0  0  0  0  0  0  0  0
    9.8567   -0.5789   -7.4949 H   0  0  0  0  0  0  0  0  0  0  0  0
   10.2463    3.0274   -5.2251 H   0  0  0  0  0  0  0  0  0  0  0  0
   10.3130    5.4988   -5.5879 H   0  0  0  0  0  0  0  0  0  0  0  0
   10.8063    7.4327   -3.9166 H   0  0  0  0  0  0  0  0  0  0  0  0
  1  2  2  0  0  0  0
  2  3  1  0  0  0  0
  3  4  2  0  0  0  0
  4  5  1  0  0  0  0
  5  6  2  0  0  0  0
  6  7  1  0  0  0  0
  7  8  2  0  0  0  0
  8  9  1  0  0  0  0
  9 10  1  0  0  0  0
 10 11  1  0  0  0  0
  8 12  1  0  0  0  0
 12 13  1  0  0  0  0
 12 14  2  0  0  0  0
  4 15  1  0  0  0  0
 15 16  2  0  0  0  0
 16 17  1  0  0  0  0
 17 18  1  0  0  0  0
 18 19  2  0  0  0  0
 19 20  1  0  0  0  0
 20 21  2  0  0  0  0
 21 22  1  0  0  0  0
 22 23  1  0  0  0  0
 23 24  1  0  0  0  0
 21 25  1  0  0  0  0
 25 26  2  0  0  0  0
 25 27  1  0  0  0  0
 17 28  2  0  0  0  0
 28 29  1  0  0  0  0
 16 30  1  0  0  0  0
 30 31  2  0  0  0  0
 31 32  1  0  0  0  0
 31 33  1  0  0  0  0
 33 34  2  0  0  0  0
 34 35  1  0  0  0  0
 35 36  2  0  0  0  0
 36 37  1  0  0  0  0
 37 38  2  0  0  0  0
 38 39  1  0  0  0  0
 39 40  2  0  0  0  0
 40 41  1  0  0  0  0
 41 42  1  0  0  0  0
 42 43  1  0  0  0  0
 40 44  1  0  0  0  0
 44 45  1  0  0  0  0
 44 46  2  0  0  0  0
 36 47  1  0  0  0  0
 47 48  2  0  0  0  0
 48 49  1  0  0  0  0
 49 50  1  0  0  0  0
 50 51  2  0  0  0  0
 51 52  1  0  0  0  0
 52 53  2  0  0  0  0
 53 54  1  0  0  0  0
 54 55  1  0  0  0  0
 55 56  1  0  0  0  0
 53 57  1  0  0  0  0
 57 58  2  0  0  0  0
 57 59  1  0  0  0  0
 49 60  2  0  0  0  0
 60 61  1  0  0  0  0
 48 62  1  0  0  0  0
 62 63  2  0  0  0  0
 63 64  1  0  0  0  0
 63 65  1  0  0  0  0
 65 66  2  0  0  0  0
 66 67  1  0  0  0  0
 67 68  1  0  0  0  0
 66 69  1  0  0  0  0
 69 70  1  0  0  0  0
 70 71  1  0  0  0  0
 71 72  1  0  0  0  0
 70 73  2  0  0  0  0
 73 74  1  0  0  0  0
 74 75  2  0  0  0  0
 75 76  1  0  0  0  0
 76 77  1  0  0  0  0
 75 78  1  0  0  0  0
 78 79  1  0  0  0  0
 79 80  1  0  0  0  0
 80 81  1  0  0  0  0
 79 82  2  0  0  0  0
 82 83  1  0  0  0  0
 83 84  2  0  0  0  0
 84 85  1  0  0  0  0
 85 86  2  0  0  0  0
 86 87  1  0  0  0  0
 87 88  2  0  0  0  0
 88 89  1  0  0  0  0
 89 90  2  0  0  0  0
 90 91  1  0  0  0  0
 91 92  1  0  0  0  0
 92 93  1  0  0  0  0
 90 94  1  0  0  0  0
 94 95  1  0  0  0  0
 94 96  2  0  0  0  0
 86 97  1  0  0  0  0
 97 98  2  0  0  0  0
 98 99  1  0  0  0  0
 99100  1  0  0  0  0
100101  2  0  0  0  0
101102  1  0  0  0  0
102103  2  0  0  0  0
103104  1  0  0  0  0
104105  1  0  0  0  0
105106  1  0  0  0  0
103107  1  0  0  0  0
107108  2  0  0  0  0
107109  1  0  0  0  0
 99110  2  0  0  0  0
110111  1  0  0  0  0
 98112  1  0  0  0  0
112113  2  0  0  0  0
113114  1  0  0  0  0
113115  1  0  0  0  0
115116  2  0  0  0  0
116117  1  0  0  0  0
117118  2  0  0  0  0
118119  1  0  0  0  0
119120  2  0  0  0  0
120121  1  0  0  0  0
121122  2  0  0  0  0
122123  1  0  0  0  0
123124  1  0  0  0  0
124125  1  0  0  0  0
122126  1  0  0  0  0
126127  1  0  0  0  0
126128  2  0  0  0  0
118129  1  0  0  0  0
129130  2  0  0  0  0
130131  1  0  0  0  0
131132  1  0  0  0  0
132133  2  0  0  0  0
133134  1  0  0  0  0
134135  2  0  0  0  0
135136  1  0  0  0  0
136137  1  0  0  0  0
137138  1  0  0  0  0
135139  1  0  0  0  0
139140  2  0  0  0  0
139141  1  0  0  0  0
131142  2  0  0  0  0
142143  1  0  0  0  0
130144  1  0  0  0  0
144145  2  0  0  0  0
145146  1  0  0  0  0
 29  1  1  0  0  0  0
 61 33  1  0  0  0  0
 73 65  1  0  0  0  0
 82 74  1  0  0  0  0
111 83  1  0  0  0  0
143115  1  0  0  0  0
 28  3  1  0  0  0  0
 60 35  1  0  0  0  0
110 85  1  0  0  0  0
142117  1  0  0  0  0
 14  5  1  0  0  0  0
 32 15  1  0  0  0  0
 46 37  1  0  0  0  0
 64 47  1  0  0  0  0
 96 87  1  0  0  0  0
114 97  1  0  0  0  0
128119  1  0  0  0  0
146129  1  0  0  0  0
 26 18  1  0  0  0  0
 58 50  1  0  0  0  0
108100  1  0  0  0  0
140132  1  0  0  0  0
  1147  1  0  0  0  0
  2148  1  0  0  0  0
  6149  1  0  0  0  0
  7150  1  0  0  0  0
 10151  1  0  0  0  0
 10152  1  0  0  0  0
 11153  1  0  0  0  0
 11154  1  0  0  0  0
 11155  1  0  0  0  0
 14156  1  0  0  0  0
 19157  1  0  0  0  0
 20158  1  0  0  0  0
 23159  1  0  0  0  0
 23160  1  0  0  0  0
 24161  1  0  0  0  0
 24162  1  0  0  0  0
 24163  1  0  0  0  0
 26164  1  0  0  0  0
 30165  1  0  0  0  0
 34166  1  0  0  0  0
 38167  1  0  0  0  0
 39168  1  0  0  0  0
 42169  1  0  0  0  0
 42170  1  0  0  0  0
 43171  1  0  0  0  0
 43172  1  0  0  0  0
 43173  1  0  0  0  0
 46174  1  0  0  0  0
 51175  1  0  0  0  0
 52176  1  0  0  0  0
 55177  1  0  0  0  0
 55178  1  0  0  0  0
 56179  1  0  0  0  0
 56180  1  0  0  0  0
 56181  1  0  0  0  0
 58182  1  0  0  0  0
 62183  1  0  0  0  0
 68184  1  0  0  0  0
 68185  1  0  0  0  0
 68186  1  0  0  0  0
 72187  1  0  0  0  0
 72188  1  0  0  0  0
 72189  1  0  0  0  0
 77190  1  0  0  0  0
 77191  1  0  0  0  0
 77192  1  0  0  0  0
 81193  1  0  0  0  0
 81194  1  0  0  0  0
 81195  1  0  0  0  0
 84196  1  0  0  0  0
 88197  1  0  0  0  0
 89198  1  0  0  0  0
 92199  1  0  0  0  0
 92200  1  0  0  0  0
 93201  1  0  0  0  0
 93202  1  0  0  0  0
 93203  1  0  0  0  0
 96204  1  0  0  0  0
101205  1  0  0  0  0
102206  1  0  0  0  0
105207  1  0  0  0  0
105208  1  0  0  0  0
106209  1  0  0  0  0
106210  1  0  0  0  0
106211  1  0  0  0  0
108212  1  0  0  0  0
112213  1  0  0  0  0
116214  1  0  0  0  0
120215  1  0  0  0  0
121216  1  0  0  0  0
124217  1  0  0  0  0
124218  1  0  0  0  0
125219  1  0  0  0  0
125220  1  0  0  0  0
125221  1  0  0  0  0
128222  1  0  0  0  0
133223  1  0  0  0  0
134224  1  0  0  0  0
137225  1  0  0  0  0
137226  1  0  0  0  0
138227  1  0  0  0  0
138228  1  0  0  0  0
138229  1  0  0  0  0
140230  1  0  0  0  0
144231  1  0  0  0  0
145232  1  0  0  0  0
M  END
