226

C          1.05990      -10.55910        7.96020
C          1.51670       -9.42680        8.53180
C          1.66970       -8.36050        7.59860
C          2.04010       -7.03250        7.85690
C          2.47410       -6.59990        9.17460
S          1.76760       -5.21570        9.95280
C          2.81180       -5.35720       11.32640
C          2.75350       -4.36030       12.43060
C          3.29070       -3.00380       11.96910
C          3.65320       -6.41830       11.17480
Cl         4.84280       -6.87550       12.32470
C          3.46100       -7.12900        9.95880
Cl         4.44160       -8.46220        9.50380
C          1.95810       -6.14080        6.79590
C          1.59390       -6.52400        5.48180
C          1.28550       -7.86970        5.20780
C          0.90320       -8.31360        3.87920
S         -0.29290       -7.45470        2.94910
C         -0.22680       -8.59480        1.65170
C         -1.01330       -8.39830        0.40270
C         -0.16150       -7.72390       -0.67670
C          0.67830       -9.57580        1.93050
C          1.32190       -9.41950        3.18770
Cl         2.58040      -10.46650        3.69420
Cl         1.01130      -10.88960        0.87740
C          1.30680       -8.75120        6.28730
S          0.79530      -10.41550        6.25910
C          1.58430       -5.41330        4.59890
C          1.89210       -4.23250        5.20600
S          2.27920       -4.43490        6.90170
C          1.83350       -2.91560        4.66280
C          2.03830       -1.74680        5.33400
C          1.77030       -0.59290        4.55860
C          1.77340        0.75040        4.97830
C          2.09210        1.11110        6.34940
S          1.29480        0.35480        7.69870
C          2.19140        1.28120        8.85240
C          1.94910        1.13480       10.31400
C          0.74520        1.96920       10.75730
C          3.04530        2.13060        8.21470
Cl         4.10540        3.20870        9.02560
C          2.99450        2.03610        6.79770
Cl         4.03940        2.93740        5.78200
C          1.42690        1.70440        4.03020
C          1.13110        1.37320        2.68450
C          1.04780        0.02880        2.28560
C          0.49610       -0.35580        0.99750
S          1.23330       -1.59520        0.02860
C         -0.04920       -1.56580       -1.13010
C         -0.09890       -2.55020       -2.24360
C         -0.31210       -3.95600       -1.67870
C         -0.97930       -0.63290       -0.78240
C         -0.67810        0.05610        0.42300
Cl        -1.77120        1.18930        1.11480
Cl        -2.39820       -0.31300       -1.69760
C          1.39300       -0.92590        3.23510
S          1.33860       -2.65090        3.00520
C          0.84900        2.52610        1.91090
C          0.78660        3.66880        2.64670
S          1.18400        3.40520        4.32670
C          0.24920        4.90780        2.15190
C         -0.82490        5.57330        2.65460
C         -1.40040        6.48370        1.72870
C         -2.68790        7.04570        1.77290
C         -3.60550        6.75670        2.86730
S         -4.38190        8.01670        3.77280
C         -5.28880        6.88300        4.71520
C         -6.27040        7.34100        5.73650
C         -7.62140        7.65440        5.08880
C         -5.00620        5.60800        4.32570
Cl        -5.72680        4.21230        5.01660
C         -4.04760        5.53080        3.27980
Cl        -3.56250        4.04410        2.57180
C         -3.13520        7.69260        0.63220
C         -2.33000        7.86550       -0.52070
C         -1.04780        7.29600       -0.57080
C         -0.28440        7.27110       -1.81390
S          1.28490        8.00290       -1.93150
C          1.45970        7.54150       -3.58960
C          2.70480        7.83860       -4.34980
C          3.72450        6.70940       -4.18150
C          0.36340        6.84730       -4.00690
C         -0.63050        6.69240       -3.00310
Cl        -2.08600        5.80610       -3.26540
Cl         0.17990        6.21710       -5.59100
C         -0.63210        6.58410        0.54360
S          0.72690        5.49550        0.57240
C         -3.08380        8.29650       -1.63760
C         -4.43510        8.27020       -1.41630
S         -4.80590        8.06540        0.29030
C         -5.35270        7.82100       -2.42260
C         -5.05820        7.65850       -3.74980
C         -5.58650        6.46380       -4.30040
C         -5.14530        5.82070       -5.47450
C         -4.38250        6.55770       -6.46120
S         -2.89530        5.95000       -7.12230
C         -2.63630        7.37830       -8.06000
C         -1.45540        7.49800       -8.95810
C         -1.67280        6.71360      -10.25390
C         -3.66050        8.26030       -7.87740
Cl        -3.76480        9.78530       -8.65980
C         -4.64600        7.80510       -6.96390
Cl        -6.05660        8.71290       -6.59950
C         -5.33310        4.44420       -5.53820
C         -6.01910        3.71120       -4.53870
C         -6.57520        4.38050       -3.43610
C         -7.11810        3.64720       -2.29550
S         -8.65940        2.85370       -2.31150
C         -8.47890        2.30950       -0.67560
C         -9.56350        1.55450        0.01050
C        -10.58960        2.50940        0.62470
C         -7.28780        2.72900       -0.16390
C         -6.50820        3.47980       -1.08480
Cl        -4.93440        4.05880       -0.71600
Cl        -6.75220        2.39530        1.43140
C         -6.33700        5.73890       -3.34110
S         -6.58080        6.67310       -1.88970
C         -5.83690        2.31430       -4.67310
C         -5.01450        1.97260       -5.71000
S         -4.56300        3.36890       -6.67210
C         -4.34900        0.72790       -5.91090
C         -4.52420       -0.43790       -5.19520
C         -3.49450       -1.34990       -5.44360
C         -2.53200       -0.88010       -6.36050
S         -2.93450        0.68410       -6.95480
C         -1.50360       -1.82600       -6.38820
C         -1.86620       -2.84920       -5.48940
N         -3.09250       -2.56310       -4.94770
C         -0.86760       -3.81240       -5.30840
C          0.25270       -3.52370       -6.05330
S          0.06830       -2.08280       -7.04250
C          1.52560       -4.17110       -5.99350
C          2.06520       -4.83540       -4.93040
C          3.40190       -5.25450       -5.14450
C          4.25490       -5.93010       -4.25560
C          3.89090       -6.14990       -2.86650
S          4.06560       -7.70290       -2.10740
C          3.57490       -7.09330       -0.56720
C          3.53620       -7.95010        0.65030
C          4.16900       -9.31480        0.42380
C          3.26990       -5.76680       -0.65630
Cl         2.72480       -4.83280        0.68440
C          3.45830       -5.22520       -1.95400
Cl         3.28810       -3.55010       -2.28660
C          5.49230       -6.32670       -4.75220
C          5.93320       -6.02210       -6.06080
C          5.11360       -5.27260       -6.91940
C          5.55500       -4.87630       -8.24770
S          6.09370       -6.04520       -9.41680
C          6.37180       -4.83260      -10.62020
C          6.93280       -5.18100      -11.95440
C          8.46000       -5.26860      -11.89920
C          6.07070       -3.59940      -10.12550
C          5.60090       -3.61980       -8.78430
Cl         5.21800       -2.18830       -7.92350
Cl         6.23120       -2.14450      -11.02050
C          3.85900       -4.91640       -6.44210
S          2.64120       -4.05520       -7.33640
C          7.25610       -6.50020       -6.29470
C          7.78090       -7.13160       -5.22550
S          6.71910       -7.18450       -3.86120
H          0.85370      -11.49990        8.43190
H          1.72150       -9.32850        9.58150
H          1.71930       -4.24390       12.76190
H          3.34750       -4.73090       13.26730
H          3.23340       -2.28280       12.78000
H          2.70690       -2.63620       11.12830
H          4.32780       -3.09480       11.65640
H         -1.88500       -7.78000        0.62070
H         -1.35390       -9.37070        0.04090
H          0.21440       -6.76780       -0.32110
H         -0.75920       -7.55440       -1.56810
H          0.68330       -8.35420       -0.94160
H          1.33890       -5.47260        3.55430
H          2.35350       -1.72140        6.36120
H          1.76760        0.08400       10.54730
H          2.84110        1.46430       10.84980
H         -0.15000        1.64880       10.22980
H          0.58260        1.85210       11.82520
H          0.91670        3.02120       10.54390
H          0.83320       -2.52530       -2.81070
H         -0.91540       -2.27820       -2.91360
H         -0.34730       -4.68950       -2.47910
H          0.50470       -4.21230       -1.00930
H         -1.24410       -4.00280       -1.12000
H          0.65870        2.50500        0.85350
H         -1.24590        5.35520        3.61930
H         -5.88830        8.23550        6.23140
H         -6.39490        6.55310        6.48170
H         -7.50920        8.43850        4.34380
H         -8.32950        7.98630        5.84330
H         -8.01960        6.76790        4.60190
H          2.45360        7.94890       -5.40640
H          3.13450        8.77470       -3.99020
H          3.97910        6.58450       -3.13170
H          3.31440        5.77400       -4.55320
H          4.63010        6.93830       -4.73640
H         -2.65390        8.44050       -2.61060
H         -4.34730        8.27420       -4.26990
H         -1.29370        8.55280       -9.18690
H         -0.57240        7.11130       -8.44560
H         -2.53810        7.09880      -10.78750
H         -1.83970        5.66200      -10.03270
H         -0.79980        6.80210      -10.89490
H        -10.06050        0.89930       -0.70720
H         -9.11860        0.94170        0.79690
H        -10.11080        3.15540        1.35610
H        -11.37610        1.94530        1.11880
H        -11.03670        3.13050       -0.14780
H         -6.22590        1.60710       -3.96370
H         -5.33400       -0.59470       -4.50740
H         -3.56040       -3.09040       -4.23130
H         -0.94770       -4.67670       -4.67670
H          1.53600       -5.00560       -4.01190
H          2.49640       -8.06990        0.96560
H          4.05380       -7.42410        1.45800
H          4.12640       -9.90290        1.33590
H          5.20920       -9.20800        0.12560
H          3.64090       -9.85260       -0.36010
H          6.63660       -4.41120      -12.66910
H          6.52560       -6.13920      -12.28150
H          8.85580       -5.51350      -12.88100
H          8.88020       -4.31780      -11.58120
H          8.76880       -6.03870      -11.19610
H          7.77770       -6.36860       -7.22450
H          8.74930       -7.58350       -5.13690
