
  xtb     03012218103D
 energy: -395.153878090231 gnorm: 0.000210088372 xtb: 6.4.1 (unknown)
198223  0     0  0            999 V2000
    6.0079   -5.3554   15.7835 C   0  0  0  0  0  0  0  0  0  0  0  0
    6.6375   -5.1427   14.6103 C   0  0  0  0  0  0  0  0  0  0  0  0
    6.1930   -3.9597   13.9509 C   0  0  0  0  0  0  0  0  0  0  0  0
    6.5915   -3.4575   12.7030 C   0  0  0  0  0  0  0  0  0  0  0  0
    7.5143   -4.1818   11.8436 C   0  0  0  0  0  0  0  0  0  0  0  0
    8.9252   -3.4162   11.1781 S   0  0  0  0  0  0  0  0  0  0  0  0
    9.3836   -4.8405   10.3098 C   0  0  0  0  0  0  0  0  0  0  0  0
   10.5724   -4.8455    9.4137 C   0  0  0  0  0  0  0  0  0  0  0  0
   10.2074   -4.3060    8.0282 C   0  0  0  0  0  0  0  0  0  0  0  0
    8.4812   -5.8390   10.5253 C   0  0  0  0  0  0  0  0  0  0  0  0
    8.5935   -7.3997    9.8203 Cl  0  0  0  0  0  0  0  0  0  0  0  0
    7.4224   -5.4713   11.3985 C   0  0  0  0  0  0  0  0  0  0  0  0
    6.1235   -6.5295   11.7721 Cl  0  0  0  0  0  0  0  0  0  0  0  0
    6.0328   -2.2515   12.3001 C   0  0  0  0  0  0  0  0  0  0  0  0
    5.0684   -1.5570   13.0683 C   0  0  0  0  0  0  0  0  0  0  0  0
    4.6409   -2.0773   14.3019 C   0  0  0  0  0  0  0  0  0  0  0  0
    3.6116   -1.3996   15.0737 C   0  0  0  0  0  0  0  0  0  0  0  0
    2.0834   -0.9943   14.3452 S   0  0  0  0  0  0  0  0  0  0  0  0
    1.4906   -0.2665   15.7992 C   0  0  0  0  0  0  0  0  0  0  0  0
    0.1528    0.3861   15.8370 C   0  0  0  0  0  0  0  0  0  0  0  0
    0.1984    1.7652   15.1739 C   0  0  0  0  0  0  0  0  0  0  0  0
    2.4329   -0.3397   16.7805 C   0  0  0  0  0  0  0  0  0  0  0  0
    3.6331   -0.9867   16.3761 C   0  0  0  0  0  0  0  0  0  0  0  0
    4.9884   -1.1353   17.4134 Cl  0  0  0  0  0  0  0  0  0  0  0  0
    2.2174    0.2852   18.3640 Cl  0  0  0  0  0  0  0  0  0  0  0  0
    5.2222   -3.2689   14.7178 C   0  0  0  0  0  0  0  0  0  0  0  0
    4.8492   -4.1349   16.1804 S   0  0  0  0  0  0  0  0  0  0  0  0
    4.6447   -0.3657   12.4308 C   0  0  0  0  0  0  0  0  0  0  0  0
    5.2249   -0.1638   11.2127 C   0  0  0  0  0  0  0  0  0  0  0  0
    6.3562   -1.4330   10.7990 S   0  0  0  0  0  0  0  0  0  0  0  0
    4.9567    0.9006   10.3001 C   0  0  0  0  0  0  0  0  0  0  0  0
    4.0165    1.8815   10.4357 C   0  0  0  0  0  0  0  0  0  0  0  0
    3.9362    2.7452    9.3180 C   0  0  0  0  0  0  0  0  0  0  0  0
    3.0161    3.7876    9.0942 C   0  0  0  0  0  0  0  0  0  0  0  0
    2.0468    4.1523   10.1156 C   0  0  0  0  0  0  0  0  0  0  0  0
    2.5597    4.5734   11.7244 S   0  0  0  0  0  0  0  0  0  0  0  0
    0.9354    4.8332   12.2622 C   0  0  0  0  0  0  0  0  0  0  0  0
    0.6432    5.2962   13.6467 C   0  0  0  0  0  0  0  0  0  0  0  0
    0.7196    6.8218   13.7418 C   0  0  0  0  0  0  0  0  0  0  0  0
    0.0604    4.6110   11.2418 C   0  0  0  0  0  0  0  0  0  0  0  0
   -1.6419    4.7621   11.3949 Cl  0  0  0  0  0  0  0  0  0  0  0  0
    0.6846    4.2210   10.0257 C   0  0  0  0  0  0  0  0  0  0  0  0
   -0.2141    3.7971    8.6297 Cl  0  0  0  0  0  0  0  0  0  0  0  0
    3.0676    4.4182    7.8601 C   0  0  0  0  0  0  0  0  0  0  0  0
    4.0001    4.0613    6.8516 C   0  0  0  0  0  0  0  0  0  0  0  0
    4.9106    3.0149    7.0723 C   0  0  0  0  0  0  0  0  0  0  0  0
    5.8264    2.5706    6.0348 C   0  0  0  0  0  0  0  0  0  0  0  0
    7.5323    2.4311    6.3366 S   0  0  0  0  0  0  0  0  0  0  0  0
    7.8466    1.8511    4.7365 C   0  0  0  0  0  0  0  0  0  0  0  0
    9.2207    1.4583    4.3203 C   0  0  0  0  0  0  0  0  0  0  0  0
    9.5922    0.0898    4.8961 C   0  0  0  0  0  0  0  0  0  0  0  0
    6.6865    1.7669    4.0265 C   0  0  0  0  0  0  0  0  0  0  0  0
    5.5388    2.1773    4.7573 C   0  0  0  0  0  0  0  0  0  0  0  0
    3.9529    2.0925    4.1057 Cl  0  0  0  0  0  0  0  0  0  0  0  0
    6.5924    1.2220    2.4019 Cl  0  0  0  0  0  0  0  0  0  0  0  0
    4.8610    2.3867    8.3087 C   0  0  0  0  0  0  0  0  0  0  0  0
    5.8161    1.0119    8.7807 S   0  0  0  0  0  0  0  0  0  0  0  0
    3.8423    4.8417    5.6842 C   0  0  0  0  0  0  0  0  0  0  0  0
    2.8096    5.7324    5.7532 C   0  0  0  0  0  0  0  0  0  0  0  0
    2.0331    5.7140    7.3264 S   0  0  0  0  0  0  0  0  0  0  0  0
    2.2608    6.4807    4.6769 C   0  0  0  0  0  0  0  0  0  0  0  0
    1.1281    7.2657    4.6778 C   0  0  0  0  0  0  0  0  0  0  0  0
    0.7581    7.6325    3.3806 C   0  0  0  0  0  0  0  0  0  0  0  0
    1.6220    7.1278    2.3866 C   0  0  0  0  0  0  0  0  0  0  0  0
    2.9248    6.2319    3.0644 S   0  0  0  0  0  0  0  0  0  0  0  0
    1.0420    7.4265    1.1540 C   0  0  0  0  0  0  0  0  0  0  0  0
   -0.1634    8.1066    1.4209 C   0  0  0  0  0  0  0  0  0  0  0  0
   -0.3035    8.2576    2.7768 N   0  0  0  0  0  0  0  0  0  0  0  0
   -0.9455    8.3249    0.2817 C   0  0  0  0  0  0  0  0  0  0  0  0
   -0.3501    7.8021   -0.8488 C   0  0  0  0  0  0  0  0  0  0  0  0
    1.2300    7.0992   -0.5248 S   0  0  0  0  0  0  0  0  0  0  0  0
   -0.9309    7.5936   -2.1315 C   0  0  0  0  0  0  0  0  0  0  0  0
   -2.2369    7.8182   -2.5182 C   0  0  0  0  0  0  0  0  0  0  0  0
   -2.5159    7.2229   -3.7530 C   0  0  0  0  0  0  0  0  0  0  0  0
   -1.4100    6.5581   -4.3204 C   0  0  0  0  0  0  0  0  0  0  0  0
   -0.0047    6.7103   -3.3386 S   0  0  0  0  0  0  0  0  0  0  0  0
   -1.8795    5.8703   -5.4393 C   0  0  0  0  0  0  0  0  0  0  0  0
   -3.2631    6.1268   -5.5286 C   0  0  0  0  0  0  0  0  0  0  0  0
   -3.6270    6.9822   -4.5200 N   0  0  0  0  0  0  0  0  0  0  0  0
   -3.9090    5.3628   -6.5056 C   0  0  0  0  0  0  0  0  0  0  0  0
   -3.0285    4.5285   -7.1583 C   0  0  0  0  0  0  0  0  0  0  0  0
   -1.3649    4.7198   -6.6114 S   0  0  0  0  0  0  0  0  0  0  0  0
   -3.3285    3.4527   -8.0379 C   0  0  0  0  0  0  0  0  0  0  0  0
   -2.4382    2.5901   -8.6097 C   0  0  0  0  0  0  0  0  0  0  0  0
   -3.0426    1.4693   -9.2248 C   0  0  0  0  0  0  0  0  0  0  0  0
   -2.4106    0.3727   -9.8395 C   0  0  0  0  0  0  0  0  0  0  0  0
   -0.9664    0.2981   -9.9790 C   0  0  0  0  0  0  0  0  0  0  0  0
    0.0961    0.5237   -8.6200 S   0  0  0  0  0  0  0  0  0  0  0  0
    1.5107    0.2368   -9.5744 C   0  0  0  0  0  0  0  0  0  0  0  0
    2.8709    0.3426   -8.9792 C   0  0  0  0  0  0  0  0  0  0  0  0
    3.2890    1.8071   -8.8284 C   0  0  0  0  0  0  0  0  0  0  0  0
    1.1643   -0.0106  -10.8687 C   0  0  0  0  0  0  0  0  0  0  0  0
    2.2952   -0.3292  -12.1193 Cl  0  0  0  0  0  0  0  0  0  0  0  0
   -0.2374    0.0134  -11.1006 C   0  0  0  0  0  0  0  0  0  0  0  0
   -0.9139   -0.2097  -12.6592 Cl  0  0  0  0  0  0  0  0  0  0  0  0
   -3.2283   -0.6713  -10.2557 C   0  0  0  0  0  0  0  0  0  0  0  0
   -4.6364   -0.6364  -10.1207 C   0  0  0  0  0  0  0  0  0  0  0  0
   -5.2772    0.5056   -9.6032 C   0  0  0  0  0  0  0  0  0  0  0  0
   -6.7270    0.5495   -9.5374 C   0  0  0  0  0  0  0  0  0  0  0  0
   -7.5781    0.9142   -8.0657 S   0  0  0  0  0  0  0  0  0  0  0  0
   -9.1223    0.6585   -8.8037 C   0  0  0  0  0  0  0  0  0  0  0  0
  -10.3858    0.7427   -8.0203 C   0  0  0  0  0  0  0  0  0  0  0  0
  -10.8104   -0.6422   -7.5241 C   0  0  0  0  0  0  0  0  0  0  0  0
   -8.9721    0.3180  -10.1153 C   0  0  0  0  0  0  0  0  0  0  0  0
   -7.6176    0.2593  -10.5362 C   0  0  0  0  0  0  0  0  0  0  0  0
   -7.1730   -0.0762  -12.1604 Cl  0  0  0  0  0  0  0  0  0  0  0  0
  -10.2822   -0.0188  -11.1706 Cl  0  0  0  0  0  0  0  0  0  0  0  0
   -4.4571    1.5179   -9.1314 C   0  0  0  0  0  0  0  0  0  0  0  0
   -4.9909    2.9632   -8.3182 S   0  0  0  0  0  0  0  0  0  0  0  0
   -5.2295   -1.8742  -10.4544 C   0  0  0  0  0  0  0  0  0  0  0  0
   -4.3301   -2.8239  -10.8447 C   0  0  0  0  0  0  0  0  0  0  0  0
   -2.6908   -2.2171  -10.8513 S   0  0  0  0  0  0  0  0  0  0  0  0
   -4.6524   -4.1726  -11.1856 C   0  0  0  0  0  0  0  0  0  0  0  0
   -5.8496   -4.7792  -10.9418 C   0  0  0  0  0  0  0  0  0  0  0  0
   -5.9203   -6.1084  -11.4187 C   0  0  0  0  0  0  0  0  0  0  0  0
   -7.0050   -6.9971  -11.3270 C   0  0  0  0  0  0  0  0  0  0  0  0
   -8.2628   -6.5649  -10.7428 C   0  0  0  0  0  0  0  0  0  0  0  0
   -9.0207   -7.4707   -9.4662 S   0  0  0  0  0  0  0  0  0  0  0  0
  -10.2990   -6.3161   -9.2974 C   0  0  0  0  0  0  0  0  0  0  0  0
  -11.4006   -6.5263   -8.3184 C   0  0  0  0  0  0  0  0  0  0  0  0
  -12.4279   -7.5237   -8.8583 C   0  0  0  0  0  0  0  0  0  0  0  0
  -10.1433   -5.3037  -10.1963 C   0  0  0  0  0  0  0  0  0  0  0  0
  -11.2070   -3.9629  -10.3282 Cl  0  0  0  0  0  0  0  0  0  0  0  0
   -8.9919   -5.4395  -11.0175 C   0  0  0  0  0  0  0  0  0  0  0  0
   -8.6322   -4.3240  -12.2748 Cl  0  0  0  0  0  0  0  0  0  0  0  0
   -6.8010   -8.2841  -11.8080 C   0  0  0  0  0  0  0  0  0  0  0  0
   -5.5784   -8.7047  -12.3839 C   0  0  0  0  0  0  0  0  0  0  0  0
   -4.4941   -7.8159  -12.4678 C   0  0  0  0  0  0  0  0  0  0  0  0
   -3.2041   -8.2424  -12.9849 C   0  0  0  0  0  0  0  0  0  0  0  0
   -2.3867   -7.3683  -14.2446 S   0  0  0  0  0  0  0  0  0  0  0  0
   -1.0327   -8.4446  -14.2189 C   0  0  0  0  0  0  0  0  0  0  0  0
    0.1035   -8.2831  -15.1674 C   0  0  0  0  0  0  0  0  0  0  0  0
   -0.1662   -9.0279  -16.4771 C   0  0  0  0  0  0  0  0  0  0  0  0
   -1.2199   -9.4213  -13.2865 C   0  0  0  0  0  0  0  0  0  0  0  0
   -2.4472   -9.3076  -12.5813 C   0  0  0  0  0  0  0  0  0  0  0  0
   -2.8773  -10.3637  -11.2979 Cl  0  0  0  0  0  0  0  0  0  0  0  0
   -0.0868  -10.6707  -12.9691 Cl  0  0  0  0  0  0  0  0  0  0  0  0
   -4.7000   -6.5233  -12.0035 C   0  0  0  0  0  0  0  0  0  0  0  0
   -3.5206   -5.2406  -11.9849 S   0  0  0  0  0  0  0  0  0  0  0  0
   -5.6580  -10.0475  -12.8571 C   0  0  0  0  0  0  0  0  0  0  0  0
   -6.8620  -10.6113  -12.6337 C   0  0  0  0  0  0  0  0  0  0  0  0
   -7.9862   -9.5588  -11.8448 S   0  0  0  0  0  0  0  0  0  0  0  0
    6.1515   -6.1663   16.4705 H   0  0  0  0  0  0  0  0  0  0  0  0
    7.4005   -5.7883   14.2167 H   0  0  0  0  0  0  0  0  0  0  0  0
   10.9417   -5.8686    9.3233 H   0  0  0  0  0  0  0  0  0  0  0  0
   11.3576   -4.2255    9.8494 H   0  0  0  0  0  0  0  0  0  0  0  0
    9.4411   -4.9276    7.5722 H   0  0  0  0  0  0  0  0  0  0  0  0
   11.0835   -4.3048    7.3854 H   0  0  0  0  0  0  0  0  0  0  0  0
    9.8288   -3.2896    8.1071 H   0  0  0  0  0  0  0  0  0  0  0  0
   -0.5729   -0.2410   15.3157 H   0  0  0  0  0  0  0  0  0  0  0  0
   -0.1567    0.4885   16.8783 H   0  0  0  0  0  0  0  0  0  0  0  0
    0.9080    2.4068   15.6902 H   0  0  0  0  0  0  0  0  0  0  0  0
   -0.7833    2.2292   15.2110 H   0  0  0  0  0  0  0  0  0  0  0  0
    0.5015    1.6754   14.1331 H   0  0  0  0  0  0  0  0  0  0  0  0
    3.9377    0.3168   12.8625 H   0  0  0  0  0  0  0  0  0  0  0  0
    3.3785    1.9668   11.2949 H   0  0  0  0  0  0  0  0  0  0  0  0
   -0.3584    4.9622   13.9229 H   0  0  0  0  0  0  0  0  0  0  0  0
    1.3635    4.8530   14.3359 H   0  0  0  0  0  0  0  0  0  0  0  0
    1.7156    7.1671   13.4751 H   0  0  0  0  0  0  0  0  0  0  0  0
    0.4981    7.1437   14.7557 H   0  0  0  0  0  0  0  0  0  0  0  0
    0.0007    7.2779   13.0660 H   0  0  0  0  0  0  0  0  0  0  0  0
    9.9352    2.2047    4.6726 H   0  0  0  0  0  0  0  0  0  0  0  0
    9.2591    1.4236    3.2304 H   0  0  0  0  0  0  0  0  0  0  0  0
   10.5975   -0.1847    4.5885 H   0  0  0  0  0  0  0  0  0  0  0  0
    8.8993   -0.6689    4.5412 H   0  0  0  0  0  0  0  0  0  0  0  0
    9.5518    0.1156    5.9825 H   0  0  0  0  0  0  0  0  0  0  0  0
    4.4518    4.7343    4.8060 H   0  0  0  0  0  0  0  0  0  0  0  0
    0.5908    7.5098    5.5765 H   0  0  0  0  0  0  0  0  0  0  0  0
   -1.0930    8.6634    3.2481 H   0  0  0  0  0  0  0  0  0  0  0  0
   -1.9100    8.7972    0.2786 H   0  0  0  0  0  0  0  0  0  0  0  0
   -2.9530    8.3398   -1.9110 H   0  0  0  0  0  0  0  0  0  0  0  0
   -4.5616    7.2934   -4.3207 H   0  0  0  0  0  0  0  0  0  0  0  0
   -4.9639    5.3711   -6.7127 H   0  0  0  0  0  0  0  0  0  0  0  0
   -1.3761    2.7414   -8.5499 H   0  0  0  0  0  0  0  0  0  0  0  0
    2.8771   -0.1373   -7.9987 H   0  0  0  0  0  0  0  0  0  0  0  0
    3.5770   -0.1778   -9.6284 H   0  0  0  0  0  0  0  0  0  0  0  0
    3.3000    2.2979   -9.7984 H   0  0  0  0  0  0  0  0  0  0  0  0
    4.2838    1.8686   -8.3956 H   0  0  0  0  0  0  0  0  0  0  0  0
    2.5928    2.3333   -8.1794 H   0  0  0  0  0  0  0  0  0  0  0  0
  -10.2401    1.4092   -7.1692 H   0  0  0  0  0  0  0  0  0  0  0  0
  -11.1702    1.1539   -8.6592 H   0  0  0  0  0  0  0  0  0  0  0  0
  -10.0433   -1.0640   -6.8791 H   0  0  0  0  0  0  0  0  0  0  0  0
  -11.7382   -0.5694   -6.9630 H   0  0  0  0  0  0  0  0  0  0  0  0
  -10.9642   -1.3127   -8.3655 H   0  0  0  0  0  0  0  0  0  0  0  0
   -6.2840   -2.0606  -10.3845 H   0  0  0  0  0  0  0  0  0  0  0  0
   -6.6480   -4.3012  -10.4081 H   0  0  0  0  0  0  0  0  0  0  0  0
  -11.8839   -5.5670   -8.1251 H   0  0  0  0  0  0  0  0  0  0  0  0
  -10.9866   -6.9051   -7.3821 H   0  0  0  0  0  0  0  0  0  0  0  0
  -11.9537   -8.4821   -9.0557 H   0  0  0  0  0  0  0  0  0  0  0  0
  -13.2240   -7.6694   -8.1333 H   0  0  0  0  0  0  0  0  0  0  0  0
  -12.8623   -7.1540   -9.7837 H   0  0  0  0  0  0  0  0  0  0  0  0
    1.0077   -8.6803  -14.7020 H   0  0  0  0  0  0  0  0  0  0  0  0
    0.2526   -7.2225  -15.3750 H   0  0  0  0  0  0  0  0  0  0  0  0
    0.6731   -8.9045  -17.1561 H   0  0  0  0  0  0  0  0  0  0  0  0
   -0.3060  -10.0887  -16.2850 H   0  0  0  0  0  0  0  0  0  0  0  0
   -1.0625   -8.6391  -16.9544 H   0  0  0  0  0  0  0  0  0  0  0  0
   -4.8481  -10.5494  -13.3531 H   0  0  0  0  0  0  0  0  0  0  0  0
   -7.1823  -11.6027  -12.8879 H   0  0  0  0  0  0  0  0  0  0  0  0
  1  2  2  0  0  0  0
  2  3  1  0  0  0  0
  3  4  2  0  0  0  0
  4  5  1  0  0  0  0
  5  6  1  0  0  0  0
  6  7  1  0  0  0  0
  7  8  1  0  0  0  0
  8  9  1  0  0  0  0
  7 10  2  0  0  0  0
 10 11  1  0  0  0  0
 10 12  1  0  0  0  0
 12 13  1  0  0  0  0
  4 14  1  0  0  0  0
 14 15  2  0  0  0  0
 15 16  1  0  0  0  0
 16 17  1  0  0  0  0
 17 18  1  0  0  0  0
 18 19  1  0  0  0  0
 19 20  1  0  0  0  0
 20 21  1  0  0  0  0
 19 22  2  0  0  0  0
 22 23  1  0  0  0  0
 23 24  1  0  0  0  0
 22 25  1  0  0  0  0
 16 26  2  0  0  0  0
 26 27  1  0  0  0  0
 15 28  1  0  0  0  0
 28 29  2  0  0  0  0
 29 30  1  0  0  0  0
 29 31  1  0  0  0  0
 31 32  2  0  0  0  0
 32 33  1  0  0  0  0
 33 34  2  0  0  0  0
 34 35  1  0  0  0  0
 35 36  1  0  0  0  0
 36 37  1  0  0  0  0
 37 38  1  0  0  0  0
 38 39  1  0  0  0  0
 37 40  2  0  0  0  0
 40 41  1  0  0  0  0
 40 42  1  0  0  0  0
 42 43  1  0  0  0  0
 34 44  1  0  0  0  0
 44 45  2  0  0  0  0
 45 46  1  0  0  0  0
 46 47  1  0  0  0  0
 47 48  1  0  0  0  0
 48 49  1  0  0  0  0
 49 50  1  0  0  0  0
 50 51  1  0  0  0  0
 49 52  2  0  0  0  0
 52 53  1  0  0  0  0
 53 54  1  0  0  0  0
 52 55  1  0  0  0  0
 46 56  2  0  0  0  0
 56 57  1  0  0  0  0
 45 58  1  0  0  0  0
 58 59  2  0  0  0  0
 59 60  1  0  0  0  0
 59 61  1  0  0  0  0
 61 62  2  0  0  0  0
 62 63  1  0  0  0  0
 63 64  2  0  0  0  0
 64 65  1  0  0  0  0
 64 66  1  0  0  0  0
 66 67  2  0  0  0  0
 67 68  1  0  0  0  0
 67 69  1  0  0  0  0
 69 70  2  0  0  0  0
 70 71  1  0  0  0  0
 70 72  1  0  0  0  0
 72 73  2  0  0  0  0
 73 74  1  0  0  0  0
 74 75  2  0  0  0  0
 75 76  1  0  0  0  0
 75 77  1  0  0  0  0
 77 78  2  0  0  0  0
 78 79  1  0  0  0  0
 78 80  1  0  0  0  0
 80 81  2  0  0  0  0
 81 82  1  0  0  0  0
 81 83  1  0  0  0  0
 83 84  2  0  0  0  0
 84 85  1  0  0  0  0
 85 86  2  0  0  0  0
 86 87  1  0  0  0  0
 87 88  1  0  0  0  0
 88 89  1  0  0  0  0
 89 90  1  0  0  0  0
 90 91  1  0  0  0  0
 89 92  2  0  0  0  0
 92 93  1  0  0  0  0
 92 94  1  0  0  0  0
 94 95  1  0  0  0  0
 86 96  1  0  0  0  0
 96 97  2  0  0  0  0
 97 98  1  0  0  0  0
 98 99  1  0  0  0  0
 99100  1  0  0  0  0
100101  1  0  0  0  0
101102  1  0  0  0  0
102103  1  0  0  0  0
101104  2  0  0  0  0
104105  1  0  0  0  0
105106  1  0  0  0  0
104107  1  0  0  0  0
 98108  2  0  0  0  0
108109  1  0  0  0  0
 97110  1  0  0  0  0
110111  2  0  0  0  0
111112  1  0  0  0  0
111113  1  0  0  0  0
113114  2  0  0  0  0
114115  1  0  0  0  0
115116  2  0  0  0  0
116117  1  0  0  0  0
117118  1  0  0  0  0
118119  1  0  0  0  0
119120  1  0  0  0  0
120121  1  0  0  0  0
119122  2  0  0  0  0
122123  1  0  0  0  0
122124  1  0  0  0  0
124125  1  0  0  0  0
116126  1  0  0  0  0
126127  2  0  0  0  0
127128  1  0  0  0  0
128129  1  0  0  0  0
129130  1  0  0  0  0
130131  1  0  0  0  0
131132  1  0  0  0  0
132133  1  0  0  0  0
131134  2  0  0  0  0
134135  1  0  0  0  0
135136  1  0  0  0  0
134137  1  0  0  0  0
128138  2  0  0  0  0
138139  1  0  0  0  0
127140  1  0  0  0  0
140141  2  0  0  0  0
141142  1  0  0  0  0
 27  1  1  0  0  0  0
 57 31  1  0  0  0  0
 65 61  1  0  0  0  0
 71 66  1  0  0  0  0
 76 72  1  0  0  0  0
 82 77  1  0  0  0  0
109 83  1  0  0  0  0
139113  1  0  0  0  0
 26  3  1  0  0  0  0
 56 33  1  0  0  0  0
 68 63  1  0  0  0  0
 79 74  1  0  0  0  0
108 85  1  0  0  0  0
138115  1  0  0  0  0
 12  5  2  0  0  0  0
 30 14  1  0  0  0  0
 42 35  2  0  0  0  0
 60 44  1  0  0  0  0
 94 87  2  0  0  0  0
112 96  1  0  0  0  0
124117  2  0  0  0  0
142126  1  0  0  0  0
 23 17  2  0  0  0  0
 53 47  2  0  0  0  0
105 99  2  0  0  0  0
135129  2  0  0  0  0
  1143  1  0  0  0  0
  2144  1  0  0  0  0
  8145  1  0  0  0  0
  8146  1  0  0  0  0
  9147  1  0  0  0  0
  9148  1  0  0  0  0
  9149  1  0  0  0  0
 20150  1  0  0  0  0
 20151  1  0  0  0  0
 21152  1  0  0  0  0
 21153  1  0  0  0  0
 21154  1  0  0  0  0
 28155  1  0  0  0  0
 32156  1  0  0  0  0
 38157  1  0  0  0  0
 38158  1  0  0  0  0
 39159  1  0  0  0  0
 39160  1  0  0  0  0
 39161  1  0  0  0  0
 50162  1  0  0  0  0
 50163  1  0  0  0  0
 51164  1  0  0  0  0
 51165  1  0  0  0  0
 51166  1  0  0  0  0
 58167  1  0  0  0  0
 62168  1  0  0  0  0
 68169  1  0  0  0  0
 69170  1  0  0  0  0
 73171  1  0  0  0  0
 79172  1  0  0  0  0
 80173  1  0  0  0  0
 84174  1  0  0  0  0
 90175  1  0  0  0  0
 90176  1  0  0  0  0
 91177  1  0  0  0  0
 91178  1  0  0  0  0
 91179  1  0  0  0  0
102180  1  0  0  0  0
102181  1  0  0  0  0
103182  1  0  0  0  0
103183  1  0  0  0  0
103184  1  0  0  0  0
110185  1  0  0  0  0
114186  1  0  0  0  0
120187  1  0  0  0  0
120188  1  0  0  0  0
121189  1  0  0  0  0
121190  1  0  0  0  0
121191  1  0  0  0  0
132192  1  0  0  0  0
132193  1  0  0  0  0
133194  1  0  0  0  0
133195  1  0  0  0  0
133196  1  0  0  0  0
140197  1  0  0  0  0
141198  1  0  0  0  0
M  END
