
  xtb     03022206323D
 energy: -398.453385917080 gnorm: 0.000314348335 xtb: 6.4.1 (unknown)
200223  0     0  0            999 V2000
    4.3637   -0.1859   15.9682 C   0  0  0  0  0  0  0  0  0  0  0  0
    5.0652    0.5225   15.0600 C   0  0  0  0  0  0  0  0  0  0  0  0
    4.3290    0.7710   13.8652 C   0  0  0  0  0  0  0  0  0  0  0  0
    4.7239    1.5067   12.7369 C   0  0  0  0  0  0  0  0  0  0  0  0
    6.0762    2.0222   12.6017 C   0  0  0  0  0  0  0  0  0  0  0  0
    6.3837    3.6899   12.2234 S   0  0  0  0  0  0  0  0  0  0  0  0
    8.0980    3.4511   12.2105 C   0  0  0  0  0  0  0  0  0  0  0  0
    9.0246    4.5653   11.8699 C   0  0  0  0  0  0  0  0  0  0  0  0
    9.0689    4.7906   10.3566 C   0  0  0  0  0  0  0  0  0  0  0  0
    8.3975    2.1483   12.4760 C   0  0  0  0  0  0  0  0  0  0  0  0
    9.9951    1.5238   12.5364 Cl  0  0  0  0  0  0  0  0  0  0  0  0
    7.2544    1.3359   12.7042 C   0  0  0  0  0  0  0  0  0  0  0  0
    7.3633   -0.3525   12.9937 Cl  0  0  0  0  0  0  0  0  0  0  0  0
    3.7695    1.7057   11.7481 C   0  0  0  0  0  0  0  0  0  0  0  0
    2.4652    1.1590   11.8145 C   0  0  0  0  0  0  0  0  0  0  0  0
    2.0869    0.3769   12.9186 C   0  0  0  0  0  0  0  0  0  0  0  0
    0.7655   -0.2227   12.9996 C   0  0  0  0  0  0  0  0  0  0  0  0
   -0.6740    0.7353   12.8111 S   0  0  0  0  0  0  0  0  0  0  0  0
   -1.7105   -0.6331   13.0310 C   0  0  0  0  0  0  0  0  0  0  0  0
   -3.1886   -0.5014   12.9132 C   0  0  0  0  0  0  0  0  0  0  0  0
   -3.6087   -0.4108   11.4442 C   0  0  0  0  0  0  0  0  0  0  0  0
   -0.9698   -1.7587   13.2325 C   0  0  0  0  0  0  0  0  0  0  0  0
    0.4331   -1.5300   13.2227 C   0  0  0  0  0  0  0  0  0  0  0  0
    1.5700   -2.8018   13.3817 Cl  0  0  0  0  0  0  0  0  0  0  0  0
   -1.6427   -3.3179   13.4780 Cl  0  0  0  0  0  0  0  0  0  0  0  0
    3.0288    0.2148   13.9286 C   0  0  0  0  0  0  0  0  0  0  0  0
    2.7707   -0.6031   15.4428 S   0  0  0  0  0  0  0  0  0  0  0  0
    1.7050    1.4705   10.6597 C   0  0  0  0  0  0  0  0  0  0  0  0
    2.3798    2.2292    9.7514 C   0  0  0  0  0  0  0  0  0  0  0  0
    4.0139    2.5922   10.2694 S   0  0  0  0  0  0  0  0  0  0  0  0
    1.9019    2.7088    8.4973 C   0  0  0  0  0  0  0  0  0  0  0  0
    2.5757    3.4559    7.5783 C   0  0  0  0  0  0  0  0  0  0  0  0
    1.8186    3.7423    6.4155 C   0  0  0  0  0  0  0  0  0  0  0  0
    2.2004    4.4985    5.2932 C   0  0  0  0  0  0  0  0  0  0  0  0
    3.5120    5.1182    5.2052 C   0  0  0  0  0  0  0  0  0  0  0  0
    4.9711    4.1997    5.4376 S   0  0  0  0  0  0  0  0  0  0  0  0
    5.9786    5.5808    5.1724 C   0  0  0  0  0  0  0  0  0  0  0  0
    7.4632    5.4697    5.1869 C   0  0  0  0  0  0  0  0  0  0  0  0
    7.9959    5.0863    3.8042 C   0  0  0  0  0  0  0  0  0  0  0  0
    5.2148    6.6785    4.9111 C   0  0  0  0  0  0  0  0  0  0  0  0
    5.8596    8.2368    4.5989 Cl  0  0  0  0  0  0  0  0  0  0  0  0
    3.8170    6.4234    4.9322 C   0  0  0  0  0  0  0  0  0  0  0  0
    2.6534    7.6640    4.7234 Cl  0  0  0  0  0  0  0  0  0  0  0  0
    1.2702    4.6163    4.2674 C   0  0  0  0  0  0  0  0  0  0  0  0
   -0.0275    4.0532    4.3370 C   0  0  0  0  0  0  0  0  0  0  0  0
   -0.4334    3.3583    5.4894 C   0  0  0  0  0  0  0  0  0  0  0  0
   -1.7878    2.8516    5.6224 C   0  0  0  0  0  0  0  0  0  0  0  0
   -2.1099    1.2044    6.0736 S   0  0  0  0  0  0  0  0  0  0  0  0
   -3.8239    1.4425    6.0174 C   0  0  0  0  0  0  0  0  0  0  0  0
   -4.7623    0.3412    6.3676 C   0  0  0  0  0  0  0  0  0  0  0  0
   -4.7973    0.1140    7.8803 C   0  0  0  0  0  0  0  0  0  0  0  0
   -4.1122    2.7309    5.6799 C   0  0  0  0  0  0  0  0  0  0  0  0
   -2.9618    3.5322    5.4490 C   0  0  0  0  0  0  0  0  0  0  0  0
   -3.0610    5.2050    5.0738 Cl  0  0  0  0  0  0  0  0  0  0  0  0
   -5.7057    3.3518    5.5370 Cl  0  0  0  0  0  0  0  0  0  0  0  0
    0.5158    3.1910    6.4878 C   0  0  0  0  0  0  0  0  0  0  0  0
    0.2684    2.3358    7.9837 S   0  0  0  0  0  0  0  0  0  0  0  0
   -0.7474    4.2406    3.1328 C   0  0  0  0  0  0  0  0  0  0  0  0
   -0.0648    4.9502    2.1910 C   0  0  0  0  0  0  0  0  0  0  0  0
    1.5472    5.3754    2.7289 S   0  0  0  0  0  0  0  0  0  0  0  0
   -0.5075    5.1931    0.8472 C   0  0  0  0  0  0  0  0  0  0  0  0
   -1.1963    3.8461    0.0139 S   0  0  0  0  0  0  0  0  0  0  0  0
   -1.4092    4.7486   -1.4451 C   0  0  0  0  0  0  0  0  0  0  0  0
   -0.9236    6.0480   -1.3014 C   0  0  0  0  0  0  0  0  0  0  0  0
   -0.4505    6.3174    0.0305 C   0  0  0  0  0  0  0  0  0  0  0  0
   -0.0729    7.6453    0.3685 C   0  0  0  0  0  0  0  0  0  0  0  0
    0.2467    8.0858    2.0482 S   0  0  0  0  0  0  0  0  0  0  0  0
   -0.0343    8.5957   -0.6171 C   0  0  0  0  0  0  0  0  0  0  0  0
   -0.3630    8.2945   -1.9450 C   0  0  0  0  0  0  0  0  0  0  0  0
   -0.8192    7.0526   -2.3042 C   0  0  0  0  0  0  0  0  0  0  0  0
   -1.1401    6.8311   -3.6027 O   0  0  0  0  0  0  0  0  0  0  0  0
   -1.9994    4.0992   -2.5826 C   0  0  0  0  0  0  0  0  0  0  0  0
   -1.3042    2.6256   -3.1702 S   0  0  0  0  0  0  0  0  0  0  0  0
   -2.4817    2.4603   -4.4315 C   0  0  0  0  0  0  0  0  0  0  0  0
   -3.3828    3.5263   -4.4003 C   0  0  0  0  0  0  0  0  0  0  0  0
   -3.1359    4.4382   -3.3165 C   0  0  0  0  0  0  0  0  0  0  0  0
   -4.0610    5.4877   -3.0547 C   0  0  0  0  0  0  0  0  0  0  0  0
   -3.8968    6.4768   -1.5985 S   0  0  0  0  0  0  0  0  0  0  0  0
   -5.1094    5.6749   -3.9137 C   0  0  0  0  0  0  0  0  0  0  0  0
   -5.2776    4.8636   -5.0458 C   0  0  0  0  0  0  0  0  0  0  0  0
   -4.4455    3.8063   -5.3017 C   0  0  0  0  0  0  0  0  0  0  0  0
   -4.5801    3.0284   -6.4034 O   0  0  0  0  0  0  0  0  0  0  0  0
   -2.4091    1.2726   -5.2186 C   0  0  0  0  0  0  0  0  0  0  0  0
   -1.2958    0.4811   -5.3243 C   0  0  0  0  0  0  0  0  0  0  0  0
   -1.5079   -0.7182   -6.0384 C   0  0  0  0  0  0  0  0  0  0  0  0
   -0.5760   -1.7303   -6.3364 C   0  0  0  0  0  0  0  0  0  0  0  0
    0.8234   -1.5974   -5.9670 C   0  0  0  0  0  0  0  0  0  0  0  0
    1.7473   -0.2035   -6.4487 S   0  0  0  0  0  0  0  0  0  0  0  0
    3.1892   -0.8009   -5.7015 C   0  0  0  0  0  0  0  0  0  0  0  0
    4.4730   -0.0524   -5.7919 C   0  0  0  0  0  0  0  0  0  0  0  0
    5.2145   -0.3937   -7.0866 C   0  0  0  0  0  0  0  0  0  0  0  0
    2.9536   -2.0113   -5.1217 C   0  0  0  0  0  0  0  0  0  0  0  0
    4.1441   -2.9155   -4.2796 Cl  0  0  0  0  0  0  0  0  0  0  0  0
    1.6144   -2.4646   -5.2660 C   0  0  0  0  0  0  0  0  0  0  0  0
    1.0555   -3.9141   -4.5435 Cl  0  0  0  0  0  0  0  0  0  0  0  0
   -1.0535   -2.8469   -7.0088 C   0  0  0  0  0  0  0  0  0  0  0  0
   -2.4109   -2.9862   -7.3940 C   0  0  0  0  0  0  0  0  0  0  0  0
   -3.3281   -1.9502   -7.1450 C   0  0  0  0  0  0  0  0  0  0  0  0
   -4.6982   -2.0420   -7.6201 C   0  0  0  0  0  0  0  0  0  0  0  0
   -6.0528   -1.7943   -6.5597 S   0  0  0  0  0  0  0  0  0  0  0  0
   -7.1972   -2.0864   -7.8253 C   0  0  0  0  0  0  0  0  0  0  0  0
   -8.6619   -2.0954   -7.5585 C   0  0  0  0  0  0  0  0  0  0  0  0
   -9.1118   -3.4631   -7.0387 C   0  0  0  0  0  0  0  0  0  0  0  0
   -6.5512   -2.3570   -8.9946 C   0  0  0  0  0  0  0  0  0  0  0  0
   -5.1355   -2.3288   -8.8846 C   0  0  0  0  0  0  0  0  0  0  0  0
   -4.1043   -2.5584  -10.2399 Cl  0  0  0  0  0  0  0  0  0  0  0  0
   -7.3507   -2.6881  -10.4770 Cl  0  0  0  0  0  0  0  0  0  0  0  0
   -2.8579   -0.8468   -6.4478 C   0  0  0  0  0  0  0  0  0  0  0  0
   -3.7930    0.5523   -6.0118 S   0  0  0  0  0  0  0  0  0  0  0  0
   -2.6581   -4.2311   -8.0160 C   0  0  0  0  0  0  0  0  0  0  0  0
   -1.5387   -4.9982   -8.1676 C   0  0  0  0  0  0  0  0  0  0  0  0
   -0.1138   -4.2207   -7.5178 S   0  0  0  0  0  0  0  0  0  0  0  0
   -1.4724   -6.2855   -8.7815 C   0  0  0  0  0  0  0  0  0  0  0  0
   -2.5261   -7.0029   -9.2686 C   0  0  0  0  0  0  0  0  0  0  0  0
   -2.1510   -8.2326   -9.8596 C   0  0  0  0  0  0  0  0  0  0  0  0
   -2.9874   -9.2066  -10.4323 C   0  0  0  0  0  0  0  0  0  0  0  0
   -4.4280   -9.0218  -10.4841 C   0  0  0  0  0  0  0  0  0  0  0  0
   -5.1302   -7.5732  -11.1465 S   0  0  0  0  0  0  0  0  0  0  0  0
   -6.7436   -8.1176  -10.8420 C   0  0  0  0  0  0  0  0  0  0  0  0
   -7.9171   -7.2487  -11.1324 C   0  0  0  0  0  0  0  0  0  0  0  0
   -8.1812   -6.2882   -9.9699 C   0  0  0  0  0  0  0  0  0  0  0  0
   -6.7236   -9.3485  -10.2577 C   0  0  0  0  0  0  0  0  0  0  0  0
   -8.1338  -10.2095   -9.7951 Cl  0  0  0  0  0  0  0  0  0  0  0  0
   -5.4154   -9.8674  -10.0594 C   0  0  0  0  0  0  0  0  0  0  0  0
   -5.1343  -11.3640   -9.2739 Cl  0  0  0  0  0  0  0  0  0  0  0  0
   -2.3685  -10.3370  -10.9533 C   0  0  0  0  0  0  0  0  0  0  0  0
   -0.9685  -10.5423  -10.8971 C   0  0  0  0  0  0  0  0  0  0  0  0
   -0.1412   -9.5936  -10.2754 C   0  0  0  0  0  0  0  0  0  0  0  0
    1.2889   -9.8121  -10.1370 C   0  0  0  0  0  0  0  0  0  0  0  0
    2.4477   -8.6237  -10.6516 S   0  0  0  0  0  0  0  0  0  0  0  0
    3.7862   -9.5981  -10.1481 C   0  0  0  0  0  0  0  0  0  0  0  0
    5.1853   -9.1051  -10.2724 C   0  0  0  0  0  0  0  0  0  0  0  0
    5.5396   -8.1745   -9.1100 C   0  0  0  0  0  0  0  0  0  0  0  0
    3.3441  -10.7665   -9.6029 C   0  0  0  0  0  0  0  0  0  0  0  0
    1.9292  -10.8946   -9.6000 C   0  0  0  0  0  0  0  0  0  0  0  0
    1.1251  -12.2455   -8.9107 Cl  0  0  0  0  0  0  0  0  0  0  0  0
    4.3789  -11.9849   -8.9782 Cl  0  0  0  0  0  0  0  0  0  0  0  0
   -0.7526   -8.4432   -9.7936 C   0  0  0  0  0  0  0  0  0  0  0  0
    0.0521   -7.1138   -9.0083 S   0  0  0  0  0  0  0  0  0  0  0  0
   -0.5863  -11.7361  -11.5759 C   0  0  0  0  0  0  0  0  0  0  0  0
   -1.6362  -12.3959  -12.1056 C   0  0  0  0  0  0  0  0  0  0  0  0
   -3.1564  -11.6246  -11.8192 S   0  0  0  0  0  0  0  0  0  0  0  0
    4.6803   -0.5032   16.9425 H   0  0  0  0  0  0  0  0  0  0  0  0
    6.0648    0.8796   15.2251 H   0  0  0  0  0  0  0  0  0  0  0  0
   10.0221    4.3156   12.2351 H   0  0  0  0  0  0  0  0  0  0  0  0
    8.6899    5.4803   12.3620 H   0  0  0  0  0  0  0  0  0  0  0  0
    8.0783    5.0419    9.9849 H   0  0  0  0  0  0  0  0  0  0  0  0
    9.4116    3.8907    9.8520 H   0  0  0  0  0  0  0  0  0  0  0  0
    9.7492    5.6041   10.1199 H   0  0  0  0  0  0  0  0  0  0  0  0
   -3.6548   -1.3716   13.3779 H   0  0  0  0  0  0  0  0  0  0  0  0
   -3.5184    0.3961   13.4399 H   0  0  0  0  0  0  0  0  0  0  0  0
   -3.1506    0.4566   10.9747 H   0  0  0  0  0  0  0  0  0  0  0  0
   -3.2959   -1.3032   10.9079 H   0  0  0  0  0  0  0  0  0  0  0  0
   -4.6886   -0.3195   11.3678 H   0  0  0  0  0  0  0  0  0  0  0  0
    0.6941    1.1433   10.4984 H   0  0  0  0  0  0  0  0  0  0  0  0
    3.5865    3.7864    7.7347 H   0  0  0  0  0  0  0  0  0  0  0  0
    7.7625    4.7141    5.9152 H   0  0  0  0  0  0  0  0  0  0  0  0
    7.8834    6.4319    5.4857 H   0  0  0  0  0  0  0  0  0  0  0  0
    7.5875    4.1271    3.4954 H   0  0  0  0  0  0  0  0  0  0  0  0
    9.0798    5.0135    3.8287 H   0  0  0  0  0  0  0  0  0  0  0  0
    7.7129    5.8370    3.0708 H   0  0  0  0  0  0  0  0  0  0  0  0
   -5.7586    0.6049    6.0090 H   0  0  0  0  0  0  0  0  0  0  0  0
   -4.4444   -0.5783    5.8722 H   0  0  0  0  0  0  0  0  0  0  0  0
   -5.1265    1.0160    8.3898 H   0  0  0  0  0  0  0  0  0  0  0  0
   -3.8067   -0.1481    8.2433 H   0  0  0  0  0  0  0  0  0  0  0  0
   -5.4836   -0.6931    8.1214 H   0  0  0  0  0  0  0  0  0  0  0  0
   -1.7415    3.8672    2.9660 H   0  0  0  0  0  0  0  0  0  0  0  0
    0.3292    9.3953    1.8122 H   0  0  0  0  0  0  0  0  0  0  0  0
    0.2545    9.6083   -0.3768 H   0  0  0  0  0  0  0  0  0  0  0  0
   -0.2865    9.0562   -2.7033 H   0  0  0  0  0  0  0  0  0  0  0  0
   -1.4308    5.9181   -3.7276 H   0  0  0  0  0  0  0  0  0  0  0  0
   -5.0511    7.1209   -1.7700 H   0  0  0  0  0  0  0  0  0  0  0  0
   -5.8253    6.4622   -3.7323 H   0  0  0  0  0  0  0  0  0  0  0  0
   -6.0936    5.0772   -5.7216 H   0  0  0  0  0  0  0  0  0  0  0  0
   -5.3582    3.2955   -6.9082 H   0  0  0  0  0  0  0  0  0  0  0  0
   -0.3489    0.7559   -4.8949 H   0  0  0  0  0  0  0  0  0  0  0  0
    5.0939   -0.3178   -4.9342 H   0  0  0  0  0  0  0  0  0  0  0  0
    4.2706    1.0195   -5.7605 H   0  0  0  0  0  0  0  0  0  0  0  0
    4.6071   -0.1315   -7.9496 H   0  0  0  0  0  0  0  0  0  0  0  0
    5.4332   -1.4577   -7.1258 H   0  0  0  0  0  0  0  0  0  0  0  0
    6.1499    0.1570   -7.1370 H   0  0  0  0  0  0  0  0  0  0  0  0
   -9.1889   -1.8656   -8.4863 H   0  0  0  0  0  0  0  0  0  0  0  0
   -8.9008   -1.3295   -6.8190 H   0  0  0  0  0  0  0  0  0  0  0  0
   -8.8847   -4.2364   -7.7680 H   0  0  0  0  0  0  0  0  0  0  0  0
   -8.5992   -3.6992   -6.1094 H   0  0  0  0  0  0  0  0  0  0  0  0
  -10.1828   -3.4593   -6.8558 H   0  0  0  0  0  0  0  0  0  0  0  0
   -3.6340   -4.5480   -8.3306 H   0  0  0  0  0  0  0  0  0  0  0  0
   -3.5427   -6.6653   -9.2053 H   0  0  0  0  0  0  0  0  0  0  0  0
   -8.7923   -7.8812  -11.2913 H   0  0  0  0  0  0  0  0  0  0  0  0
   -7.7287   -6.6736  -12.0405 H   0  0  0  0  0  0  0  0  0  0  0  0
   -8.3824   -6.8460   -9.0583 H   0  0  0  0  0  0  0  0  0  0  0  0
   -9.0395   -5.6604  -10.1944 H   0  0  0  0  0  0  0  0  0  0  0  0
   -7.3162   -5.6496   -9.8064 H   0  0  0  0  0  0  0  0  0  0  0  0
    5.8602   -9.9629  -10.2756 H   0  0  0  0  0  0  0  0  0  0  0  0
    5.2978   -8.5665  -11.2150 H   0  0  0  0  0  0  0  0  0  0  0  0
    6.5613   -7.8194   -9.2145 H   0  0  0  0  0  0  0  0  0  0  0  0
    5.4489   -8.7019   -8.1639 H   0  0  0  0  0  0  0  0  0  0  0  0
    4.8700   -7.3178   -9.0956 H   0  0  0  0  0  0  0  0  0  0  0  0
    0.4324  -12.0628  -11.6720 H   0  0  0  0  0  0  0  0  0  0  0  0
   -1.6248  -13.3118  -12.6635 H   0  0  0  0  0  0  0  0  0  0  0  0
  1  2  2  0  0  0  0
  2  3  1  0  0  0  0
  3  4  2  0  0  0  0
  4  5  1  0  0  0  0
  5  6  1  0  0  0  0
  6  7  1  0  0  0  0
  7  8  1  0  0  0  0
  8  9  1  0  0  0  0
  7 10  2  0  0  0  0
 10 11  1  0  0  0  0
 10 12  1  0  0  0  0
 12 13  1  0  0  0  0
  4 14  1  0  0  0  0
 14 15  2  0  0  0  0
 15 16  1  0  0  0  0
 16 17  1  0  0  0  0
 17 18  1  0  0  0  0
 18 19  1  0  0  0  0
 19 20  1  0  0  0  0
 20 21  1  0  0  0  0
 19 22  2  0  0  0  0
 22 23  1  0  0  0  0
 23 24  1  0  0  0  0
 22 25  1  0  0  0  0
 16 26  2  0  0  0  0
 26 27  1  0  0  0  0
 15 28  1  0  0  0  0
 28 29  2  0  0  0  0
 29 30  1  0  0  0  0
 29 31  1  0  0  0  0
 31 32  2  0  0  0  0
 32 33  1  0  0  0  0
 33 34  2  0  0  0  0
 34 35  1  0  0  0  0
 35 36  1  0  0  0  0
 36 37  1  0  0  0  0
 37 38  1  0  0  0  0
 38 39  1  0  0  0  0
 37 40  2  0  0  0  0
 40 41  1  0  0  0  0
 40 42  1  0  0  0  0
 42 43  1  0  0  0  0
 34 44  1  0  0  0  0
 44 45  2  0  0  0  0
 45 46  1  0  0  0  0
 46 47  1  0  0  0  0
 47 48  1  0  0  0  0
 48 49  1  0  0  0  0
 49 50  1  0  0  0  0
 50 51  1  0  0  0  0
 49 52  2  0  0  0  0
 52 53  1  0  0  0  0
 53 54  1  0  0  0  0
 52 55  1  0  0  0  0
 46 56  2  0  0  0  0
 56 57  1  0  0  0  0
 45 58  1  0  0  0  0
 58 59  2  0  0  0  0
 59 60  1  0  0  0  0
 59 61  1  0  0  0  0
 61 62  1  0  0  0  0
 62 63  1  0  0  0  0
 63 64  2  0  0  0  0
 64 65  1  0  0  0  0
 65 66  1  0  0  0  0
 66 67  1  0  0  0  0
 66 68  2  0  0  0  0
 68 69  1  0  0  0  0
 69 70  2  0  0  0  0
 70 71  1  0  0  0  0
 63 72  1  0  0  0  0
 72 73  1  0  0  0  0
 73 74  1  0  0  0  0
 74 75  2  0  0  0  0
 75 76  1  0  0  0  0
 76 77  1  0  0  0  0
 77 78  1  0  0  0  0
 77 79  2  0  0  0  0
 79 80  1  0  0  0  0
 80 81  2  0  0  0  0
 81 82  1  0  0  0  0
 74 83  1  0  0  0  0
 83 84  2  0  0  0  0
 84 85  1  0  0  0  0
 85 86  2  0  0  0  0
 86 87  1  0  0  0  0
 87 88  1  0  0  0  0
 88 89  1  0  0  0  0
 89 90  1  0  0  0  0
 90 91  1  0  0  0  0
 89 92  2  0  0  0  0
 92 93  1  0  0  0  0
 92 94  1  0  0  0  0
 94 95  1  0  0  0  0
 86 96  1  0  0  0  0
 96 97  2  0  0  0  0
 97 98  1  0  0  0  0
 98 99  1  0  0  0  0
 99100  1  0  0  0  0
100101  1  0  0  0  0
101102  1  0  0  0  0
102103  1  0  0  0  0
101104  2  0  0  0  0
104105  1  0  0  0  0
105106  1  0  0  0  0
104107  1  0  0  0  0
 98108  2  0  0  0  0
108109  1  0  0  0  0
 97110  1  0  0  0  0
110111  2  0  0  0  0
111112  1  0  0  0  0
111113  1  0  0  0  0
113114  2  0  0  0  0
114115  1  0  0  0  0
115116  2  0  0  0  0
116117  1  0  0  0  0
117118  1  0  0  0  0
118119  1  0  0  0  0
119120  1  0  0  0  0
120121  1  0  0  0  0
119122  2  0  0  0  0
122123  1  0  0  0  0
122124  1  0  0  0  0
124125  1  0  0  0  0
116126  1  0  0  0  0
126127  2  0  0  0  0
127128  1  0  0  0  0
128129  1  0  0  0  0
129130  1  0  0  0  0
130131  1  0  0  0  0
131132  1  0  0  0  0
132133  1  0  0  0  0
131134  2  0  0  0  0
134135  1  0  0  0  0
135136  1  0  0  0  0
134137  1  0  0  0  0
128138  2  0  0  0  0
138139  1  0  0  0  0
127140  1  0  0  0  0
140141  2  0  0  0  0
141142  1  0  0  0  0
 27  1  1  0  0  0  0
 57 31  1  0  0  0  0
 65 61  2  0  0  0  0
 76 72  2  0  0  0  0
109 83  1  0  0  0  0
139113  1  0  0  0  0
 26  3  1  0  0  0  0
 56 33  1  0  0  0  0
 70 64  1  0  0  0  0
 81 75  1  0  0  0  0
108 85  1  0  0  0  0
138115  1  0  0  0  0
 12  5  2  0  0  0  0
 30 14  1  0  0  0  0
 42 35  2  0  0  0  0
 60 44  1  0  0  0  0
 94 87  2  0  0  0  0
112 96  1  0  0  0  0
124117  2  0  0  0  0
142126  1  0  0  0  0
 23 17  2  0  0  0  0
 53 47  2  0  0  0  0
105 99  2  0  0  0  0
135129  2  0  0  0  0
  1143  1  0  0  0  0
  2144  1  0  0  0  0
  8145  1  0  0  0  0
  8146  1  0  0  0  0
  9147  1  0  0  0  0
  9148  1  0  0  0  0
  9149  1  0  0  0  0
 20150  1  0  0  0  0
 20151  1  0  0  0  0
 21152  1  0  0  0  0
 21153  1  0  0  0  0
 21154  1  0  0  0  0
 28155  1  0  0  0  0
 32156  1  0  0  0  0
 38157  1  0  0  0  0
 38158  1  0  0  0  0
 39159  1  0  0  0  0
 39160  1  0  0  0  0
 39161  1  0  0  0  0
 50162  1  0  0  0  0
 50163  1  0  0  0  0
 51164  1  0  0  0  0
 51165  1  0  0  0  0
 51166  1  0  0  0  0
 58167  1  0  0  0  0
 67168  1  0  0  0  0
 68169  1  0  0  0  0
 69170  1  0  0  0  0
 71171  1  0  0  0  0
 78172  1  0  0  0  0
 79173  1  0  0  0  0
 80174  1  0  0  0  0
 82175  1  0  0  0  0
 84176  1  0  0  0  0
 90177  1  0  0  0  0
 90178  1  0  0  0  0
 91179  1  0  0  0  0
 91180  1  0  0  0  0
 91181  1  0  0  0  0
102182  1  0  0  0  0
102183  1  0  0  0  0
103184  1  0  0  0  0
103185  1  0  0  0  0
103186  1  0  0  0  0
110187  1  0  0  0  0
114188  1  0  0  0  0
120189  1  0  0  0  0
120190  1  0  0  0  0
121191  1  0  0  0  0
121192  1  0  0  0  0
121193  1  0  0  0  0
132194  1  0  0  0  0
132195  1  0  0  0  0
133196  1  0  0  0  0
133197  1  0  0  0  0
133198  1  0  0  0  0
140199  1  0  0  0  0
141200  1  0  0  0  0
M  END
