137

C          3.62610       -3.25140       -1.86390
S          2.82590       -2.07690       -0.89430
C          1.71000       -1.75430       -2.15780
C          1.94140       -2.51890       -3.25580
C          3.05900       -3.38680       -3.09030
C          3.54870       -4.28610       -4.17940
C          2.48130       -4.46830       -5.25550
C          1.90880       -3.11730       -5.67370
C          1.12730       -2.49450       -4.51000
C         -0.19580       -3.23740       -4.36580
O         -0.78860       -3.71760       -5.29560
O         -0.65090       -3.28890       -3.09670
C         -1.77710       -4.05090       -2.89450
C         -2.52510       -4.05110       -1.78640
C         -2.34900       -3.32700       -0.56600
S         -0.80610       -2.69480       -0.11340
C         -1.33140       -2.28380        1.48150
C         -2.68240       -2.58810        1.64510
C         -3.27940       -3.14740        0.45990
C         -4.67920       -3.38890        0.45290
S         -5.59570       -3.90880       -0.98130
C         -5.40680       -3.20230        1.59510
C         -4.80990       -2.73080        2.77210
C         -3.48460       -2.39020        2.80650
O         -2.91990       -1.84560        3.91340
C         -0.40130       -1.74970        2.44250
S         -0.26000       -2.46440        4.02650
C          0.91190       -1.30600        4.48710
C          1.19490       -0.42510        3.48700
C          0.47410       -0.70000        2.29870
C          0.68740        0.11270        1.06580
C          2.05640        0.78150        1.12650
C          2.15960        1.62510        2.38780
C          2.12690        0.74500        3.64840
C          1.64810        1.58980        4.81310
O          2.29430        1.91560        5.77170
O          0.36490        1.94780        4.61440
C         -0.27480        2.74900        5.52020
C         -1.60210        2.90430        5.46890
C         -2.46810        2.22690        4.54620
S         -1.83330        1.33840        3.19620
C         -3.40010        0.80510        2.76040
C         -4.36940        1.27180        3.59910
C         -3.83850        2.10940        4.61700
C         -4.68680        2.81980        5.62900
C         -6.10330        2.25150        5.69610
C         -6.64340        1.99600        4.29570
C         -5.81890        0.88490        3.62760
C         -6.50990        0.45260        2.34910
O         -7.68010        0.16840        2.33270
O         -5.71900        0.37710        1.26460
C         -6.26610       -0.20160        0.14490
C         -5.64510       -0.34450       -1.02460
C         -4.35350        0.13020       -1.45640
S         -3.48280       -0.86410       -2.59860
C         -2.25580        0.32010       -2.75310
C         -2.50130        1.42330       -1.99560
C         -3.69770        1.31410       -1.23260
C         -4.17950        2.40880       -0.33600
C         -3.48590        3.73310       -0.64840
C         -1.98070        3.52820       -0.77520
C         -1.68380        2.69070       -2.01800
C         -0.21080        2.34720       -2.13300
O          0.56500        2.32470       -1.21480
O          0.08510        2.06370       -3.41060
C          1.28460        1.54530       -3.83870
C          2.37000        1.24990       -3.11960
C          3.52880        0.61600       -3.67320
S          3.57710        0.09270       -5.33620
C          5.15020       -0.55600       -5.12680
C          5.61890       -0.37700       -3.86170
C          4.69480        0.29200       -3.02040
C          5.02040        0.63180       -1.60160
C          6.13830       -0.26390       -1.07510
C          7.32480       -0.26230       -2.03410
C          6.95100       -0.88370       -3.37970
C          6.86630       -2.40480       -3.37770
O          6.58890       -3.05210       -4.35390
O          7.13230       -2.94030       -2.17910
C          7.08260       -4.30900       -2.03970
C          7.28270       -4.87540       -0.86500
H          4.46540       -3.78330       -1.46060
H          0.94070       -1.02250       -2.01620
H          3.84360       -5.25210       -3.76260
H          4.44200       -3.83780       -4.62640
H          2.91860       -4.96890       -6.12030
H          1.67380       -5.09960       -4.87690
H          1.23440       -3.24090       -6.52150
H          2.71970       -2.44980       -5.96630
H          0.86280       -1.45740       -4.75600
H         -2.04540       -4.67200       -3.73920
H         -3.36460       -4.73050       -1.80030
H         -4.94390       -3.14980       -1.86150
H         -6.46730       -3.39990        1.58510
H         -5.42230       -2.59920        3.65370
H         -3.56910       -1.80540        4.62630
H          1.32250       -1.33200        5.47750
H          0.61750       -0.51940        0.18220
H         -0.08440        0.88300        0.98460
H          2.83930        0.02050        1.11630
H          2.17080        1.42820        0.25890
H          3.07920        2.21250        2.38580
H          1.31390        2.31490        2.40500
H          3.13350        0.38680        3.88770
H          0.35670        3.21960        6.26080
H         -2.06670        3.55010        6.19710
H         -3.50630        0.14510        1.92410
H         -4.73730        3.87770        5.34860
H         -4.22100        2.76720        6.61520
H         -6.75060        2.95250        6.22520
H         -6.09980        1.31420        6.25700
H         -6.57610        2.90750        3.69800
H         -7.68850        1.68710        4.33450
H         -5.90890       -0.00380        4.27400
H         -7.26420       -0.59270        0.29630
H         -6.18280       -0.91930       -1.76670
H         -1.43830        0.13020       -3.41910
H         -5.26320        2.51080       -0.43130
H         -3.97290        2.13040        0.70180
H         -3.87410        4.14460       -1.58320
H         -3.69990        4.44860        0.14680
H         -1.59680        3.01320        0.10740
H         -1.46770        4.48800       -0.85420
H         -1.95970        3.25000       -2.92130
H          1.23360        1.36590       -4.90520
H          2.40310        1.46150       -2.06330
H          5.64040       -1.04100       -5.94680
H          4.13570        0.52630       -0.97360
H          5.33750        1.67920       -1.55510
H          6.45720        0.09300       -0.09480
H          5.76290       -1.28060       -0.95620
H          7.64350        0.76850       -2.20640
H          8.16320       -0.80740       -1.59950
H          7.71220       -0.64070       -4.13160
H          6.86740       -4.84860       -2.95330
H          7.48920       -4.28840        0.01250
H          7.24450       -5.94260       -0.75820
