97

C          5.21510       -4.16860       -0.11070
S          4.58420       -4.82030       -1.57800
C          4.45230       -3.22500       -2.32020
C          4.96620       -2.26120       -1.46180
C          5.35460       -2.79820       -0.17050
C          5.80920       -1.98940        0.86810
S          6.05100       -0.31180        0.73380
C          5.71450        0.00190       -0.92550
C          5.22470       -0.91230       -1.80060
C          3.97710       -3.14920       -3.64740
C          3.31610       -2.14810       -4.31960
C          2.67220       -0.99880       -3.85150
S          2.43000       -0.72490       -2.14060
C          1.78090        0.89000       -2.36350
C          1.79360        1.20240       -3.75270
C          2.17660        0.10720       -4.58810
C          2.05560        0.27170       -5.98420
S          2.26110       -1.04030       -7.17830
C          1.74590        1.50460       -6.51210
C          1.55660        2.61120       -5.69360
C          1.58030        2.47230       -4.31980
O          1.46390        3.54840       -3.50120
C          1.23410        1.57260       -1.29380
S          0.02210        2.82480       -1.49850
C         -0.43140        2.78300        0.20820
C          0.46600        2.01610        0.92820
C          1.39200        1.27840        0.10240
C          2.33060        0.44180        0.62960
S          2.54110        0.11990        2.30880
C          1.43450        1.23770        3.04010
C          0.57030        2.00330        2.34810
C         -1.55660        3.53370        0.60800
C         -2.43920        3.30750        1.64140
C         -2.59240        2.19550        2.46990
S         -1.84450        0.63600        2.17410
C         -2.18930        0.06600        3.80030
C         -3.06150        0.94490        4.44500
C         -3.32500        2.15160        3.69000
C         -4.13820        3.14880        4.15820
S         -4.97380        3.11320        5.66110
C         -4.47250        1.59330        6.33170
C         -3.63470        0.73050        5.72020
C         -1.43670       -0.95140        4.39640
C         -0.56050       -1.83470        3.80070
C         -0.54840       -2.34320        2.50680
S         -1.94750       -2.32690        1.44210
C         -1.34990       -3.70140        0.51170
C         -0.03490       -4.00480        0.86970
C          0.44370       -3.22120        1.98530
C          1.71770       -3.32960        2.47530
S          2.90200       -4.41120        1.87770
C          2.05820       -5.23720        0.62060
C          0.78320       -4.97630        0.25360
C         -2.17130       -4.45340       -0.34010
C         -3.48310       -4.22140       -0.68550
C         -4.19640       -3.02040       -0.62150
S         -5.94010       -3.04830       -0.50840
C         -6.05640       -1.30100       -0.56940
C         -4.81540       -0.72350       -0.68430
C         -3.74400       -1.68700       -0.77170
C         -2.43780       -1.33940       -1.03200
S         -1.91380        0.26300       -1.37040
C         -3.32010        1.19110       -0.95870
C         -4.52540        0.67780       -0.67580
C         -7.37220       -0.71830       -0.51860
C         -7.74760        0.43030       -1.07640
H          5.51190       -4.82360        0.68190
H          6.01990       -2.39460        1.84240
H          5.91070        1.02150       -1.20940
H          5.08790       -0.61330       -2.82920
H          4.15430       -4.05050       -4.22350
H          3.26230       -2.29490       -5.38910
H          1.41110       -1.89370       -6.60450
H          1.67120        1.61090       -7.58320
H          1.38040        3.58320       -6.13240
H          1.24970        4.33500       -4.01840
H          3.05260       -0.08290        0.03210
H          1.49900        1.25530        4.11430
H         -0.05090        2.69820        2.89500
H         -1.77590        4.38270       -0.02970
H         -3.14230        4.11100        1.82960
H         -4.32970        4.04960        3.60070
H         -4.90770        1.39910        7.29660
H         -3.40050       -0.19350        6.22980
H         -1.45950       -0.96030        5.47890
H          0.18260       -2.27260        4.45890
H          2.07180       -2.71740        3.28730
H          2.65720       -5.98390        0.12910
H          0.37360       -5.54690       -0.56740
H         -1.75870       -5.40530       -0.64910
H         -4.04870       -5.07930       -1.02920
H         -1.69220       -2.07820       -1.27000
H         -3.12650        2.25030       -0.95350
H         -5.32480        1.35260       -0.40750
H         -8.11040       -1.32510       -0.00790
H         -7.07780        1.03740       -1.65990
H         -8.75960        0.78460       -0.98520
