
  xtb     03022202573D
 energy: -185.491973908139 gnorm: 0.000171711762 xtb: 6.4.1 (unknown)
107118  0     0  0            999 V2000
    4.9799    6.9201   -0.8844 C   0  0  0  0  0  0  0  0  0  0  0  0
    3.6348    7.8146   -0.3432 S   0  0  0  0  0  0  0  0  0  0  0  0
    3.0330    6.5002    0.6289 C   0  0  0  0  0  0  0  0  0  0  0  0
    3.9087    5.4057    0.5497 C   0  0  0  0  0  0  0  0  0  0  0  0
    5.0129    5.6545   -0.3358 C   0  0  0  0  0  0  0  0  0  0  0  0
    5.9915    4.6605   -0.5542 C   0  0  0  0  0  0  0  0  0  0  0  0
    5.8910    3.4702    0.1096 C   0  0  0  0  0  0  0  0  0  0  0  0
    7.1183    2.2275   -0.1755 S   0  0  0  0  0  0  0  0  0  0  0  0
    4.8411    3.2395    1.0280 C   0  0  0  0  0  0  0  0  0  0  0  0
    3.8784    4.1812    1.2476 C   0  0  0  0  0  0  0  0  0  0  0  0
    1.8133    6.7065    1.3128 C   0  0  0  0  0  0  0  0  0  0  0  0
    1.0074    5.7316    1.8212 C   0  0  0  0  0  0  0  0  0  0  0  0
   -0.1920    5.8821    2.5424 C   0  0  0  0  0  0  0  0  0  0  0  0
   -1.1444    4.4386    2.7473 S   0  0  0  0  0  0  0  0  0  0  0  0
   -2.3964    5.2457    3.6331 C   0  0  0  0  0  0  0  0  0  0  0  0
   -2.0765    6.6144    3.7637 C   0  0  0  0  0  0  0  0  0  0  0  0
   -0.8296    6.9747    3.1656 C   0  0  0  0  0  0  0  0  0  0  0  0
   -0.3694    8.2944    3.2932 C   0  0  0  0  0  0  0  0  0  0  0  0
   -1.1448    9.2287    3.9358 C   0  0  0  0  0  0  0  0  0  0  0  0
   -0.5229   10.8786    4.0717 S   0  0  0  0  0  0  0  0  0  0  0  0
   -2.3973    8.8863    4.4782 C   0  0  0  0  0  0  0  0  0  0  0  0
   -2.8500    7.5996    4.4014 C   0  0  0  0  0  0  0  0  0  0  0  0
   -3.4625    4.5746    4.2606 C   0  0  0  0  0  0  0  0  0  0  0  0
   -3.8196    3.2569    4.1606 C   0  0  0  0  0  0  0  0  0  0  0  0
   -3.4295    2.3286    3.1721 C   0  0  0  0  0  0  0  0  0  0  0  0
   -3.2018    0.6550    3.5982 S   0  0  0  0  0  0  0  0  0  0  0  0
   -2.7067    0.2095    1.9901 C   0  0  0  0  0  0  0  0  0  0  0  0
   -2.8099    1.3206    1.1257 C   0  0  0  0  0  0  0  0  0  0  0  0
   -3.2298    2.5070    1.7906 C   0  0  0  0  0  0  0  0  0  0  0  0
   -3.4538    3.6773    1.0487 C   0  0  0  0  0  0  0  0  0  0  0  0
   -3.2045    3.6765   -0.3021 C   0  0  0  0  0  0  0  0  0  0  0  0
   -3.4797    5.1728   -1.2006 S   0  0  0  0  0  0  0  0  0  0  0  0
   -2.7421    2.5176   -0.9538 C   0  0  0  0  0  0  0  0  0  0  0  0
   -2.5605    1.3558   -0.2557 C   0  0  0  0  0  0  0  0  0  0  0  0
   -2.2168   -1.0587    1.6741 C   0  0  0  0  0  0  0  0  0  0  0  0
   -2.0770   -2.0970    2.5580 C   0  0  0  0  0  0  0  0  0  0  0  0
   -1.5176   -3.3331    2.2125 C   0  0  0  0  0  0  0  0  0  0  0  0
   -1.0807   -3.6333    0.5480 S   0  0  0  0  0  0  0  0  0  0  0  0
   -0.5367   -5.2475    0.8762 C   0  0  0  0  0  0  0  0  0  0  0  0
   -0.7735   -5.5785    2.2216 C   0  0  0  0  0  0  0  0  0  0  0  0
   -1.2601   -4.4773    2.9986 C   0  0  0  0  0  0  0  0  0  0  0  0
   -1.4225   -4.6676    4.3898 C   0  0  0  0  0  0  0  0  0  0  0  0
   -1.8287   -3.3669    5.5373 S   0  0  0  0  0  0  0  0  0  0  0  0
   -1.2797   -5.9235    4.9272 C   0  0  0  0  0  0  0  0  0  0  0  0
   -0.9758   -7.0288    4.1298 C   0  0  0  0  0  0  0  0  0  0  0  0
   -0.7133   -6.8758    2.7888 C   0  0  0  0  0  0  0  0  0  0  0  0
   -0.4455   -7.9308    1.9804 O   0  0  0  0  0  0  0  0  0  0  0  0
    0.0768   -5.9763   -0.1574 C   0  0  0  0  0  0  0  0  0  0  0  0
   -0.4460   -5.7241   -1.7967 S   0  0  0  0  0  0  0  0  0  0  0  0
    0.7177   -6.8262   -2.4553 C   0  0  0  0  0  0  0  0  0  0  0  0
    1.5186   -7.3501   -1.4154 C   0  0  0  0  0  0  0  0  0  0  0  0
    1.1771   -6.8495   -0.1245 C   0  0  0  0  0  0  0  0  0  0  0  0
    1.9838   -7.1552    0.9814 C   0  0  0  0  0  0  0  0  0  0  0  0
    3.0463   -8.0093    0.8218 C   0  0  0  0  0  0  0  0  0  0  0  0
    4.0357   -8.3899    2.2382 S   0  0  0  0  0  0  0  0  0  0  0  0
    3.3481   -8.5641   -0.4367 C   0  0  0  0  0  0  0  0  0  0  0  0
    2.6110   -8.2270   -1.5370 C   0  0  0  0  0  0  0  0  0  0  0  0
    0.7720   -7.2360   -3.8001 C   0  0  0  0  0  0  0  0  0  0  0  0
    0.1856   -6.7579   -4.9406 C   0  0  0  0  0  0  0  0  0  0  0  0
   -0.4958   -5.5621   -5.2416 C   0  0  0  0  0  0  0  0  0  0  0  0
   -0.4606   -4.1165   -4.2895 S   0  0  0  0  0  0  0  0  0  0  0  0
   -1.3135   -3.1776   -5.4689 C   0  0  0  0  0  0  0  0  0  0  0  0
   -1.6669   -3.9701   -6.5639 C   0  0  0  0  0  0  0  0  0  0  0  0
   -1.1896   -5.3144   -6.4471 C   0  0  0  0  0  0  0  0  0  0  0  0
   -1.4641   -6.2385   -7.4661 C   0  0  0  0  0  0  0  0  0  0  0  0
   -2.1994   -5.8488   -8.5573 C   0  0  0  0  0  0  0  0  0  0  0  0
   -2.5166   -7.0369   -9.8270 S   0  0  0  0  0  0  0  0  0  0  0  0
   -2.7135   -4.5390   -8.6542 C   0  0  0  0  0  0  0  0  0  0  0  0
   -2.4585   -3.6208   -7.6794 C   0  0  0  0  0  0  0  0  0  0  0  0
   -1.5185   -1.7898   -5.1770 C   0  0  0  0  0  0  0  0  0  0  0  0
   -1.7434   -0.8064   -6.0501 C   0  0  0  0  0  0  0  0  0  0  0  0
    5.6760    7.3571   -1.5715 H   0  0  0  0  0  0  0  0  0  0  0  0
    6.8085    4.8528   -1.2320 H   0  0  0  0  0  0  0  0  0  0  0  0
    6.6036    1.3253    0.6583 H   0  0  0  0  0  0  0  0  0  0  0  0
    4.8112    2.3048    1.5696 H   0  0  0  0  0  0  0  0  0  0  0  0
    3.1126    3.9906    1.9812 H   0  0  0  0  0  0  0  0  0  0  0  0
    1.4889    7.7357    1.3533 H   0  0  0  0  0  0  0  0  0  0  0  0
    1.2617    4.7018    1.6100 H   0  0  0  0  0  0  0  0  0  0  0  0
    0.5954    8.5839    2.9137 H   0  0  0  0  0  0  0  0  0  0  0  0
   -1.5682   11.3723    4.7330 H   0  0  0  0  0  0  0  0  0  0  0  0
   -2.9932    9.6435    4.9669 H   0  0  0  0  0  0  0  0  0  0  0  0
   -3.8053    7.3406    4.8313 H   0  0  0  0  0  0  0  0  0  0  0  0
   -3.9902    5.1617    5.0014 H   0  0  0  0  0  0  0  0  0  0  0  0
   -4.4422    2.8586    4.9530 H   0  0  0  0  0  0  0  0  0  0  0  0
   -3.8377    4.5628    1.5299 H   0  0  0  0  0  0  0  0  0  0  0  0
   -3.1308    4.6908   -2.3925 H   0  0  0  0  0  0  0  0  0  0  0  0
   -2.5482    2.5466   -2.0164 H   0  0  0  0  0  0  0  0  0  0  0  0
   -2.2352    0.4643   -0.7691 H   0  0  0  0  0  0  0  0  0  0  0  0
   -1.8887   -1.2058    0.6532 H   0  0  0  0  0  0  0  0  0  0  0  0
   -2.4306   -1.9565    3.5683 H   0  0  0  0  0  0  0  0  0  0  0  0
   -0.9254   -2.4912    5.0948 H   0  0  0  0  0  0  0  0  0  0  0  0
   -1.4245   -6.0588    5.9876 H   0  0  0  0  0  0  0  0  0  0  0  0
   -0.9346   -8.0120    4.5772 H   0  0  0  0  0  0  0  0  0  0  0  0
   -0.4529   -8.7457    2.4984 H   0  0  0  0  0  0  0  0  0  0  0  0
    1.7880   -6.7050    1.9411 H   0  0  0  0  0  0  0  0  0  0  0  0
    4.9183   -9.1541    1.5974 H   0  0  0  0  0  0  0  0  0  0  0  0
    4.1862   -9.2394   -0.5332 H   0  0  0  0  0  0  0  0  0  0  0  0
    2.8814   -8.6258   -2.5025 H   0  0  0  0  0  0  0  0  0  0  0  0
    1.3609   -8.1346   -3.9411 H   0  0  0  0  0  0  0  0  0  0  0  0
    0.2952   -7.4029   -5.8043 H   0  0  0  0  0  0  0  0  0  0  0  0
   -1.1148   -7.2566   -7.3959 H   0  0  0  0  0  0  0  0  0  0  0  0
   -3.2373   -6.2293  -10.6030 H   0  0  0  0  0  0  0  0  0  0  0  0
   -3.3225   -4.2703   -9.5055 H   0  0  0  0  0  0  0  0  0  0  0  0
   -2.8867   -2.6345   -7.7454 H   0  0  0  0  0  0  0  0  0  0  0  0
   -1.4281   -1.5442   -4.1252 H   0  0  0  0  0  0  0  0  0  0  0  0
   -1.7724   -0.9655   -7.1127 H   0  0  0  0  0  0  0  0  0  0  0  0
   -1.8767    0.2075   -5.7154 H   0  0  0  0  0  0  0  0  0  0  0  0
  1  2  1  0  0  0  0
  2  3  1  0  0  0  0
  3  4  2  0  0  0  0
  4  5  1  0  0  0  0
  5  6  1  0  0  0  0
  6  7  2  0  0  0  0
  7  8  1  0  0  0  0
  7  9  1  0  0  0  0
  9 10  2  0  0  0  0
  3 11  1  0  0  0  0
 11 12  2  0  0  0  0
 12 13  1  0  0  0  0
 13 14  1  0  0  0  0
 14 15  1  0  0  0  0
 15 16  2  0  0  0  0
 16 17  1  0  0  0  0
 17 18  1  0  0  0  0
 18 19  2  0  0  0  0
 19 20  1  0  0  0  0
 19 21  1  0  0  0  0
 21 22  2  0  0  0  0
 15 23  1  0  0  0  0
 23 24  2  0  0  0  0
 24 25  1  0  0  0  0
 25 26  1  0  0  0  0
 26 27  1  0  0  0  0
 27 28  2  0  0  0  0
 28 29  1  0  0  0  0
 29 30  1  0  0  0  0
 30 31  2  0  0  0  0
 31 32  1  0  0  0  0
 31 33  1  0  0  0  0
 33 34  2  0  0  0  0
 27 35  1  0  0  0  0
 35 36  2  0  0  0  0
 36 37  1  0  0  0  0
 37 38  1  0  0  0  0
 38 39  1  0  0  0  0
 39 40  2  0  0  0  0
 40 41  1  0  0  0  0
 41 42  1  0  0  0  0
 42 43  1  0  0  0  0
 42 44  2  0  0  0  0
 44 45  1  0  0  0  0
 45 46  2  0  0  0  0
 46 47  1  0  0  0  0
 39 48  1  0  0  0  0
 48 49  1  0  0  0  0
 49 50  1  0  0  0  0
 50 51  2  0  0  0  0
 51 52  1  0  0  0  0
 52 53  1  0  0  0  0
 53 54  2  0  0  0  0
 54 55  1  0  0  0  0
 54 56  1  0  0  0  0
 56 57  2  0  0  0  0
 50 58  1  0  0  0  0
 58 59  2  0  0  0  0
 59 60  1  0  0  0  0
 60 61  1  0  0  0  0
 61 62  1  0  0  0  0
 62 63  2  0  0  0  0
 63 64  1  0  0  0  0
 64 65  1  0  0  0  0
 65 66  2  0  0  0  0
 66 67  1  0  0  0  0
 66 68  1  0  0  0  0
 68 69  2  0  0  0  0
 62 70  1  0  0  0  0
 70 71  2  0  0  0  0
  5  1  2  0  0  0  0
 17 13  2  0  0  0  0
 29 25  2  0  0  0  0
 41 37  2  0  0  0  0
 52 48  2  0  0  0  0
 64 60  2  0  0  0  0
 10  4  1  0  0  0  0
 22 16  1  0  0  0  0
 34 28  1  0  0  0  0
 46 40  1  0  0  0  0
 57 51  1  0  0  0  0
 69 63  1  0  0  0  0
  1 72  1  0  0  0  0
  6 73  1  0  0  0  0
  8 74  1  0  0  0  0
  9 75  1  0  0  0  0
 10 76  1  0  0  0  0
 11 77  1  0  0  0  0
 12 78  1  0  0  0  0
 18 79  1  0  0  0  0
 20 80  1  0  0  0  0
 21 81  1  0  0  0  0
 22 82  1  0  0  0  0
 23 83  1  0  0  0  0
 24 84  1  0  0  0  0
 30 85  1  0  0  0  0
 32 86  1  0  0  0  0
 33 87  1  0  0  0  0
 34 88  1  0  0  0  0
 35 89  1  0  0  0  0
 36 90  1  0  0  0  0
 43 91  1  0  0  0  0
 44 92  1  0  0  0  0
 45 93  1  0  0  0  0
 47 94  1  0  0  0  0
 53 95  1  0  0  0  0
 55 96  1  0  0  0  0
 56 97  1  0  0  0  0
 57 98  1  0  0  0  0
 58 99  1  0  0  0  0
 59100  1  0  0  0  0
 65101  1  0  0  0  0
 67102  1  0  0  0  0
 68103  1  0  0  0  0
 69104  1  0  0  0  0
 70105  1  0  0  0  0
 71106  1  0  0  0  0
 71107  1  0  0  0  0
M  END
