107

C          4.97990        6.92010       -0.88440
S          3.63480        7.81460       -0.34320
C          3.03300        6.50020        0.62890
C          3.90870        5.40570        0.54970
C          5.01290        5.65450       -0.33580
C          5.99150        4.66050       -0.55420
C          5.89100        3.47020        0.10960
S          7.11830        2.22750       -0.17550
C          4.84110        3.23950        1.02800
C          3.87840        4.18120        1.24760
C          1.81330        6.70650        1.31280
C          1.00740        5.73160        1.82120
C         -0.19200        5.88210        2.54240
S         -1.14440        4.43860        2.74730
C         -2.39640        5.24570        3.63310
C         -2.07650        6.61440        3.76370
C         -0.82960        6.97470        3.16560
C         -0.36940        8.29440        3.29320
C         -1.14480        9.22870        3.93580
S         -0.52290       10.87860        4.07170
C         -2.39730        8.88630        4.47820
C         -2.85000        7.59960        4.40140
C         -3.46250        4.57460        4.26060
C         -3.81960        3.25690        4.16060
C         -3.42950        2.32860        3.17210
S         -3.20180        0.65500        3.59820
C         -2.70670        0.20950        1.99010
C         -2.80990        1.32060        1.12570
C         -3.22980        2.50700        1.79060
C         -3.45380        3.67730        1.04870
C         -3.20450        3.67650       -0.30210
S         -3.47970        5.17280       -1.20060
C         -2.74210        2.51760       -0.95380
C         -2.56050        1.35580       -0.25570
C         -2.21680       -1.05870        1.67410
C         -2.07700       -2.09700        2.55800
C         -1.51760       -3.33310        2.21250
S         -1.08070       -3.63330        0.54800
C         -0.53670       -5.24750        0.87620
C         -0.77350       -5.57850        2.22160
C         -1.26010       -4.47730        2.99860
C         -1.42250       -4.66760        4.38980
S         -1.82870       -3.36690        5.53730
C         -1.27970       -5.92350        4.92720
C         -0.97580       -7.02880        4.12980
C         -0.71330       -6.87580        2.78880
O         -0.44550       -7.93080        1.98040
C          0.07680       -5.97630       -0.15740
S         -0.44600       -5.72410       -1.79670
C          0.71770       -6.82620       -2.45530
C          1.51860       -7.35010       -1.41540
C          1.17710       -6.84950       -0.12450
C          1.98380       -7.15520        0.98140
C          3.04630       -8.00930        0.82180
S          4.03570       -8.38990        2.23820
C          3.34810       -8.56410       -0.43670
C          2.61100       -8.22700       -1.53700
C          0.77200       -7.23600       -3.80010
C          0.18560       -6.75790       -4.94060
C         -0.49580       -5.56210       -5.24160
S         -0.46060       -4.11650       -4.28950
C         -1.31350       -3.17760       -5.46890
C         -1.66690       -3.97010       -6.56390
C         -1.18960       -5.31440       -6.44710
C         -1.46410       -6.23850       -7.46610
C         -2.19940       -5.84880       -8.55730
S         -2.51660       -7.03690       -9.82700
C         -2.71350       -4.53900       -8.65420
C         -2.45850       -3.62080       -7.67940
C         -1.51850       -1.78980       -5.17700
C         -1.74340       -0.80640       -6.05010
H          5.67600        7.35710       -1.57150
H          6.80850        4.85280       -1.23200
H          6.60360        1.32530        0.65830
H          4.81120        2.30480        1.56960
H          3.11260        3.99060        1.98120
H          1.48890        7.73570        1.35330
H          1.26170        4.70180        1.61000
H          0.59540        8.58390        2.91370
H         -1.56820       11.37230        4.73300
H         -2.99320        9.64350        4.96690
H         -3.80530        7.34060        4.83130
H         -3.99020        5.16170        5.00140
H         -4.44220        2.85860        4.95300
H         -3.83770        4.56280        1.52990
H         -3.13080        4.69080       -2.39250
H         -2.54820        2.54660       -2.01640
H         -2.23520        0.46430       -0.76910
H         -1.88870       -1.20580        0.65320
H         -2.43060       -1.95650        3.56830
H         -0.92540       -2.49120        5.09480
H         -1.42450       -6.05880        5.98760
H         -0.93460       -8.01200        4.57720
H         -0.45290       -8.74570        2.49840
H          1.78800       -6.70500        1.94110
H          4.91830       -9.15410        1.59740
H          4.18620       -9.23940       -0.53320
H          2.88140       -8.62580       -2.50250
H          1.36090       -8.13460       -3.94110
H          0.29520       -7.40290       -5.80430
H         -1.11480       -7.25660       -7.39590
H         -3.23730       -6.22930      -10.60300
H         -3.32250       -4.27030       -9.50550
H         -2.88670       -2.63450       -7.74540
H         -1.42810       -1.54420       -4.12520
H         -1.77240       -0.96550       -7.11270
H         -1.87670        0.20750       -5.71540
