
  xtb     03022201183D
 energy: -453.210631281361 gnorm: 0.000322076843 xtb: 6.4.1 (unknown)
227253  0     0  0            999 V2000
    0.2821   -4.0755   11.8673 C   0  0  0  0  0  0  0  0  0  0  0  0
    1.1804   -3.7003   10.9344 C   0  0  0  0  0  0  0  0  0  0  0  0
    0.8025   -4.0900    9.6165 C   0  0  0  0  0  0  0  0  0  0  0  0
    1.5084   -3.9043    8.4192 C   0  0  0  0  0  0  0  0  0  0  0  0
    2.7836   -3.2039    8.3779 C   0  0  0  0  0  0  0  0  0  0  0  0
    2.9255   -1.5554    8.9049 S   0  0  0  0  0  0  0  0  0  0  0  0
    4.6123   -1.4942    8.5161 C   0  0  0  0  0  0  0  0  0  0  0  0
    5.4058   -0.2530    8.7323 C   0  0  0  0  0  0  0  0  0  0  0  0
    4.7243    0.9657    8.1141 C   0  0  0  0  0  0  0  0  0  0  0  0
    5.0220   -2.6928    8.0147 C   0  0  0  0  0  0  0  0  0  0  0  0
    6.6418   -3.0433    7.5536 Cl  0  0  0  0  0  0  0  0  0  0  0  0
    3.9859   -3.6609    7.9211 C   0  0  0  0  0  0  0  0  0  0  0  0
    4.2513   -5.2529    7.3439 Cl  0  0  0  0  0  0  0  0  0  0  0  0
    0.9267   -4.3944    7.2590 C   0  0  0  0  0  0  0  0  0  0  0  0
   -0.3236   -5.0600    7.2461 C   0  0  0  0  0  0  0  0  0  0  0  0
   -1.0095   -5.2864    8.4505 C   0  0  0  0  0  0  0  0  0  0  0  0
   -2.2620   -6.0209    8.4687 C   0  0  0  0  0  0  0  0  0  0  0  0
   -3.6814   -5.3889    9.2476 S   0  0  0  0  0  0  0  0  0  0  0  0
   -4.6230   -6.7795    8.8319 C   0  0  0  0  0  0  0  0  0  0  0  0
   -6.0359   -6.9159    9.2803 C   0  0  0  0  0  0  0  0  0  0  0  0
   -6.1024   -7.4967   10.6949 C   0  0  0  0  0  0  0  0  0  0  0  0
   -3.8649   -7.6771    8.1404 C   0  0  0  0  0  0  0  0  0  0  0  0
   -2.5284   -7.2475    7.9245 C   0  0  0  0  0  0  0  0  0  0  0  0
   -1.3607   -8.2229    7.1300 Cl  0  0  0  0  0  0  0  0  0  0  0  0
   -4.4502   -9.1867    7.5719 Cl  0  0  0  0  0  0  0  0  0  0  0  0
   -0.4331   -4.7792    9.6091 C   0  0  0  0  0  0  0  0  0  0  0  0
   -1.0788   -4.9245   11.2194 S   0  0  0  0  0  0  0  0  0  0  0  0
   -0.7554   -5.3372    5.9254 C   0  0  0  0  0  0  0  0  0  0  0  0
    0.1237   -4.9202    4.9708 C   0  0  0  0  0  0  0  0  0  0  0  0
    1.5591   -4.1850    5.6532 S   0  0  0  0  0  0  0  0  0  0  0  0
   -0.0604   -4.9195    3.5579 C   0  0  0  0  0  0  0  0  0  0  0  0
    0.7818   -4.4121    2.6149 C   0  0  0  0  0  0  0  0  0  0  0  0
    0.2292   -4.3965    1.3116 C   0  0  0  0  0  0  0  0  0  0  0  0
    0.8296   -3.9549    0.1198 C   0  0  0  0  0  0  0  0  0  0  0  0
    2.2173   -3.5274    0.0670 C   0  0  0  0  0  0  0  0  0  0  0  0
    2.8811   -2.3723    1.1850 S   0  0  0  0  0  0  0  0  0  0  0  0
    4.4353   -2.4065    0.4338 C   0  0  0  0  0  0  0  0  0  0  0  0
    5.5292   -1.5080    0.8925 C   0  0  0  0  0  0  0  0  0  0  0  0
    5.3906   -0.1263    0.2497 C   0  0  0  0  0  0  0  0  0  0  0  0
    4.4308   -3.2721   -0.6189 C   0  0  0  0  0  0  0  0  0  0  0  0
    5.7975   -3.5795   -1.6089 Cl  0  0  0  0  0  0  0  0  0  0  0  0
    3.1812   -3.9139   -0.8263 C   0  0  0  0  0  0  0  0  0  0  0  0
    2.9679   -5.1201   -2.0242 Cl  0  0  0  0  0  0  0  0  0  0  0  0
    0.0244   -3.9393   -1.0148 C   0  0  0  0  0  0  0  0  0  0  0  0
   -1.3143   -4.4019   -1.0182 C   0  0  0  0  0  0  0  0  0  0  0  0
   -1.8744   -4.9567    0.1477 C   0  0  0  0  0  0  0  0  0  0  0  0
   -3.1961   -5.5610    0.1197 C   0  0  0  0  0  0  0  0  0  0  0  0
   -3.5489   -6.7749   -1.0808 S   0  0  0  0  0  0  0  0  0  0  0  0
   -5.1540   -7.0189   -0.4840 C   0  0  0  0  0  0  0  0  0  0  0  0
   -6.0553   -8.0428   -1.0801 C   0  0  0  0  0  0  0  0  0  0  0  0
   -5.8096   -9.4174   -0.4536 C   0  0  0  0  0  0  0  0  0  0  0  0
   -5.3862   -6.2069    0.5849 C   0  0  0  0  0  0  0  0  0  0  0  0
   -4.2832   -5.3784    0.9291 C   0  0  0  0  0  0  0  0  0  0  0  0
   -4.3946   -4.2209    2.1833 Cl  0  0  0  0  0  0  0  0  0  0  0  0
   -6.8712   -6.1606    1.4449 Cl  0  0  0  0  0  0  0  0  0  0  0  0
   -1.0916   -4.9145    1.2933 C   0  0  0  0  0  0  0  0  0  0  0  0
   -1.5730   -5.4709    2.8689 S   0  0  0  0  0  0  0  0  0  0  0  0
   -1.9618   -4.1426   -2.2513 C   0  0  0  0  0  0  0  0  0  0  0  0
   -1.1613   -3.5185   -3.1617 C   0  0  0  0  0  0  0  0  0  0  0  0
    0.4570   -3.2572   -2.5533 S   0  0  0  0  0  0  0  0  0  0  0  0
   -1.5363   -2.9502   -4.4205 C   0  0  0  0  0  0  0  0  0  0  0  0
   -2.7661   -2.4654   -4.7565 C   0  0  0  0  0  0  0  0  0  0  0  0
   -2.7607   -1.7108   -5.9545 C   0  0  0  0  0  0  0  0  0  0  0  0
   -3.8057   -0.9086   -6.4502 C   0  0  0  0  0  0  0  0  0  0  0  0
   -5.1221   -0.9265   -5.8270 C   0  0  0  0  0  0  0  0  0  0  0  0
   -6.0819   -2.3760   -5.8143 S   0  0  0  0  0  0  0  0  0  0  0  0
   -7.3799   -1.6019   -4.9705 C   0  0  0  0  0  0  0  0  0  0  0  0
   -8.6460   -2.3232   -4.6650 C   0  0  0  0  0  0  0  0  0  0  0  0
   -9.6361   -2.2054   -5.8262 C   0  0  0  0  0  0  0  0  0  0  0  0
   -7.0715   -0.2984   -4.7210 C   0  0  0  0  0  0  0  0  0  0  0  0
   -8.1231    0.7953   -3.9174 Cl  0  0  0  0  0  0  0  0  0  0  0  0
   -5.7865    0.0855   -5.1928 C   0  0  0  0  0  0  0  0  0  0  0  0
   -5.1301    1.6425   -4.8954 Cl  0  0  0  0  0  0  0  0  0  0  0  0
   -3.4794   -0.0187   -7.4572 C   0  0  0  0  0  0  0  0  0  0  0  0
   -2.1915    0.0460   -8.0459 C   0  0  0  0  0  0  0  0  0  0  0  0
   -1.1935   -0.8707   -7.6617 C   0  0  0  0  0  0  0  0  0  0  0  0
    0.0745   -0.9015   -8.3567 C   0  0  0  0  0  0  0  0  0  0  0  0
    1.5966   -1.0591   -7.5298 S   0  0  0  0  0  0  0  0  0  0  0  0
    2.4934   -1.0253   -9.0087 C   0  0  0  0  0  0  0  0  0  0  0  0
    3.9734   -1.1825   -9.0125 C   0  0  0  0  0  0  0  0  0  0  0  0
    4.3624   -2.6584   -8.8960 C   0  0  0  0  0  0  0  0  0  0  0  0
    1.6501   -0.9132  -10.0747 C   0  0  0  0  0  0  0  0  0  0  0  0
    0.2805   -0.8356   -9.7117 C   0  0  0  0  0  0  0  0  0  0  0  0
   -0.9689   -0.7645  -10.8842 Cl  0  0  0  0  0  0  0  0  0  0  0  0
    2.1715   -0.8641  -11.7088 Cl  0  0  0  0  0  0  0  0  0  0  0  0
   -1.4812   -1.6697   -6.5571 C   0  0  0  0  0  0  0  0  0  0  0  0
   -0.3314   -2.6028   -5.6417 S   0  0  0  0  0  0  0  0  0  0  0  0
   -2.0008    1.2465   -8.7748 C   0  0  0  0  0  0  0  0  0  0  0  0
   -3.0853    2.0817   -8.7322 C   0  0  0  0  0  0  0  0  0  0  0  0
   -4.4840    1.2959   -8.0067 S   0  0  0  0  0  0  0  0  0  0  0  0
   -3.0277    3.5125   -8.6844 C   0  0  0  0  0  0  0  0  0  0  0  0
   -3.7340    4.1370   -7.2249 S   0  0  0  0  0  0  0  0  0  0  0  0
   -2.6340    5.4824   -7.1661 C   0  0  0  0  0  0  0  0  0  0  0  0
   -1.9589    5.5978   -8.3944 C   0  0  0  0  0  0  0  0  0  0  0  0
   -2.1526    4.4440   -9.2441 C   0  0  0  0  0  0  0  0  0  0  0  0
   -1.4618    4.3698  -10.4764 C   0  0  0  0  0  0  0  0  0  0  0  0
   -1.6807    3.0443  -11.6272 S   0  0  0  0  0  0  0  0  0  0  0  0
   -0.6030    5.3832  -10.8270 C   0  0  0  0  0  0  0  0  0  0  0  0
   -0.4445    6.5145  -10.0248 C   0  0  0  0  0  0  0  0  0  0  0  0
   -1.1280    6.6554   -8.8378 C   0  0  0  0  0  0  0  0  0  0  0  0
   -1.0206    7.8330   -8.1764 O   0  0  0  0  0  0  0  0  0  0  0  0
   -2.2840    5.8981   -5.8481 C   0  0  0  0  0  0  0  0  0  0  0  0
   -2.8196    5.3358   -4.7158 C   0  0  0  0  0  0  0  0  0  0  0  0
   -2.0072    5.4481   -3.5719 C   0  0  0  0  0  0  0  0  0  0  0  0
   -2.1594    4.7418   -2.3637 C   0  0  0  0  0  0  0  0  0  0  0  0
   -3.3311    3.9245   -2.1062 C   0  0  0  0  0  0  0  0  0  0  0  0
   -3.1738    2.2453   -1.6749 S   0  0  0  0  0  0  0  0  0  0  0  0
   -4.8866    2.0251   -1.5885 C   0  0  0  0  0  0  0  0  0  0  0  0
   -5.4849    0.7094   -1.2254 C   0  0  0  0  0  0  0  0  0  0  0  0
   -4.6053   -0.4653   -1.6384 C   0  0  0  0  0  0  0  0  0  0  0  0
   -5.5293    3.1945   -1.8725 C   0  0  0  0  0  0  0  0  0  0  0  0
   -7.2346    3.3787   -1.8591 Cl  0  0  0  0  0  0  0  0  0  0  0  0
   -4.6524    4.2684   -2.1792 C   0  0  0  0  0  0  0  0  0  0  0  0
   -5.2123    5.8504   -2.5360 Cl  0  0  0  0  0  0  0  0  0  0  0  0
   -1.0694    4.7470   -1.5068 C   0  0  0  0  0  0  0  0  0  0  0  0
    0.1118    5.4904   -1.7475 C   0  0  0  0  0  0  0  0  0  0  0  0
    0.2109    6.2931   -2.9040 C   0  0  0  0  0  0  0  0  0  0  0  0
    1.3730    7.1295   -3.1317 C   0  0  0  0  0  0  0  0  0  0  0  0
    2.1935    7.1833   -4.6650 S   0  0  0  0  0  0  0  0  0  0  0  0
    3.3399    8.3478   -4.1004 C   0  0  0  0  0  0  0  0  0  0  0  0
    4.4439    8.8316   -4.9740 C   0  0  0  0  0  0  0  0  0  0  0  0
    5.6762    7.9322   -4.8492 C   0  0  0  0  0  0  0  0  0  0  0  0
    3.0928    8.6650   -2.7976 C   0  0  0  0  0  0  0  0  0  0  0  0
    1.9780    7.9815   -2.2454 C   0  0  0  0  0  0  0  0  0  0  0  0
    1.4136    8.2858   -0.6531 Cl  0  0  0  0  0  0  0  0  0  0  0  0
    4.0205    9.7934   -1.8970 Cl  0  0  0  0  0  0  0  0  0  0  0  0
   -0.8265    6.1893   -3.8220 C   0  0  0  0  0  0  0  0  0  0  0  0
   -0.7992    6.7767   -5.4654 S   0  0  0  0  0  0  0  0  0  0  0  0
    1.1318    5.1671   -0.8164 C   0  0  0  0  0  0  0  0  0  0  0  0
    0.7528    4.2290    0.0988 C   0  0  0  0  0  0  0  0  0  0  0  0
   -0.9252    3.7577   -0.0867 S   0  0  0  0  0  0  0  0  0  0  0  0
    1.5494    3.4894    1.0212 C   0  0  0  0  0  0  0  0  0  0  0  0
    1.1508    2.3609    1.6748 C   0  0  0  0  0  0  0  0  0  0  0  0
    2.1942    1.7025    2.3664 C   0  0  0  0  0  0  0  0  0  0  0  0
    2.1315    0.4872    3.0712 C   0  0  0  0  0  0  0  0  0  0  0  0
    0.9083   -0.2949    3.0859 C   0  0  0  0  0  0  0  0  0  0  0  0
    0.2370   -0.8881    4.5764 S   0  0  0  0  0  0  0  0  0  0  0  0
   -1.1529   -1.5481    3.7881 C   0  0  0  0  0  0  0  0  0  0  0  0
   -2.2571   -2.2046    4.5445 C   0  0  0  0  0  0  0  0  0  0  0  0
   -2.1319   -2.0197    6.0499 C   0  0  0  0  0  0  0  0  0  0  0  0
   -1.0682   -1.3410    2.4422 C   0  0  0  0  0  0  0  0  0  0  0  0
   -2.2605   -1.8387    1.3144 Cl  0  0  0  0  0  0  0  0  0  0  0  0
    0.0951   -0.6383    2.0381 C   0  0  0  0  0  0  0  0  0  0  0  0
    0.4249   -0.3433    0.3783 Cl  0  0  0  0  0  0  0  0  0  0  0  0
    3.2901    0.0869    3.7266 C   0  0  0  0  0  0  0  0  0  0  0  0
    4.4979    0.8230    3.6698 C   0  0  0  0  0  0  0  0  0  0  0  0
    4.5642    2.0235    2.9439 C   0  0  0  0  0  0  0  0  0  0  0  0
    5.7819    2.8163    2.8959 C   0  0  0  0  0  0  0  0  0  0  0  0
    6.4861    3.3219    1.3889 S   0  0  0  0  0  0  0  0  0  0  0  0
    7.7666    4.1739    2.1823 C   0  0  0  0  0  0  0  0  0  0  0  0
    8.8421    4.8476    1.4045 C   0  0  0  0  0  0  0  0  0  0  0  0
    9.9355    3.8527    1.0076 C   0  0  0  0  0  0  0  0  0  0  0  0
    7.6446    4.0606    3.5349 C   0  0  0  0  0  0  0  0  0  0  0  0
    6.5187    3.2963    3.9425 C   0  0  0  0  0  0  0  0  0  0  0  0
    6.1013    3.0798    5.5911 Cl  0  0  0  0  0  0  0  0  0  0  0  0
    8.7267    4.7762    4.6593 Cl  0  0  0  0  0  0  0  0  0  0  0  0
    3.4102    2.4232    2.2836 C   0  0  0  0  0  0  0  0  0  0  0  0
    3.2409    3.8497    1.2946 S   0  0  0  0  0  0  0  0  0  0  0  0
    5.5538    0.1487    4.3505 C   0  0  0  0  0  0  0  0  0  0  0  0
    5.1597   -1.0169    4.9031 C   0  0  0  0  0  0  0  0  0  0  0  0
    3.4883   -1.3817    4.6436 S   0  0  0  0  0  0  0  0  0  0  0  0
    0.3239   -3.9100   12.9260 H   0  0  0  0  0  0  0  0  0  0  0  0
    2.0874   -3.1685   11.1557 H   0  0  0  0  0  0  0  0  0  0  0  0
    6.3942   -0.3947    8.2917 H   0  0  0  0  0  0  0  0  0  0  0  0
    5.5338   -0.0863    9.8059 H   0  0  0  0  0  0  0  0  0  0  0  0
    4.5966    0.8267    7.0435 H   0  0  0  0  0  0  0  0  0  0  0  0
    5.3276    1.8540    8.2795 H   0  0  0  0  0  0  0  0  0  0  0  0
    3.7456    1.1209    8.5623 H   0  0  0  0  0  0  0  0  0  0  0  0
   -6.5622   -7.5759    8.5884 H   0  0  0  0  0  0  0  0  0  0  0  0
   -6.5171   -5.9366    9.2667 H   0  0  0  0  0  0  0  0  0  0  0  0
   -7.1374   -7.5892   11.0123 H   0  0  0  0  0  0  0  0  0  0  0  0
   -5.6406   -8.4804   10.7201 H   0  0  0  0  0  0  0  0  0  0  0  0
   -5.5781   -6.8485   11.3932 H   0  0  0  0  0  0  0  0  0  0  0  0
   -1.6995   -5.7925    5.6865 H   0  0  0  0  0  0  0  0  0  0  0  0
    1.7566   -4.0325    2.8613 H   0  0  0  0  0  0  0  0  0  0  0  0
    6.4880   -1.9487    0.6137 H   0  0  0  0  0  0  0  0  0  0  0  0
    5.4914   -1.4101    1.9786 H   0  0  0  0  0  0  0  0  0  0  0  0
    6.1755    0.5354    0.6051 H   0  0  0  0  0  0  0  0  0  0  0  0
    5.4639   -0.2050   -0.8319 H   0  0  0  0  0  0  0  0  0  0  0  0
    4.4269    0.3108    0.5007 H   0  0  0  0  0  0  0  0  0  0  0  0
   -7.0903   -7.7421   -0.9064 H   0  0  0  0  0  0  0  0  0  0  0  0
   -5.8809   -8.0974   -2.1561 H   0  0  0  0  0  0  0  0  0  0  0  0
   -5.9878   -9.3803    0.6181 H   0  0  0  0  0  0  0  0  0  0  0  0
   -6.4782  -10.1526   -0.8931 H   0  0  0  0  0  0  0  0  0  0  0  0
   -4.7829   -9.7319   -0.6247 H   0  0  0  0  0  0  0  0  0  0  0  0
   -2.9887   -4.3891   -2.4477 H   0  0  0  0  0  0  0  0  0  0  0  0
   -3.6299   -2.5677   -4.1257 H   0  0  0  0  0  0  0  0  0  0  0  0
   -9.0869   -1.8904   -3.7649 H   0  0  0  0  0  0  0  0  0  0  0  0
   -8.4277   -3.3759   -4.4779 H   0  0  0  0  0  0  0  0  0  0  0  0
   -9.2115   -2.6359   -6.7300 H   0  0  0  0  0  0  0  0  0  0  0  0
  -10.5560   -2.7318   -5.5871 H   0  0  0  0  0  0  0  0  0  0  0  0
   -9.8712   -1.1614   -6.0160 H   0  0  0  0  0  0  0  0  0  0  0  0
    4.3999   -0.6287   -8.1743 H   0  0  0  0  0  0  0  0  0  0  0  0
    4.3673   -0.7705   -9.9432 H   0  0  0  0  0  0  0  0  0  0  0  0
    3.9511   -3.2232   -9.7288 H   0  0  0  0  0  0  0  0  0  0  0  0
    5.4441   -2.7612   -8.9055 H   0  0  0  0  0  0  0  0  0  0  0  0
    3.9788   -3.0762   -7.9684 H   0  0  0  0  0  0  0  0  0  0  0  0
   -1.0442    1.5555   -9.1555 H   0  0  0  0  0  0  0  0  0  0  0  0
   -2.7737    2.5275  -11.0700 H   0  0  0  0  0  0  0  0  0  0  0  0
   -0.0740    5.3205  -11.7649 H   0  0  0  0  0  0  0  0  0  0  0  0
    0.1881    7.3238  -10.3497 H   0  0  0  0  0  0  0  0  0  0  0  0
   -1.6360    7.8742   -7.4357 H   0  0  0  0  0  0  0  0  0  0  0  0
   -3.7182    4.7458   -4.7325 H   0  0  0  0  0  0  0  0  0  0  0  0
   -6.4647    0.6354   -1.7020 H   0  0  0  0  0  0  0  0  0  0  0  0
   -5.6440    0.6775   -0.1424 H   0  0  0  0  0  0  0  0  0  0  0  0
   -4.4110   -0.4376   -2.7081 H   0  0  0  0  0  0  0  0  0  0  0  0
   -5.0966   -1.4043   -1.3949 H   0  0  0  0  0  0  0  0  0  0  0  0
   -3.6515   -0.4292   -1.1165 H   0  0  0  0  0  0  0  0  0  0  0  0
    4.1041    8.8430   -6.0107 H   0  0  0  0  0  0  0  0  0  0  0  0
    4.7048    9.8496   -4.6783 H   0  0  0  0  0  0  0  0  0  0  0  0
    6.4720    8.2995   -5.4914 H   0  0  0  0  0  0  0  0  0  0  0  0
    5.4315    6.9142   -5.1424 H   0  0  0  0  0  0  0  0  0  0  0  0
    6.0329    7.9227   -3.8223 H   0  0  0  0  0  0  0  0  0  0  0  0
    2.1338    5.5537   -0.8661 H   0  0  0  0  0  0  0  0  0  0  0  0
    0.1350    2.0130    1.6495 H   0  0  0  0  0  0  0  0  0  0  0  0
   -3.2068   -1.7913    4.1918 H   0  0  0  0  0  0  0  0  0  0  0  0
   -2.2702   -3.2720    4.3060 H   0  0  0  0  0  0  0  0  0  0  0  0
   -1.1855   -2.4191    6.4072 H   0  0  0  0  0  0  0  0  0  0  0  0
   -2.1758   -0.9649    6.3099 H   0  0  0  0  0  0  0  0  0  0  0  0
   -2.9386   -2.5388    6.5608 H   0  0  0  0  0  0  0  0  0  0  0  0
    8.4137    5.2943    0.5057 H   0  0  0  0  0  0  0  0  0  0  0  0
    9.2738    5.6401    2.0184 H   0  0  0  0  0  0  0  0  0  0  0  0
   10.7153    4.3595    0.4459 H   0  0  0  0  0  0  0  0  0  0  0  0
    9.5181    3.0606    0.3904 H   0  0  0  0  0  0  0  0  0  0  0  0
   10.3788    3.4066    1.8943 H   0  0  0  0  0  0  0  0  0  0  0  0
    6.5598    0.5217    4.4017 H   0  0  0  0  0  0  0  0  0  0  0  0
    5.7561   -1.7125    5.4586 H   0  0  0  0  0  0  0  0  0  0  0  0
  1  2  2  0  0  0  0
  2  3  1  0  0  0  0
  3  4  2  0  0  0  0
  4  5  1  0  0  0  0
  5  6  1  0  0  0  0
  6  7  1  0  0  0  0
  7  8  1  0  0  0  0
  8  9  1  0  0  0  0
  7 10  2  0  0  0  0
 10 11  1  0  0  0  0
 10 12  1  0  0  0  0
 12 13  1  0  0  0  0
  4 14  1  0  0  0  0
 14 15  2  0  0  0  0
 15 16  1  0  0  0  0
 16 17  1  0  0  0  0
 17 18  1  0  0  0  0
 18 19  1  0  0  0  0
 19 20  1  0  0  0  0
 20 21  1  0  0  0  0
 19 22  2  0  0  0  0
 22 23  1  0  0  0  0
 23 24  1  0  0  0  0
 22 25  1  0  0  0  0
 16 26  2  0  0  0  0
 26 27  1  0  0  0  0
 15 28  1  0  0  0  0
 28 29  2  0  0  0  0
 29 30  1  0  0  0  0
 29 31  1  0  0  0  0
 31 32  2  0  0  0  0
 32 33  1  0  0  0  0
 33 34  2  0  0  0  0
 34 35  1  0  0  0  0
 35 36  1  0  0  0  0
 36 37  1  0  0  0  0
 37 38  1  0  0  0  0
 38 39  1  0  0  0  0
 37 40  2  0  0  0  0
 40 41  1  0  0  0  0
 40 42  1  0  0  0  0
 42 43  1  0  0  0  0
 34 44  1  0  0  0  0
 44 45  2  0  0  0  0
 45 46  1  0  0  0  0
 46 47  1  0  0  0  0
 47 48  1  0  0  0  0
 48 49  1  0  0  0  0
 49 50  1  0  0  0  0
 50 51  1  0  0  0  0
 49 52  2  0  0  0  0
 52 53  1  0  0  0  0
 53 54  1  0  0  0  0
 52 55  1  0  0  0  0
 46 56  2  0  0  0  0
 56 57  1  0  0  0  0
 45 58  1  0  0  0  0
 58 59  2  0  0  0  0
 59 60  1  0  0  0  0
 59 61  1  0  0  0  0
 61 62  2  0  0  0  0
 62 63  1  0  0  0  0
 63 64  2  0  0  0  0
 64 65  1  0  0  0  0
 65 66  1  0  0  0  0
 66 67  1  0  0  0  0
 67 68  1  0  0  0  0
 68 69  1  0  0  0  0
 67 70  2  0  0  0  0
 70 71  1  0  0  0  0
 70 72  1  0  0  0  0
 72 73  1  0  0  0  0
 64 74  1  0  0  0  0
 74 75  2  0  0  0  0
 75 76  1  0  0  0  0
 76 77  1  0  0  0  0
 77 78  1  0  0  0  0
 78 79  1  0  0  0  0
 79 80  1  0  0  0  0
 80 81  1  0  0  0  0
 79 82  2  0  0  0  0
 82 83  1  0  0  0  0
 83 84  1  0  0  0  0
 82 85  1  0  0  0  0
 76 86  2  0  0  0  0
 86 87  1  0  0  0  0
 75 88  1  0  0  0  0
 88 89  2  0  0  0  0
 89 90  1  0  0  0  0
 89 91  1  0  0  0  0
 91 92  1  0  0  0  0
 92 93  1  0  0  0  0
 93 94  2  0  0  0  0
 94 95  1  0  0  0  0
 95 96  1  0  0  0  0
 96 97  1  0  0  0  0
 96 98  2  0  0  0  0
 98 99  1  0  0  0  0
 99100  2  0  0  0  0
100101  1  0  0  0  0
 93102  1  0  0  0  0
102103  2  0  0  0  0
103104  1  0  0  0  0
104105  2  0  0  0  0
105106  1  0  0  0  0
106107  1  0  0  0  0
107108  1  0  0  0  0
108109  1  0  0  0  0
109110  1  0  0  0  0
108111  2  0  0  0  0
111112  1  0  0  0  0
111113  1  0  0  0  0
113114  1  0  0  0  0
105115  1  0  0  0  0
115116  2  0  0  0  0
116117  1  0  0  0  0
117118  1  0  0  0  0
118119  1  0  0  0  0
119120  1  0  0  0  0
120121  1  0  0  0  0
121122  1  0  0  0  0
120123  2  0  0  0  0
123124  1  0  0  0  0
124125  1  0  0  0  0
123126  1  0  0  0  0
117127  2  0  0  0  0
127128  1  0  0  0  0
116129  1  0  0  0  0
129130  2  0  0  0  0
130131  1  0  0  0  0
130132  1  0  0  0  0
132133  2  0  0  0  0
133134  1  0  0  0  0
134135  2  0  0  0  0
135136  1  0  0  0  0
136137  1  0  0  0  0
137138  1  0  0  0  0
138139  1  0  0  0  0
139140  1  0  0  0  0
138141  2  0  0  0  0
141142  1  0  0  0  0
141143  1  0  0  0  0
143144  1  0  0  0  0
135145  1  0  0  0  0
145146  2  0  0  0  0
146147  1  0  0  0  0
147148  1  0  0  0  0
148149  1  0  0  0  0
149150  1  0  0  0  0
150151  1  0  0  0  0
151152  1  0  0  0  0
150153  2  0  0  0  0
153154  1  0  0  0  0
154155  1  0  0  0  0
153156  1  0  0  0  0
147157  2  0  0  0  0
157158  1  0  0  0  0
146159  1  0  0  0  0
159160  2  0  0  0  0
160161  1  0  0  0  0
 27  1  1  0  0  0  0
 57 31  1  0  0  0  0
 87 61  1  0  0  0  0
 95 91  2  0  0  0  0
128102  1  0  0  0  0
158132  1  0  0  0  0
 26  3  1  0  0  0  0
 56 33  1  0  0  0  0
 86 63  1  0  0  0  0
100 94  1  0  0  0  0
127104  1  0  0  0  0
157134  1  0  0  0  0
 12  5  2  0  0  0  0
 30 14  1  0  0  0  0
 42 35  2  0  0  0  0
 60 44  1  0  0  0  0
 72 65  2  0  0  0  0
 90 74  1  0  0  0  0
113106  2  0  0  0  0
131115  1  0  0  0  0
143136  2  0  0  0  0
161145  1  0  0  0  0
 23 17  2  0  0  0  0
 53 47  2  0  0  0  0
 83 77  2  0  0  0  0
124118  2  0  0  0  0
154148  2  0  0  0  0
  1162  1  0  0  0  0
  2163  1  0  0  0  0
  8164  1  0  0  0  0
  8165  1  0  0  0  0
  9166  1  0  0  0  0
  9167  1  0  0  0  0
  9168  1  0  0  0  0
 20169  1  0  0  0  0
 20170  1  0  0  0  0
 21171  1  0  0  0  0
 21172  1  0  0  0  0
 21173  1  0  0  0  0
 28174  1  0  0  0  0
 32175  1  0  0  0  0
 38176  1  0  0  0  0
 38177  1  0  0  0  0
 39178  1  0  0  0  0
 39179  1  0  0  0  0
 39180  1  0  0  0  0
 50181  1  0  0  0  0
 50182  1  0  0  0  0
 51183  1  0  0  0  0
 51184  1  0  0  0  0
 51185  1  0  0  0  0
 58186  1  0  0  0  0
 62187  1  0  0  0  0
 68188  1  0  0  0  0
 68189  1  0  0  0  0
 69190  1  0  0  0  0
 69191  1  0  0  0  0
 69192  1  0  0  0  0
 80193  1  0  0  0  0
 80194  1  0  0  0  0
 81195  1  0  0  0  0
 81196  1  0  0  0  0
 81197  1  0  0  0  0
 88198  1  0  0  0  0
 97199  1  0  0  0  0
 98200  1  0  0  0  0
 99201  1  0  0  0  0
101202  1  0  0  0  0
103203  1  0  0  0  0
109204  1  0  0  0  0
109205  1  0  0  0  0
110206  1  0  0  0  0
110207  1  0  0  0  0
110208  1  0  0  0  0
121209  1  0  0  0  0
121210  1  0  0  0  0
122211  1  0  0  0  0
122212  1  0  0  0  0
122213  1  0  0  0  0
129214  1  0  0  0  0
133215  1  0  0  0  0
139216  1  0  0  0  0
139217  1  0  0  0  0
140218  1  0  0  0  0
140219  1  0  0  0  0
140220  1  0  0  0  0
151221  1  0  0  0  0
151222  1  0  0  0  0
152223  1  0  0  0  0
152224  1  0  0  0  0
152225  1  0  0  0  0
159226  1  0  0  0  0
160227  1  0  0  0  0
M  END
