
  xtb     03022202443D
 energy: -453.207940299834 gnorm: 0.000941625785 xtb: 6.4.1 (unknown)
227253  0     0  0            999 V2000
   -7.3179  -17.2519    8.9854 C   0  0  0  0  0  0  0  0  0  0  0  0
   -6.1835  -17.7046    8.4140 C   0  0  0  0  0  0  0  0  0  0  0  0
   -5.3778  -16.6576    7.8788 C   0  0  0  0  0  0  0  0  0  0  0  0
   -4.1811  -16.7670    7.1542 C   0  0  0  0  0  0  0  0  0  0  0  0
   -3.5447  -18.0531    6.9172 C   0  0  0  0  0  0  0  0  0  0  0  0
   -3.1186  -19.1013    8.2377 S   0  0  0  0  0  0  0  0  0  0  0  0
   -2.4190  -20.2794    7.1814 C   0  0  0  0  0  0  0  0  0  0  0  0
   -1.7675  -21.5088    7.7124 C   0  0  0  0  0  0  0  0  0  0  0  0
   -0.2708  -21.2789    7.9354 C   0  0  0  0  0  0  0  0  0  0  0  0
   -2.5126  -19.8670    5.8860 C   0  0  0  0  0  0  0  0  0  0  0  0
   -1.9336  -20.7765    4.5516 Cl  0  0  0  0  0  0  0  0  0  0  0  0
   -3.1502  -18.6067    5.7316 C   0  0  0  0  0  0  0  0  0  0  0  0
   -3.4550  -17.9107    4.1957 Cl  0  0  0  0  0  0  0  0  0  0  0  0
   -3.6167  -15.5874    6.6855 C   0  0  0  0  0  0  0  0  0  0  0  0
   -4.1838  -14.3132    6.9291 C   0  0  0  0  0  0  0  0  0  0  0  0
   -5.3958  -14.2051    7.6317 C   0  0  0  0  0  0  0  0  0  0  0  0
   -6.0432  -12.9171    7.8149 C   0  0  0  0  0  0  0  0  0  0  0  0
   -6.3810  -11.9020    6.4419 S   0  0  0  0  0  0  0  0  0  0  0  0
   -7.1516  -10.7011    7.4196 C   0  0  0  0  0  0  0  0  0  0  0  0
   -7.7688   -9.4909    6.8098 C   0  0  0  0  0  0  0  0  0  0  0  0
   -9.2423   -9.7362    6.4766 C   0  0  0  0  0  0  0  0  0  0  0  0
   -7.1406  -11.0784    8.7292 C   0  0  0  0  0  0  0  0  0  0  0  0
   -6.5121  -12.3324    8.9581 C   0  0  0  0  0  0  0  0  0  0  0  0
   -6.3017  -12.9815   10.5298 Cl  0  0  0  0  0  0  0  0  0  0  0  0
   -7.8083  -10.1364    9.9984 Cl  0  0  0  0  0  0  0  0  0  0  0  0
   -5.9662  -15.3872    8.0893 C   0  0  0  0  0  0  0  0  0  0  0  0
   -7.4880  -15.5327    8.9217 S   0  0  0  0  0  0  0  0  0  0  0  0
   -3.3674  -13.2722    6.4292 C   0  0  0  0  0  0  0  0  0  0  0  0
   -2.2179  -13.7084    5.8318 C   0  0  0  0  0  0  0  0  0  0  0  0
   -2.1259  -15.4569    5.8043 S   0  0  0  0  0  0  0  0  0  0  0  0
   -1.2856  -12.8719    5.1414 C   0  0  0  0  0  0  0  0  0  0  0  0
   -1.9566  -11.4708    4.3785 S   0  0  0  0  0  0  0  0  0  0  0  0
   -0.4697  -11.0538    3.6035 C   0  0  0  0  0  0  0  0  0  0  0  0
    0.5295  -11.9663    3.9460 C   0  0  0  0  0  0  0  0  0  0  0  0
    0.0769  -12.9831    4.8617 C   0  0  0  0  0  0  0  0  0  0  0  0
    1.0330  -13.8745    5.4227 C   0  0  0  0  0  0  0  0  0  0  0  0
    0.6280  -14.9118    6.7960 S   0  0  0  0  0  0  0  0  0  0  0  0
    2.3240  -13.8445    4.9658 C   0  0  0  0  0  0  0  0  0  0  0  0
    2.7428  -12.9108    4.0091 C   0  0  0  0  0  0  0  0  0  0  0  0
    1.8890  -11.9517    3.5334 C   0  0  0  0  0  0  0  0  0  0  0  0
    2.3056  -10.9667    2.7003 O   0  0  0  0  0  0  0  0  0  0  0  0
   -0.4910   -9.8820    2.7845 C   0  0  0  0  0  0  0  0  0  0  0  0
   -1.3325   -8.8220    2.9940 C   0  0  0  0  0  0  0  0  0  0  0  0
   -1.2313   -7.8055    2.0193 C   0  0  0  0  0  0  0  0  0  0  0  0
   -1.8672   -6.5500    2.0036 C   0  0  0  0  0  0  0  0  0  0  0  0
   -2.7884   -6.1555    3.0567 C   0  0  0  0  0  0  0  0  0  0  0  0
   -4.1548   -7.1416    3.4900 S   0  0  0  0  0  0  0  0  0  0  0  0
   -4.6760   -6.0263    4.7098 C   0  0  0  0  0  0  0  0  0  0  0  0
   -5.8980   -6.2850    5.5198 C   0  0  0  0  0  0  0  0  0  0  0  0
   -7.1529   -6.3209    4.6476 C   0  0  0  0  0  0  0  0  0  0  0  0
   -3.8316   -4.9590    4.7625 C   0  0  0  0  0  0  0  0  0  0  0  0
   -4.0110   -3.6427    5.8496 Cl  0  0  0  0  0  0  0  0  0  0  0  0
   -2.7593   -5.0297    3.8323 C   0  0  0  0  0  0  0  0  0  0  0  0
   -1.5161   -3.8514    3.7858 Cl  0  0  0  0  0  0  0  0  0  0  0  0
   -1.5469   -5.6957    0.9565 C   0  0  0  0  0  0  0  0  0  0  0  0
   -0.6153   -6.0375   -0.0559 C   0  0  0  0  0  0  0  0  0  0  0  0
    0.0288   -7.2876   -0.0329 C   0  0  0  0  0  0  0  0  0  0  0  0
    1.0074   -7.6448   -1.0459 C   0  0  0  0  0  0  0  0  0  0  0  0
    2.3438   -6.5925   -1.4140 S   0  0  0  0  0  0  0  0  0  0  0  0
    2.9694   -7.6700   -2.6164 C   0  0  0  0  0  0  0  0  0  0  0  0
    4.1677   -7.3056   -3.4212 C   0  0  0  0  0  0  0  0  0  0  0  0
    3.8408   -6.1840   -4.4088 C   0  0  0  0  0  0  0  0  0  0  0  0
    2.1777   -8.7741   -2.7148 C   0  0  0  0  0  0  0  0  0  0  0  0
    1.0698   -8.7676   -1.8231 C   0  0  0  0  0  0  0  0  0  0  0  0
   -0.1045  -10.0142   -1.8142 Cl  0  0  0  0  0  0  0  0  0  0  0  0
    2.4660  -10.0678   -3.8047 Cl  0  0  0  0  0  0  0  0  0  0  0  0
   -0.2952   -8.1453    1.0102 C   0  0  0  0  0  0  0  0  0  0  0  0
    0.4527   -9.6815    1.3289 S   0  0  0  0  0  0  0  0  0  0  0  0
   -0.4632   -5.0002   -1.0048 C   0  0  0  0  0  0  0  0  0  0  0  0
   -1.2263   -3.8995   -0.7392 C   0  0  0  0  0  0  0  0  0  0  0  0
   -2.2175   -4.1128    0.6853 S   0  0  0  0  0  0  0  0  0  0  0  0
   -1.1948   -2.6557   -1.4393 C   0  0  0  0  0  0  0  0  0  0  0  0
   -0.2756   -2.2795   -2.3770 C   0  0  0  0  0  0  0  0  0  0  0  0
   -0.4290   -0.9442   -2.8156 C   0  0  0  0  0  0  0  0  0  0  0  0
    0.4147   -0.2261   -3.6840 C   0  0  0  0  0  0  0  0  0  0  0  0
    1.4777   -0.8988   -4.4078 C   0  0  0  0  0  0  0  0  0  0  0  0
    3.1111   -0.3036   -4.4097 S   0  0  0  0  0  0  0  0  0  0  0  0
    3.6632   -1.5952   -5.4207 C   0  0  0  0  0  0  0  0  0  0  0  0
    5.0995   -1.7273   -5.7888 C   0  0  0  0  0  0  0  0  0  0  0  0
    5.8934   -2.3906   -4.6607 C   0  0  0  0  0  0  0  0  0  0  0  0
    2.6311   -2.4300   -5.7306 C   0  0  0  0  0  0  0  0  0  0  0  0
    2.7858   -3.8145   -6.7322 Cl  0  0  0  0  0  0  0  0  0  0  0  0
    1.3909   -2.0395   -5.1599 C   0  0  0  0  0  0  0  0  0  0  0  0
   -0.0697   -2.8890   -5.4660 Cl  0  0  0  0  0  0  0  0  0  0  0  0
    0.1910    1.1402   -3.7842 C   0  0  0  0  0  0  0  0  0  0  0  0
   -0.8894    1.7874   -3.1351 C   0  0  0  0  0  0  0  0  0  0  0  0
   -1.7900    1.0535   -2.3403 C   0  0  0  0  0  0  0  0  0  0  0  0
   -2.9200    1.6917   -1.6874 C   0  0  0  0  0  0  0  0  0  0  0  0
   -2.7329    3.1469   -0.7492 S   0  0  0  0  0  0  0  0  0  0  0  0
   -4.4173    3.2114   -0.3529 C   0  0  0  0  0  0  0  0  0  0  0  0
   -4.9666    4.3111    0.4871 C   0  0  0  0  0  0  0  0  0  0  0  0
   -4.2823    4.3794    1.8519 C   0  0  0  0  0  0  0  0  0  0  0  0
   -5.0712    2.1578   -0.9171 C   0  0  0  0  0  0  0  0  0  0  0  0
   -4.2292    1.2958   -1.6721 C   0  0  0  0  0  0  0  0  0  0  0  0
   -4.8441   -0.0444   -2.5442 Cl  0  0  0  0  0  0  0  0  0  0  0  0
   -6.7565    1.8756   -0.7593 Cl  0  0  0  0  0  0  0  0  0  0  0  0
   -1.5151   -0.2984   -2.1734 C   0  0  0  0  0  0  0  0  0  0  0  0
   -2.3284   -1.3761   -1.0762 S   0  0  0  0  0  0  0  0  0  0  0  0
   -0.8876    3.1792   -3.3799 C   0  0  0  0  0  0  0  0  0  0  0  0
    0.1642    3.6026   -4.1399 C   0  0  0  0  0  0  0  0  0  0  0  0
    1.1677    2.2743   -4.6767 S   0  0  0  0  0  0  0  0  0  0  0  0
    0.4976    4.9696   -4.3849 C   0  0  0  0  0  0  0  0  0  0  0  0
    0.0004    6.0223   -3.6729 C   0  0  0  0  0  0  0  0  0  0  0  0
    0.5373    7.2708   -4.0572 C   0  0  0  0  0  0  0  0  0  0  0  0
    0.2343    8.5320   -3.5131 C   0  0  0  0  0  0  0  0  0  0  0  0
   -0.8262    8.6594   -2.5296 C   0  0  0  0  0  0  0  0  0  0  0  0
   -0.5758    9.4432   -0.9981 S   0  0  0  0  0  0  0  0  0  0  0  0
   -2.1789    9.0785   -0.4603 C   0  0  0  0  0  0  0  0  0  0  0  0
   -2.6432    9.4309    0.9097 C   0  0  0  0  0  0  0  0  0  0  0  0
   -2.4637    8.2472    1.8638 C   0  0  0  0  0  0  0  0  0  0  0  0
   -2.8577    8.3939   -1.4242 C   0  0  0  0  0  0  0  0  0  0  0  0
   -4.4767    7.8539   -1.2500 Cl  0  0  0  0  0  0  0  0  0  0  0  0
   -2.0994    8.1600   -2.6004 C   0  0  0  0  0  0  0  0  0  0  0  0
   -2.7668    7.3930   -3.9856 Cl  0  0  0  0  0  0  0  0  0  0  0  0
    1.0043    9.5993   -3.9491 C   0  0  0  0  0  0  0  0  0  0  0  0
    2.0021    9.4679   -4.9474 C   0  0  0  0  0  0  0  0  0  0  0  0
    2.2289    8.2232   -5.5651 C   0  0  0  0  0  0  0  0  0  0  0  0
    3.1751    8.0940   -6.6585 C   0  0  0  0  0  0  0  0  0  0  0  0
    4.3981    6.8579   -6.6654 S   0  0  0  0  0  0  0  0  0  0  0  0
    5.0298    7.3821   -8.1878 C   0  0  0  0  0  0  0  0  0  0  0  0
    6.1557    6.6647   -8.8465 C   0  0  0  0  0  0  0  0  0  0  0  0
    5.6363    5.5060   -9.7011 C   0  0  0  0  0  0  0  0  0  0  0  0
    4.3142    8.4424   -8.6595 C   0  0  0  0  0  0  0  0  0  0  0  0
    3.2656    8.8531   -7.7942 C   0  0  0  0  0  0  0  0  0  0  0  0
    2.1830   10.1214   -8.2020 Cl  0  0  0  0  0  0  0  0  0  0  0  0
    4.6391    9.2282  -10.1499 Cl  0  0  0  0  0  0  0  0  0  0  0  0
    1.5117    7.1389   -5.0750 C   0  0  0  0  0  0  0  0  0  0  0  0
    1.6716    5.4769   -5.5789 S   0  0  0  0  0  0  0  0  0  0  0  0
    2.6898   10.6879   -5.1621 C   0  0  0  0  0  0  0  0  0  0  0  0
    2.2257   11.7175   -4.3990 C   0  0  0  0  0  0  0  0  0  0  0  0
    0.8961   11.2339   -3.3642 S   0  0  0  0  0  0  0  0  0  0  0  0
    2.6953   13.0630   -4.3657 C   0  0  0  0  0  0  0  0  0  0  0  0
    2.2474   14.0758   -3.5716 C   0  0  0  0  0  0  0  0  0  0  0  0
    2.9128   15.3063   -3.7947 C   0  0  0  0  0  0  0  0  0  0  0  0
    2.7148   16.5306   -3.1347 C   0  0  0  0  0  0  0  0  0  0  0  0
    1.6506   16.6889   -2.1591 C   0  0  0  0  0  0  0  0  0  0  0  0
    1.9544   17.3324   -0.5732 S   0  0  0  0  0  0  0  0  0  0  0  0
    0.2954   17.1781   -0.1071 C   0  0  0  0  0  0  0  0  0  0  0  0
   -0.1578   17.5353    1.2652 C   0  0  0  0  0  0  0  0  0  0  0  0
    0.1230   16.3978    2.2501 C   0  0  0  0  0  0  0  0  0  0  0  0
   -0.4377   16.6545   -1.1300 C   0  0  0  0  0  0  0  0  0  0  0  0
   -2.1243   16.3526   -1.0434 Cl  0  0  0  0  0  0  0  0  0  0  0  0
    0.3247   16.3805   -2.2967 C   0  0  0  0  0  0  0  0  0  0  0  0
   -0.3883   15.8022   -3.7474 Cl  0  0  0  0  0  0  0  0  0  0  0  0
    3.5759   17.5700   -3.4658 C   0  0  0  0  0  0  0  0  0  0  0  0
    4.5903   17.4488   -4.4444 C   0  0  0  0  0  0  0  0  0  0  0  0
    4.7609   16.2379   -5.1342 C   0  0  0  0  0  0  0  0  0  0  0  0
    5.7887   16.0742   -6.1502 C   0  0  0  0  0  0  0  0  0  0  0  0
    7.4605   16.4078   -5.8035 S   0  0  0  0  0  0  0  0  0  0  0  0
    7.9651   15.9470   -7.3931 C   0  0  0  0  0  0  0  0  0  0  0  0
    9.4026   15.9471   -7.7809 C   0  0  0  0  0  0  0  0  0  0  0  0
   10.0489   14.5930   -7.4778 C   0  0  0  0  0  0  0  0  0  0  0  0
    6.8911   15.5547   -8.1344 C   0  0  0  0  0  0  0  0  0  0  0  0
    5.6559   15.6271   -7.4353 C   0  0  0  0  0  0  0  0  0  0  0  0
    4.1563   15.2627   -8.1808 Cl  0  0  0  0  0  0  0  0  0  0  0  0
    6.9971   15.0297   -9.7643 Cl  0  0  0  0  0  0  0  0  0  0  0  0
    3.9167   15.1900   -4.7876 C   0  0  0  0  0  0  0  0  0  0  0  0
    3.9866   13.5747   -5.4318 S   0  0  0  0  0  0  0  0  0  0  0  0
    5.2988   18.6736   -4.6191 C   0  0  0  0  0  0  0  0  0  0  0  0
    4.8467   19.6584   -3.8167 C   0  0  0  0  0  0  0  0  0  0  0  0
    3.5340   19.1776   -2.7984 S   0  0  0  0  0  0  0  0  0  0  0  0
   -8.0927  -17.8251    9.4559 H   0  0  0  0  0  0  0  0  0  0  0  0
   -5.9174  -18.7441    8.3581 H   0  0  0  0  0  0  0  0  0  0  0  0
   -1.9074  -22.3196    6.9948 H   0  0  0  0  0  0  0  0  0  0  0  0
   -2.2384  -21.7891    8.6556 H   0  0  0  0  0  0  0  0  0  0  0  0
    0.2116  -21.0126    6.9987 H   0  0  0  0  0  0  0  0  0  0  0  0
   -0.1145  -20.4727    8.6484 H   0  0  0  0  0  0  0  0  0  0  0  0
    0.1924  -22.1828    8.3219 H   0  0  0  0  0  0  0  0  0  0  0  0
   -7.2301   -9.2362    5.8961 H   0  0  0  0  0  0  0  0  0  0  0  0
   -7.6896   -8.6610    7.5153 H   0  0  0  0  0  0  0  0  0  0  0  0
   -9.3373  -10.5569    5.7700 H   0  0  0  0  0  0  0  0  0  0  0  0
   -9.7963   -9.9867    7.3773 H   0  0  0  0  0  0  0  0  0  0  0  0
   -9.6789   -8.8442    6.0353 H   0  0  0  0  0  0  0  0  0  0  0  0
   -3.6011  -12.2283    6.5357 H   0  0  0  0  0  0  0  0  0  0  0  0
    1.8941  -15.2415    7.0597 H   0  0  0  0  0  0  0  0  0  0  0  0
    3.0557  -14.5278    5.3705 H   0  0  0  0  0  0  0  0  0  0  0  0
    3.7745  -12.9196    3.6866 H   0  0  0  0  0  0  0  0  0  0  0  0
    3.2354  -11.0939    2.4740 H   0  0  0  0  0  0  0  0  0  0  0  0
   -1.9835   -8.7659    3.8476 H   0  0  0  0  0  0  0  0  0  0  0  0
   -5.7899   -7.2399    6.0402 H   0  0  0  0  0  0  0  0  0  0  0  0
   -5.9867   -5.4950    6.2673 H   0  0  0  0  0  0  0  0  0  0  0  0
   -7.2789   -5.3734    4.1301 H   0  0  0  0  0  0  0  0  0  0  0  0
   -8.0308   -6.5005    5.2623 H   0  0  0  0  0  0  0  0  0  0  0  0
   -7.0751   -7.1123    3.9056 H   0  0  0  0  0  0  0  0  0  0  0  0
    4.5031   -8.1907   -3.9638 H   0  0  0  0  0  0  0  0  0  0  0  0
    4.9701   -6.9785   -2.7562 H   0  0  0  0  0  0  0  0  0  0  0  0
    3.0432   -6.4921   -5.0799 H   0  0  0  0  0  0  0  0  0  0  0  0
    4.7170   -5.9396   -5.0035 H   0  0  0  0  0  0  0  0  0  0  0  0
    3.5185   -5.2926   -3.8746 H   0  0  0  0  0  0  0  0  0  0  0  0
    0.1862   -5.0678   -1.8566 H   0  0  0  0  0  0  0  0  0  0  0  0
    0.5235   -2.9185   -2.7017 H   0  0  0  0  0  0  0  0  0  0  0  0
    5.1736   -2.3317   -6.6945 H   0  0  0  0  0  0  0  0  0  0  0  0
    5.5145   -0.7387   -5.9913 H   0  0  0  0  0  0  0  0  0  0  0  0
    6.9370   -2.4894   -4.9467 H   0  0  0  0  0  0  0  0  0  0  0  0
    5.4940   -3.3791   -4.4493 H   0  0  0  0  0  0  0  0  0  0  0  0
    5.8338   -1.7907   -3.7559 H   0  0  0  0  0  0  0  0  0  0  0  0
   -6.0374    4.1437    0.6125 H   0  0  0  0  0  0  0  0  0  0  0  0
   -4.8286    5.2636   -0.0322 H   0  0  0  0  0  0  0  0  0  0  0  0
   -4.4190    3.4453    2.3911 H   0  0  0  0  0  0  0  0  0  0  0  0
   -3.2157    4.5567    1.7321 H   0  0  0  0  0  0  0  0  0  0  0  0
   -4.7076    5.1865    2.4426 H   0  0  0  0  0  0  0  0  0  0  0  0
   -1.6368    3.8472   -3.0011 H   0  0  0  0  0  0  0  0  0  0  0  0
   -0.6885    5.9028   -2.8588 H   0  0  0  0  0  0  0  0  0  0  0  0
   -2.0751   10.2874    1.2746 H   0  0  0  0  0  0  0  0  0  0  0  0
   -3.7000    9.7033    0.8664 H   0  0  0  0  0  0  0  0  0  0  0  0
   -1.4151    7.9660    1.9239 H   0  0  0  0  0  0  0  0  0  0  0  0
   -3.0335    7.3914    1.5119 H   0  0  0  0  0  0  0  0  0  0  0  0
   -2.8116    8.5135    2.8581 H   0  0  0  0  0  0  0  0  0  0  0  0
    6.6993    7.3694   -9.4785 H   0  0  0  0  0  0  0  0  0  0  0  0
    6.8350    6.2791   -8.0847 H   0  0  0  0  0  0  0  0  0  0  0  0
    6.4669    4.9921  -10.1775 H   0  0  0  0  0  0  0  0  0  0  0  0
    4.9679    5.8782  -10.4731 H   0  0  0  0  0  0  0  0  0  0  0  0
    5.0926    4.7959   -9.0829 H   0  0  0  0  0  0  0  0  0  0  0  0
    3.5174   10.8001   -5.8387 H   0  0  0  0  0  0  0  0  0  0  0  0
    1.4762   13.9342   -2.8366 H   0  0  0  0  0  0  0  0  0  0  0  0
    0.3609   18.4370    1.5949 H   0  0  0  0  0  0  0  0  0  0  0  0
   -1.2296   17.7382    1.2363 H   0  0  0  0  0  0  0  0  0  0  0  0
   -0.3960   15.4941    1.9401 H   0  0  0  0  0  0  0  0  0  0  0  0
   -0.2188   16.6726    3.2442 H   0  0  0  0  0  0  0  0  0  0  0  0
    1.1892   16.1889    2.2916 H   0  0  0  0  0  0  0  0  0  0  0  0
    9.4776   16.1548   -8.8502 H   0  0  0  0  0  0  0  0  0  0  0  0
    9.9261   16.7321   -7.2329 H   0  0  0  0  0  0  0  0  0  0  0  0
    9.5445   13.8038   -8.0293 H   0  0  0  0  0  0  0  0  0  0  0  0
   11.0962   14.6062   -7.7668 H   0  0  0  0  0  0  0  0  0  0  0  0
    9.9818   14.3720   -6.4152 H   0  0  0  0  0  0  0  0  0  0  0  0
    6.1029   18.7983   -5.3205 H   0  0  0  0  0  0  0  0  0  0  0  0
    5.2019   20.6682   -3.7507 H   0  0  0  0  0  0  0  0  0  0  0  0
  1  2  2  0  0  0  0
  2  3  1  0  0  0  0
  3  4  2  0  0  0  0
  4  5  1  0  0  0  0
  5  6  1  0  0  0  0
  6  7  1  0  0  0  0
  7  8  1  0  0  0  0
  8  9  1  0  0  0  0
  7 10  2  0  0  0  0
 10 11  1  0  0  0  0
 10 12  1  0  0  0  0
 12 13  1  0  0  0  0
  4 14  1  0  0  0  0
 14 15  2  0  0  0  0
 15 16  1  0  0  0  0
 16 17  1  0  0  0  0
 17 18  1  0  0  0  0
 18 19  1  0  0  0  0
 19 20  1  0  0  0  0
 20 21  1  0  0  0  0
 19 22  2  0  0  0  0
 22 23  1  0  0  0  0
 23 24  1  0  0  0  0
 22 25  1  0  0  0  0
 16 26  2  0  0  0  0
 26 27  1  0  0  0  0
 15 28  1  0  0  0  0
 28 29  2  0  0  0  0
 29 30  1  0  0  0  0
 29 31  1  0  0  0  0
 31 32  1  0  0  0  0
 32 33  1  0  0  0  0
 33 34  2  0  0  0  0
 34 35  1  0  0  0  0
 35 36  1  0  0  0  0
 36 37  1  0  0  0  0
 36 38  2  0  0  0  0
 38 39  1  0  0  0  0
 39 40  2  0  0  0  0
 40 41  1  0  0  0  0
 33 42  1  0  0  0  0
 42 43  2  0  0  0  0
 43 44  1  0  0  0  0
 44 45  2  0  0  0  0
 45 46  1  0  0  0  0
 46 47  1  0  0  0  0
 47 48  1  0  0  0  0
 48 49  1  0  0  0  0
 49 50  1  0  0  0  0
 48 51  2  0  0  0  0
 51 52  1  0  0  0  0
 51 53  1  0  0  0  0
 53 54  1  0  0  0  0
 45 55  1  0  0  0  0
 55 56  2  0  0  0  0
 56 57  1  0  0  0  0
 57 58  1  0  0  0  0
 58 59  1  0  0  0  0
 59 60  1  0  0  0  0
 60 61  1  0  0  0  0
 61 62  1  0  0  0  0
 60 63  2  0  0  0  0
 63 64  1  0  0  0  0
 64 65  1  0  0  0  0
 63 66  1  0  0  0  0
 57 67  2  0  0  0  0
 67 68  1  0  0  0  0
 56 69  1  0  0  0  0
 69 70  2  0  0  0  0
 70 71  1  0  0  0  0
 70 72  1  0  0  0  0
 72 73  2  0  0  0  0
 73 74  1  0  0  0  0
 74 75  2  0  0  0  0
 75 76  1  0  0  0  0
 76 77  1  0  0  0  0
 77 78  1  0  0  0  0
 78 79  1  0  0  0  0
 79 80  1  0  0  0  0
 78 81  2  0  0  0  0
 81 82  1  0  0  0  0
 81 83  1  0  0  0  0
 83 84  1  0  0  0  0
 75 85  1  0  0  0  0
 85 86  2  0  0  0  0
 86 87  1  0  0  0  0
 87 88  1  0  0  0  0
 88 89  1  0  0  0  0
 89 90  1  0  0  0  0
 90 91  1  0  0  0  0
 91 92  1  0  0  0  0
 90 93  2  0  0  0  0
 93 94  1  0  0  0  0
 94 95  1  0  0  0  0
 93 96  1  0  0  0  0
 87 97  2  0  0  0  0
 97 98  1  0  0  0  0
 86 99  1  0  0  0  0
 99100  2  0  0  0  0
100101  1  0  0  0  0
100102  1  0  0  0  0
102103  2  0  0  0  0
103104  1  0  0  0  0
104105  2  0  0  0  0
105106  1  0  0  0  0
106107  1  0  0  0  0
107108  1  0  0  0  0
108109  1  0  0  0  0
109110  1  0  0  0  0
108111  2  0  0  0  0
111112  1  0  0  0  0
111113  1  0  0  0  0
113114  1  0  0  0  0
105115  1  0  0  0  0
115116  2  0  0  0  0
116117  1  0  0  0  0
117118  1  0  0  0  0
118119  1  0  0  0  0
119120  1  0  0  0  0
120121  1  0  0  0  0
121122  1  0  0  0  0
120123  2  0  0  0  0
123124  1  0  0  0  0
124125  1  0  0  0  0
123126  1  0  0  0  0
117127  2  0  0  0  0
127128  1  0  0  0  0
116129  1  0  0  0  0
129130  2  0  0  0  0
130131  1  0  0  0  0
130132  1  0  0  0  0
132133  2  0  0  0  0
133134  1  0  0  0  0
134135  2  0  0  0  0
135136  1  0  0  0  0
136137  1  0  0  0  0
137138  1  0  0  0  0
138139  1  0  0  0  0
139140  1  0  0  0  0
138141  2  0  0  0  0
141142  1  0  0  0  0
141143  1  0  0  0  0
143144  1  0  0  0  0
135145  1  0  0  0  0
145146  2  0  0  0  0
146147  1  0  0  0  0
147148  1  0  0  0  0
148149  1  0  0  0  0
149150  1  0  0  0  0
150151  1  0  0  0  0
151152  1  0  0  0  0
150153  2  0  0  0  0
153154  1  0  0  0  0
154155  1  0  0  0  0
153156  1  0  0  0  0
147157  2  0  0  0  0
157158  1  0  0  0  0
146159  1  0  0  0  0
159160  2  0  0  0  0
160161  1  0  0  0  0
 27  1  1  0  0  0  0
 35 31  2  0  0  0  0
 68 42  1  0  0  0  0
 98 72  1  0  0  0  0
128102  1  0  0  0  0
158132  1  0  0  0  0
 26  3  1  0  0  0  0
 40 34  1  0  0  0  0
 67 44  1  0  0  0  0
 97 74  1  0  0  0  0
127104  1  0  0  0  0
157134  1  0  0  0  0
 12  5  2  0  0  0  0
 30 14  1  0  0  0  0
 53 46  2  0  0  0  0
 71 55  1  0  0  0  0
 83 76  2  0  0  0  0
101 85  1  0  0  0  0
113106  2  0  0  0  0
131115  1  0  0  0  0
143136  2  0  0  0  0
161145  1  0  0  0  0
 23 17  2  0  0  0  0
 64 58  2  0  0  0  0
 94 88  2  0  0  0  0
124118  2  0  0  0  0
154148  2  0  0  0  0
  1162  1  0  0  0  0
  2163  1  0  0  0  0
  8164  1  0  0  0  0
  8165  1  0  0  0  0
  9166  1  0  0  0  0
  9167  1  0  0  0  0
  9168  1  0  0  0  0
 20169  1  0  0  0  0
 20170  1  0  0  0  0
 21171  1  0  0  0  0
 21172  1  0  0  0  0
 21173  1  0  0  0  0
 28174  1  0  0  0  0
 37175  1  0  0  0  0
 38176  1  0  0  0  0
 39177  1  0  0  0  0
 41178  1  0  0  0  0
 43179  1  0  0  0  0
 49180  1  0  0  0  0
 49181  1  0  0  0  0
 50182  1  0  0  0  0
 50183  1  0  0  0  0
 50184  1  0  0  0  0
 61185  1  0  0  0  0
 61186  1  0  0  0  0
 62187  1  0  0  0  0
 62188  1  0  0  0  0
 62189  1  0  0  0  0
 69190  1  0  0  0  0
 73191  1  0  0  0  0
 79192  1  0  0  0  0
 79193  1  0  0  0  0
 80194  1  0  0  0  0
 80195  1  0  0  0  0
 80196  1  0  0  0  0
 91197  1  0  0  0  0
 91198  1  0  0  0  0
 92199  1  0  0  0  0
 92200  1  0  0  0  0
 92201  1  0  0  0  0
 99202  1  0  0  0  0
103203  1  0  0  0  0
109204  1  0  0  0  0
109205  1  0  0  0  0
110206  1  0  0  0  0
110207  1  0  0  0  0
110208  1  0  0  0  0
121209  1  0  0  0  0
121210  1  0  0  0  0
122211  1  0  0  0  0
122212  1  0  0  0  0
122213  1  0  0  0  0
129214  1  0  0  0  0
133215  1  0  0  0  0
139216  1  0  0  0  0
139217  1  0  0  0  0
140218  1  0  0  0  0
140219  1  0  0  0  0
140220  1  0  0  0  0
151221  1  0  0  0  0
151222  1  0  0  0  0
152223  1  0  0  0  0
152224  1  0  0  0  0
152225  1  0  0  0  0
159226  1  0  0  0  0
160227  1  0  0  0  0
M  END
