227

C         -0.71080      -12.90410       10.45670
C          0.19740      -12.72460        9.47640
C         -0.38740      -12.27200        8.25780
C          0.24330      -12.00660        7.03240
C          1.68920      -12.03720        6.88760
S          2.45680      -12.90890        5.59500
C          4.03440      -12.37730        6.06820
C          5.23550      -12.73870        5.26640
C          5.32240      -11.87400        4.00610
C          3.95400      -11.57110        7.16410
Cl         5.31080      -10.84060        7.92000
C          2.62700      -11.37900        7.63450
Cl         2.25830      -10.34200        8.95180
C         -0.57530      -11.66370        5.96390
C         -1.97920      -11.52090        6.07770
C         -2.60860      -11.77380        7.30790
C         -4.05080      -11.67000        7.44910
S         -4.77490      -10.70230        8.69800
C         -6.37820      -11.10550        8.18830
C         -7.57060      -10.51620        8.85690
C         -7.89090       -9.13320        8.28440
C         -6.33820      -11.93950        7.11070
C         -5.02110      -12.26470        6.69030
Cl        -4.70490      -13.36200        5.40830
Cl        -7.73330      -12.56000        6.32740
C         -1.79150      -12.13880        8.37140
S         -2.33320      -12.54640        9.97530
C         -2.56340      -11.06710        4.86720
C         -1.66240      -10.90170        3.85950
S         -0.02510      -11.28100        4.35880
C         -1.88990      -10.43880        2.53050
C         -0.95920      -10.31640        1.54170
C         -1.46850       -9.74550        0.35180
C         -0.78110       -9.48100       -0.84600
C          0.62560       -9.80700       -1.00590
S          1.81690       -9.30370        0.15810
C          3.11010      -10.03500       -0.72700
C          4.52040       -9.93260       -0.26110
C          5.18830       -8.67040       -0.81210
C          2.63390      -10.62080       -1.86190
Cl         3.62020      -11.45110       -2.99410
C          1.22790      -10.49600       -2.02330
Cl         0.38810      -11.23090       -3.32540
C         -1.50620       -8.86570       -1.85780
C         -2.87950       -8.54730       -1.74370
C         -3.57680       -8.85610       -0.56460
C         -4.99350       -8.55610       -0.42910
S         -6.15010       -9.18210       -1.56700
C         -7.48010       -8.44830       -0.73810
C         -8.88220       -8.65140       -1.19570
C         -9.45830       -9.95160       -0.62970
C         -7.03710       -7.76450        0.35440
C         -5.62830       -7.81960        0.53160
Cl        -4.82480       -6.96570        1.78140
Cl        -8.06430       -6.90020        1.42310
C         -2.84750       -9.43800        0.46460
S         -3.47220       -9.89040        2.02490
C         -3.35090       -7.81790       -2.86660
C         -2.40160       -7.58820       -3.81120
S         -0.84090       -8.26470       -3.34870
C         -2.49060       -6.66490       -4.91240
S         -2.96970       -5.07060       -4.44770
C         -2.56230       -4.40730       -5.98810
C         -2.17120       -5.41160       -6.87610
C         -2.12010       -6.71390       -6.25270
C         -1.79100       -7.83870       -7.05550
S         -1.92390       -9.52190       -6.50460
C         -1.50860       -7.65450       -8.38380
C         -1.56380       -6.39380       -8.98740
C         -1.91570       -5.27890       -8.26820
O         -2.05070       -4.10390       -8.92950
C         -2.48590       -2.97920       -6.05950
C         -1.50790       -2.20370       -6.61820
C         -1.57110       -0.84460       -6.21920
C         -0.66200        0.18490       -6.51670
C          0.49800       -0.03730       -7.36640
S          0.78180        0.94810       -8.76910
C          2.24340        0.10900       -9.15760
C          3.08200        0.51660      -10.31800
C          4.05200        1.63230       -9.92140
C          2.49200       -0.86390       -8.23580
Cl         3.86100       -1.89770       -8.28020
C          1.50200       -0.95320       -7.22090
Cl         1.62130       -2.05440       -5.90800
C         -0.88150        1.41310       -5.90860
C         -1.97780        1.66280       -5.04860
C         -2.93420        0.65670       -4.81340
C         -4.10390        0.91590       -3.99600
S         -4.59900       -0.17390       -2.73350
C         -5.94860        0.81700       -2.29790
C         -6.89460        0.39590       -1.22880
C         -7.88760       -0.64100       -1.75920
C         -6.00800        1.91740       -3.10040
C         -4.96380        1.98000       -4.06160
Cl        -4.87500        3.23270       -5.23280
Cl        -7.21200        3.13430       -2.97420
C         -2.67400       -0.58870       -5.36770
S         -3.60210       -2.03260       -5.08610
C         -1.87500        2.92320       -4.41670
C         -0.75970        3.62480       -4.77530
S          0.20490        2.77220       -5.96100
C         -0.31670        4.85790       -4.20980
C         -0.95370        5.58830       -3.24830
C         -0.20430        6.69680       -2.79010
C         -0.55710        7.61890       -1.78690
C         -1.88420        7.60670       -1.20000
S         -2.11940        7.61990        0.52300
C         -3.84200        7.56320        0.36740
C         -4.72180        7.59630        1.56760
C         -4.84000        9.01970        2.11710
C         -4.19990        7.55140       -0.94800
Cl        -5.82380        7.49960       -1.50160
C         -3.09430        7.57200       -1.83980
Cl        -3.29450        7.63650       -3.54410
C          0.43050        8.50550       -1.37910
C          1.71110        8.55790       -1.98280
C          2.02150        7.71330       -3.06500
C          3.29950        7.81510       -3.74600
S          4.29210        6.41730       -4.03790
C          5.52470        7.35550       -4.80700
C          6.78770        6.73070       -5.28730
C          7.84810        6.72520       -4.18340
C          5.17520        8.67310       -4.82770
C          3.91430        8.93820       -4.23100
Cl         3.22030       10.50900       -4.21270
Cl         6.14570        9.90780       -5.51850
C          1.06310        6.77310       -3.41840
S          1.24600        5.53000       -4.62290
C          2.56540        9.47540       -1.32710
C          1.96850       10.13000       -0.28880
S          0.29940        9.65120       -0.07570
C          2.58770       11.06130        0.59920
C          3.83450       11.60100        0.47510
C          4.20420       12.42690        1.56420
C          5.40800       13.12840        1.74880
C          6.48220       13.04960        0.77310
S          7.09320       11.51160        0.23390
C          8.26110       12.24860       -0.81040
C          9.14910       11.41930       -1.67060
C          8.36120       10.77460       -2.81260
C          8.16680       13.60570       -0.73780
Cl         9.15300       14.68600       -1.63470
C          7.16550       14.06370        0.16230
Cl         6.81210       15.72710        0.36880
C          5.53190       13.86680        2.92000
C          4.50590       13.94510        3.89310
C          3.28670       13.28080        3.68560
C          2.19690       13.38030        4.64210
S          1.41900       11.96330        5.28190
C          0.32990       12.90100        6.24470
C         -0.65550       12.25000        7.15130
C         -0.03780       11.97230        8.52390
C          0.57020       14.23180        6.07350
C          1.62470       14.50820        5.16250
Cl         2.06200       16.10620        4.71290
Cl        -0.31360       15.47250        6.86400
C          3.17370       12.51690        2.53080
S          1.78310       11.58010        2.06400
C          4.92450       14.68520        5.03710
C          6.18720       15.14590        4.92900
S          6.95620       14.72060        3.44070
H         -0.53750      -13.23630       11.46150
H          1.24750      -12.91820        9.59310
H          5.18020      -13.79050        4.98000
H          6.12540      -12.58850        5.87960
H          5.39340      -10.82300        4.27530
H          4.43660      -12.01650        3.39140
H          6.20000      -12.14610        3.42600
H         -7.37960      -10.43040        9.92790
H         -8.42230      -11.18160        8.70430
H         -7.05000       -8.45990        8.43280
H         -8.76370       -8.71700        8.78000
H         -8.09560       -9.20430        7.21920
H         -3.61010      -10.85360        4.74850
H          0.06290      -10.62020        1.67530
H          4.54040       -9.90930        0.82990
H          5.06720      -10.81320       -0.60370
H          4.65540       -7.78390       -0.47680
H          5.18600       -8.68700       -1.89890
H          6.21670       -8.61150       -0.46640
H         -9.48620       -7.80670       -0.85910
H         -8.90630       -8.68810       -2.28610
H         -9.45040       -9.92590        0.45700
H         -8.86760      -10.80200       -0.96170
H        -10.48230      -10.08410       -0.96810
H         -4.36150       -7.46480       -2.96360
H         -1.24220       -9.40170       -5.36700
H         -1.27150       -8.51570       -8.98860
H         -1.36880       -6.28810      -10.04180
H         -2.39040       -3.41550       -8.34320
H         -0.71120       -2.59670       -7.22300
H          2.43740        0.86530      -11.12640
H          3.64480       -0.35100      -10.66730
H          4.65460        1.92410      -10.77730
H          3.50280        2.50110       -9.56650
H          4.71330        1.29180       -9.12870
H         -6.33470       -0.03340       -0.39590
H         -7.43450        1.27490       -0.87300
H         -8.57100       -0.94130       -0.96960
H         -8.46520       -0.22440       -2.58070
H         -7.35780       -1.52070       -2.11710
H         -2.57370        3.27050       -3.67970
H         -1.91340        5.32190       -2.84820
H         -4.30840        6.94410        2.33930
H         -5.70920        7.22580        1.28730
H         -5.48240        9.02940        2.99350
H         -3.85940        9.39790        2.39630
H         -5.26580        9.67970        1.36560
H          6.58580        5.70680       -5.60470
H          7.15720        7.29810       -6.14380
H          8.06710        7.74200       -3.86800
H          8.76360        6.26740       -4.54800
H          7.49420        6.16230       -3.32310
H          3.59800        9.60910       -1.58780
H          4.46860       11.42030       -0.37180
H          9.93350       12.05940       -2.07710
H          9.61500       10.63690       -1.06730
H          7.88750       11.53830       -3.42410
H          9.02740       10.19130       -3.44290
H          7.58860       10.11940       -2.41580
H         -1.51670       12.91090        7.26620
H         -0.98940       11.31160        6.70580
H          0.28370       12.90150        8.98730
H          0.82370       11.31630        8.42410
H         -0.76780       11.49450        9.17170
H          4.30590       14.84120        5.90120
H          6.73990       15.72480        5.64290
