
  xtb     03022205113D
 energy: -263.325996350461 gnorm: 0.000505567329 xtb: 6.4.1 (unknown)
127138  0     0  0            999 V2000
    5.7968   -3.2696    7.8172 C   0  0  0  0  0  0  0  0  0  0  0  0
    5.0222   -4.1818    6.5954 S   0  0  0  0  0  0  0  0  0  0  0  0
    3.8754   -2.8918    6.3174 C   0  0  0  0  0  0  0  0  0  0  0  0
    4.1333   -1.8127    7.1242 C   0  0  0  0  0  0  0  0  0  0  0  0
    5.2288   -2.0431    7.9941 C   0  0  0  0  0  0  0  0  0  0  0  0
    5.7148   -1.0199    8.9920 C   0  0  0  0  0  0  0  0  0  0  0  0
    5.8927   -1.7118   10.3165 C   0  0  0  0  0  0  0  0  0  0  0  0
    5.0314   -2.2087   10.9804 O   0  0  0  0  0  0  0  0  0  0  0  0
    7.3708   -1.7305   10.8121 C   0  0  0  0  0  0  0  0  0  0  0  0
    8.1685   -2.3677    9.9384 F   0  0  0  0  0  0  0  0  0  0  0  0
    7.5176   -2.3221   11.9930 F   0  0  0  0  0  0  0  0  0  0  0  0
    7.8448   -0.4781   10.9232 F   0  0  0  0  0  0  0  0  0  0  0  0
    4.6856    0.1137    9.1527 C   0  0  0  0  0  0  0  0  0  0  0  0
    4.1752    0.5685    7.7912 C   0  0  0  0  0  0  0  0  0  0  0  0
    3.3472   -0.5404    7.1495 C   0  0  0  0  0  0  0  0  0  0  0  0
    2.9076   -2.9966    5.2524 C   0  0  0  0  0  0  0  0  0  0  0  0
    3.0216   -1.8617    3.9538 S   0  0  0  0  0  0  0  0  0  0  0  0
    1.7843   -2.6393    3.0281 C   0  0  0  0  0  0  0  0  0  0  0  0
    1.3354   -3.7850    3.6935 C   0  0  0  0  0  0  0  0  0  0  0  0
    1.9398   -3.9581    4.9892 C   0  0  0  0  0  0  0  0  0  0  0  0
    1.4648   -5.0010    5.8326 C   0  0  0  0  0  0  0  0  0  0  0  0
    1.9526   -5.2011    7.5232 S   0  0  0  0  0  0  0  0  0  0  0  0
    0.5614   -5.9023    5.3393 C   0  0  0  0  0  0  0  0  0  0  0  0
    0.0954   -5.8250    4.0201 C   0  0  0  0  0  0  0  0  0  0  0  0
    0.4605   -4.7920    3.1974 C   0  0  0  0  0  0  0  0  0  0  0  0
    0.0534   -4.7221    1.9075 O   0  0  0  0  0  0  0  0  0  0  0  0
    1.2947   -2.0295    1.8332 C   0  0  0  0  0  0  0  0  0  0  0  0
   -0.3900   -2.1425    1.4488 S   0  0  0  0  0  0  0  0  0  0  0  0
   -0.1987   -1.2137   -0.0108 C   0  0  0  0  0  0  0  0  0  0  0  0
    1.1252   -0.8477   -0.1755 C   0  0  0  0  0  0  0  0  0  0  0  0
    1.9507   -1.2483    0.8948 C   0  0  0  0  0  0  0  0  0  0  0  0
    3.4053   -0.8867    0.9794 C   0  0  0  0  0  0  0  0  0  0  0  0
    3.7206    0.1678    2.0087 C   0  0  0  0  0  0  0  0  0  0  0  0
    4.7793    0.3157    2.5487 O   0  0  0  0  0  0  0  0  0  0  0  0
    2.5938    1.2176    2.2789 C   0  0  0  0  0  0  0  0  0  0  0  0
    3.0684    2.2462    2.9834 F   0  0  0  0  0  0  0  0  0  0  0  0
    2.0760    1.7207    1.1507 F   0  0  0  0  0  0  0  0  0  0  0  0
    1.5745    0.7023    2.9815 F   0  0  0  0  0  0  0  0  0  0  0  0
    3.9655   -0.2693   -0.3327 C   0  0  0  0  0  0  0  0  0  0  0  0
    3.1608   -0.7184   -1.5412 C   0  0  0  0  0  0  0  0  0  0  0  0
    1.7177   -0.2413   -1.4043 C   0  0  0  0  0  0  0  0  0  0  0  0
   -1.3118   -0.9414   -0.8645 C   0  0  0  0  0  0  0  0  0  0  0  0
   -1.1867    0.2922   -2.0808 S   0  0  0  0  0  0  0  0  0  0  0  0
   -2.8301    0.0425   -2.5854 C   0  0  0  0  0  0  0  0  0  0  0  0
   -3.4207   -0.9774   -1.8807 C   0  0  0  0  0  0  0  0  0  0  0  0
   -2.5747   -1.5121   -0.8854 C   0  0  0  0  0  0  0  0  0  0  0  0
   -3.0473   -2.5757    0.0572 C   0  0  0  0  0  0  0  0  0  0  0  0
   -2.3966   -3.9191   -0.1304 C   0  0  0  0  0  0  0  0  0  0  0  0
   -2.4448   -4.8141    0.6681 O   0  0  0  0  0  0  0  0  0  0  0  0
   -1.6341   -4.2002   -1.4666 C   0  0  0  0  0  0  0  0  0  0  0  0
   -0.3983   -3.6850   -1.4702 F   0  0  0  0  0  0  0  0  0  0  0  0
   -2.2542   -3.7269   -2.5545 F   0  0  0  0  0  0  0  0  0  0  0  0
   -1.5038   -5.5192   -1.6423 F   0  0  0  0  0  0  0  0  0  0  0  0
   -4.5834   -2.7448    0.0009 C   0  0  0  0  0  0  0  0  0  0  0  0
   -5.0881   -2.7811   -1.4340 C   0  0  0  0  0  0  0  0  0  0  0  0
   -4.8282   -1.4356   -2.1035 C   0  0  0  0  0  0  0  0  0  0  0  0
   -3.3760    0.8452   -3.6500 C   0  0  0  0  0  0  0  0  0  0  0  0
   -4.0434    0.1355   -5.0876 S   0  0  0  0  0  0  0  0  0  0  0  0
   -4.3291    1.7105   -5.7737 C   0  0  0  0  0  0  0  0  0  0  0  0
   -3.9510    2.7117   -4.9224 C   0  0  0  0  0  0  0  0  0  0  0  0
   -3.4026    2.2139   -3.7162 C   0  0  0  0  0  0  0  0  0  0  0  0
   -2.9036    3.1168   -2.6217 C   0  0  0  0  0  0  0  0  0  0  0  0
   -3.2864    2.6171   -1.2593 C   0  0  0  0  0  0  0  0  0  0  0  0
   -2.5457    2.4449   -0.3333 O   0  0  0  0  0  0  0  0  0  0  0  0
   -4.8115    2.4133   -0.9996 C   0  0  0  0  0  0  0  0  0  0  0  0
   -5.0231    1.3465   -0.2208 F   0  0  0  0  0  0  0  0  0  0  0  0
   -5.3077    3.4805   -0.3538 F   0  0  0  0  0  0  0  0  0  0  0  0
   -5.5687    2.2467   -2.0911 F   0  0  0  0  0  0  0  0  0  0  0  0
   -3.4532    4.5432   -2.8182 C   0  0  0  0  0  0  0  0  0  0  0  0
   -3.2137    4.9838   -4.2586 C   0  0  0  0  0  0  0  0  0  0  0  0
   -4.0891    4.1715   -5.2088 C   0  0  0  0  0  0  0  0  0  0  0  0
   -4.8128    1.8531   -7.1305 C   0  0  0  0  0  0  0  0  0  0  0  0
   -6.4189    2.3581   -7.5412 S   0  0  0  0  0  0  0  0  0  0  0  0
   -6.0238    2.3478   -9.2162 C   0  0  0  0  0  0  0  0  0  0  0  0
   -4.7388    1.9729   -9.4532 C   0  0  0  0  0  0  0  0  0  0  0  0
   -4.0519    1.6690   -8.2523 C   0  0  0  0  0  0  0  0  0  0  0  0
   -2.5961    1.3033   -8.1734 C   0  0  0  0  0  0  0  0  0  0  0  0
   -1.8884    2.4257   -7.4627 C   0  0  0  0  0  0  0  0  0  0  0  0
   -2.1057    3.5973   -7.5977 O   0  0  0  0  0  0  0  0  0  0  0  0
   -0.7293    1.9904   -6.5142 C   0  0  0  0  0  0  0  0  0  0  0  0
    0.3949    1.7769   -7.2178 F   0  0  0  0  0  0  0  0  0  0  0  0
   -0.4626    2.9282   -5.6030 F   0  0  0  0  0  0  0  0  0  0  0  0
   -0.9845    0.8580   -5.8461 F   0  0  0  0  0  0  0  0  0  0  0  0
   -1.9889    1.1245   -9.5834 C   0  0  0  0  0  0  0  0  0  0  0  0
   -2.5501    2.1457  -10.5663 C   0  0  0  0  0  0  0  0  0  0  0  0
   -4.0460    1.9093  -10.7757 C   0  0  0  0  0  0  0  0  0  0  0  0
    6.6384   -3.6909    8.3301 H   0  0  0  0  0  0  0  0  0  0  0  0
    6.6701   -0.6081    8.6487 H   0  0  0  0  0  0  0  0  0  0  0  0
    3.8496   -0.2526    9.7524 H   0  0  0  0  0  0  0  0  0  0  0  0
    5.1536    0.9431    9.6848 H   0  0  0  0  0  0  0  0  0  0  0  0
    3.5614    1.4617    7.9100 H   0  0  0  0  0  0  0  0  0  0  0  0
    5.0177    0.8195    7.1442 H   0  0  0  0  0  0  0  0  0  0  0  0
    2.4313   -0.6951    7.7300 H   0  0  0  0  0  0  0  0  0  0  0  0
    3.0504   -0.2561    6.1392 H   0  0  0  0  0  0  0  0  0  0  0  0
    2.2702   -3.9267    7.7451 H   0  0  0  0  0  0  0  0  0  0  0  0
    0.2080   -6.6956    5.9791 H   0  0  0  0  0  0  0  0  0  0  0  0
   -0.5756   -6.5873    3.6514 H   0  0  0  0  0  0  0  0  0  0  0  0
   -0.6071   -5.4058    1.7255 H   0  0  0  0  0  0  0  0  0  0  0  0
    3.9911   -1.7758    1.2377 H   0  0  0  0  0  0  0  0  0  0  0  0
    5.0135   -0.5523   -0.4271 H   0  0  0  0  0  0  0  0  0  0  0  0
    3.9229    0.8215   -0.2809 H   0  0  0  0  0  0  0  0  0  0  0  0
    3.6060   -0.3006   -2.4445 H   0  0  0  0  0  0  0  0  0  0  0  0
    3.1773   -1.8070   -1.6182 H   0  0  0  0  0  0  0  0  0  0  0  0
    1.1467   -0.5512   -2.2805 H   0  0  0  0  0  0  0  0  0  0  0  0
    1.6827    0.8498   -1.3500 H   0  0  0  0  0  0  0  0  0  0  0  0
   -2.8136   -2.2855    1.0890 H   0  0  0  0  0  0  0  0  0  0  0  0
   -4.8570   -3.6541    0.5376 H   0  0  0  0  0  0  0  0  0  0  0  0
   -5.0323   -1.8927    0.5138 H   0  0  0  0  0  0  0  0  0  0  0  0
   -4.5963   -3.5774   -1.9928 H   0  0  0  0  0  0  0  0  0  0  0  0
   -6.1598   -2.9849   -1.4375 H   0  0  0  0  0  0  0  0  0  0  0  0
   -5.0272   -1.5041   -3.1738 H   0  0  0  0  0  0  0  0  0  0  0  0
   -5.5115   -0.6887   -1.6895 H   0  0  0  0  0  0  0  0  0  0  0  0
   -1.8076    3.1528   -2.6525 H   0  0  0  0  0  0  0  0  0  0  0  0
   -4.5247    4.5695   -2.6114 H   0  0  0  0  0  0  0  0  0  0  0  0
   -2.9520    5.2155   -2.1209 H   0  0  0  0  0  0  0  0  0  0  0  0
   -3.4494    6.0431   -4.3614 H   0  0  0  0  0  0  0  0  0  0  0  0
   -2.1629    4.8424   -4.5161 H   0  0  0  0  0  0  0  0  0  0  0  0
   -3.8131    4.3750   -6.2464 H   0  0  0  0  0  0  0  0  0  0  0  0
   -5.1386    4.4562   -5.0859 H   0  0  0  0  0  0  0  0  0  0  0  0
   -6.7707    2.6303   -9.9307 H   0  0  0  0  0  0  0  0  0  0  0  0
   -2.4651    0.3767   -7.6060 H   0  0  0  0  0  0  0  0  0  0  0  0
   -0.9018    1.2047   -9.5265 H   0  0  0  0  0  0  0  0  0  0  0  0
   -2.2345    0.1180   -9.9270 H   0  0  0  0  0  0  0  0  0  0  0  0
   -2.0242    2.0594  -11.5180 H   0  0  0  0  0  0  0  0  0  0  0  0
   -2.3910    3.1541  -10.1793 H   0  0  0  0  0  0  0  0  0  0  0  0
   -4.2021    0.9240  -11.2258 H   0  0  0  0  0  0  0  0  0  0  0  0
   -4.4641    2.6540  -11.4540 H   0  0  0  0  0  0  0  0  0  0  0  0
  1  2  1  0  0  0  0
  2  3  1  0  0  0  0
  3  4  2  0  0  0  0
  4  5  1  0  0  0  0
  5  6  1  0  0  0  0
  6  7  1  0  0  0  0
  7  8  2  0  0  0  0
  7  9  1  0  0  0  0
  9 10  1  0  0  0  0
  9 11  1  0  0  0  0
  9 12  1  0  0  0  0
  6 13  1  0  0  0  0
 13 14  1  0  0  0  0
 14 15  1  0  0  0  0
  3 16  1  0  0  0  0
 16 17  1  0  0  0  0
 17 18  1  0  0  0  0
 18 19  2  0  0  0  0
 19 20  1  0  0  0  0
 20 21  1  0  0  0  0
 21 22  1  0  0  0  0
 21 23  2  0  0  0  0
 23 24  1  0  0  0  0
 24 25  2  0  0  0  0
 25 26  1  0  0  0  0
 18 27  1  0  0  0  0
 27 28  1  0  0  0  0
 28 29  1  0  0  0  0
 29 30  2  0  0  0  0
 30 31  1  0  0  0  0
 31 32  1  0  0  0  0
 32 33  1  0  0  0  0
 33 34  2  0  0  0  0
 33 35  1  0  0  0  0
 35 36  1  0  0  0  0
 35 37  1  0  0  0  0
 35 38  1  0  0  0  0
 32 39  1  0  0  0  0
 39 40  1  0  0  0  0
 40 41  1  0  0  0  0
 29 42  1  0  0  0  0
 42 43  1  0  0  0  0
 43 44  1  0  0  0  0
 44 45  2  0  0  0  0
 45 46  1  0  0  0  0
 46 47  1  0  0  0  0
 47 48  1  0  0  0  0
 48 49  2  0  0  0  0
 48 50  1  0  0  0  0
 50 51  1  0  0  0  0
 50 52  1  0  0  0  0
 50 53  1  0  0  0  0
 47 54  1  0  0  0  0
 54 55  1  0  0  0  0
 55 56  1  0  0  0  0
 44 57  1  0  0  0  0
 57 58  1  0  0  0  0
 58 59  1  0  0  0  0
 59 60  2  0  0  0  0
 60 61  1  0  0  0  0
 61 62  1  0  0  0  0
 62 63  1  0  0  0  0
 63 64  2  0  0  0  0
 63 65  1  0  0  0  0
 65 66  1  0  0  0  0
 65 67  1  0  0  0  0
 65 68  1  0  0  0  0
 62 69  1  0  0  0  0
 69 70  1  0  0  0  0
 70 71  1  0  0  0  0
 59 72  1  0  0  0  0
 72 73  1  0  0  0  0
 73 74  1  0  0  0  0
 74 75  2  0  0  0  0
 75 76  1  0  0  0  0
 76 77  1  0  0  0  0
 77 78  1  0  0  0  0
 78 79  2  0  0  0  0
 78 80  1  0  0  0  0
 80 81  1  0  0  0  0
 80 82  1  0  0  0  0
 80 83  1  0  0  0  0
 77 84  1  0  0  0  0
 84 85  1  0  0  0  0
 85 86  1  0  0  0  0
  5  1  2  0  0  0  0
 20 16  2  0  0  0  0
 31 27  2  0  0  0  0
 46 42  2  0  0  0  0
 61 57  2  0  0  0  0
 76 72  2  0  0  0  0
 15  4  1  0  0  0  0
 25 19  1  0  0  0  0
 41 30  1  0  0  0  0
 56 45  1  0  0  0  0
 71 60  1  0  0  0  0
 86 75  1  0  0  0  0
  1 87  1  0  0  0  0
  6 88  1  0  0  0  0
 13 89  1  0  0  0  0
 13 90  1  0  0  0  0
 14 91  1  0  0  0  0
 14 92  1  0  0  0  0
 15 93  1  0  0  0  0
 15 94  1  0  0  0  0
 22 95  1  0  0  0  0
 23 96  1  0  0  0  0
 24 97  1  0  0  0  0
 26 98  1  0  0  0  0
 32 99  1  0  0  0  0
 39100  1  0  0  0  0
 39101  1  0  0  0  0
 40102  1  0  0  0  0
 40103  1  0  0  0  0
 41104  1  0  0  0  0
 41105  1  0  0  0  0
 47106  1  0  0  0  0
 54107  1  0  0  0  0
 54108  1  0  0  0  0
 55109  1  0  0  0  0
 55110  1  0  0  0  0
 56111  1  0  0  0  0
 56112  1  0  0  0  0
 62113  1  0  0  0  0
 69114  1  0  0  0  0
 69115  1  0  0  0  0
 70116  1  0  0  0  0
 70117  1  0  0  0  0
 71118  1  0  0  0  0
 71119  1  0  0  0  0
 74120  1  0  0  0  0
 77121  1  0  0  0  0
 84122  1  0  0  0  0
 84123  1  0  0  0  0
 85124  1  0  0  0  0
 85125  1  0  0  0  0
 86126  1  0  0  0  0
 86127  1  0  0  0  0
M  END
