227

C         -7.31790      -17.25190        8.98540
C         -6.18350      -17.70460        8.41400
C         -5.37780      -16.65760        7.87880
C         -4.18110      -16.76700        7.15420
C         -3.54470      -18.05310        6.91720
S         -3.11860      -19.10130        8.23770
C         -2.41900      -20.27940        7.18140
C         -1.76750      -21.50880        7.71240
C         -0.27080      -21.27890        7.93540
C         -2.51260      -19.86700        5.88600
Cl        -1.93360      -20.77650        4.55160
C         -3.15020      -18.60670        5.73160
Cl        -3.45500      -17.91070        4.19570
C         -3.61670      -15.58740        6.68550
C         -4.18380      -14.31320        6.92910
C         -5.39580      -14.20510        7.63170
C         -6.04320      -12.91710        7.81490
S         -6.38100      -11.90200        6.44190
C         -7.15160      -10.70110        7.41960
C         -7.76880       -9.49090        6.80980
C         -9.24230       -9.73620        6.47660
C         -7.14060      -11.07840        8.72920
C         -6.51210      -12.33240        8.95810
Cl        -6.30170      -12.98150       10.52980
Cl        -7.80830      -10.13640        9.99840
C         -5.96620      -15.38720        8.08930
S         -7.48800      -15.53270        8.92170
C         -3.36740      -13.27220        6.42920
C         -2.21790      -13.70840        5.83180
S         -2.12590      -15.45690        5.80430
C         -1.28560      -12.87190        5.14140
S         -1.95660      -11.47080        4.37850
C         -0.46970      -11.05380        3.60350
C          0.52950      -11.96630        3.94600
C          0.07690      -12.98310        4.86170
C          1.03300      -13.87450        5.42270
S          0.62800      -14.91180        6.79600
C          2.32400      -13.84450        4.96580
C          2.74280      -12.91080        4.00910
C          1.88900      -11.95170        3.53340
O          2.30560      -10.96670        2.70030
C         -0.49100       -9.88200        2.78450
C         -1.33250       -8.82200        2.99400
C         -1.23130       -7.80550        2.01930
C         -1.86720       -6.55000        2.00360
C         -2.78840       -6.15550        3.05670
S         -4.15480       -7.14160        3.49000
C         -4.67600       -6.02630        4.70980
C         -5.89800       -6.28500        5.51980
C         -7.15290       -6.32090        4.64760
C         -3.83160       -4.95900        4.76250
Cl        -4.01100       -3.64270        5.84960
C         -2.75930       -5.02970        3.83230
Cl        -1.51610       -3.85140        3.78580
C         -1.54690       -5.69570        0.95650
C         -0.61530       -6.03750       -0.05590
C          0.02880       -7.28760       -0.03290
C          1.00740       -7.64480       -1.04590
S          2.34380       -6.59250       -1.41400
C          2.96940       -7.67000       -2.61640
C          4.16770       -7.30560       -3.42120
C          3.84080       -6.18400       -4.40880
C          2.17770       -8.77410       -2.71480
C          1.06980       -8.76760       -1.82310
Cl        -0.10450      -10.01420       -1.81420
Cl         2.46600      -10.06780       -3.80470
C         -0.29520       -8.14530        1.01020
S          0.45270       -9.68150        1.32890
C         -0.46320       -5.00020       -1.00480
C         -1.22630       -3.89950       -0.73920
S         -2.21750       -4.11280        0.68530
C         -1.19480       -2.65570       -1.43930
C         -0.27560       -2.27950       -2.37700
C         -0.42900       -0.94420       -2.81560
C          0.41470       -0.22610       -3.68400
C          1.47770       -0.89880       -4.40780
S          3.11110       -0.30360       -4.40970
C          3.66320       -1.59520       -5.42070
C          5.09950       -1.72730       -5.78880
C          5.89340       -2.39060       -4.66070
C          2.63110       -2.43000       -5.73060
Cl         2.78580       -3.81450       -6.73220
C          1.39090       -2.03950       -5.15990
Cl        -0.06970       -2.88900       -5.46600
C          0.19100        1.14020       -3.78420
C         -0.88940        1.78740       -3.13510
C         -1.79000        1.05350       -2.34030
C         -2.92000        1.69170       -1.68740
S         -2.73290        3.14690       -0.74920
C         -4.41730        3.21140       -0.35290
C         -4.96660        4.31110        0.48710
C         -4.28230        4.37940        1.85190
C         -5.07120        2.15780       -0.91710
C         -4.22920        1.29580       -1.67210
Cl        -4.84410       -0.04440       -2.54420
Cl        -6.75650        1.87560       -0.75930
C         -1.51510       -0.29840       -2.17340
S         -2.32840       -1.37610       -1.07620
C         -0.88760        3.17920       -3.37990
C          0.16420        3.60260       -4.13990
S          1.16770        2.27430       -4.67670
C          0.49760        4.96960       -4.38490
C          0.00040        6.02230       -3.67290
C          0.53730        7.27080       -4.05720
C          0.23430        8.53200       -3.51310
C         -0.82620        8.65940       -2.52960
S         -0.57580        9.44320       -0.99810
C         -2.17890        9.07850       -0.46030
C         -2.64320        9.43090        0.90970
C         -2.46370        8.24720        1.86380
C         -2.85770        8.39390       -1.42420
Cl        -4.47670        7.85390       -1.25000
C         -2.09940        8.16000       -2.60040
Cl        -2.76680        7.39300       -3.98560
C          1.00430        9.59930       -3.94910
C          2.00210        9.46790       -4.94740
C          2.22890        8.22320       -5.56510
C          3.17510        8.09400       -6.65850
S          4.39810        6.85790       -6.66540
C          5.02980        7.38210       -8.18780
C          6.15570        6.66470       -8.84650
C          5.63630        5.50600       -9.70110
C          4.31420        8.44240       -8.65950
C          3.26560        8.85310       -7.79420
Cl         2.18300       10.12140       -8.20200
Cl         4.63910        9.22820      -10.14990
C          1.51170        7.13890       -5.07500
S          1.67160        5.47690       -5.57890
C          2.68980       10.68790       -5.16210
C          2.22570       11.71750       -4.39900
S          0.89610       11.23390       -3.36420
C          2.69530       13.06300       -4.36570
C          2.24740       14.07580       -3.57160
C          2.91280       15.30630       -3.79470
C          2.71480       16.53060       -3.13470
C          1.65060       16.68890       -2.15910
S          1.95440       17.33240       -0.57320
C          0.29540       17.17810       -0.10710
C         -0.15780       17.53530        1.26520
C          0.12300       16.39780        2.25010
C         -0.43770       16.65450       -1.13000
Cl        -2.12430       16.35260       -1.04340
C          0.32470       16.38050       -2.29670
Cl        -0.38830       15.80220       -3.74740
C          3.57590       17.57000       -3.46580
C          4.59030       17.44880       -4.44440
C          4.76090       16.23790       -5.13420
C          5.78870       16.07420       -6.15020
S          7.46050       16.40780       -5.80350
C          7.96510       15.94700       -7.39310
C          9.40260       15.94710       -7.78090
C         10.04890       14.59300       -7.47780
C          6.89110       15.55470       -8.13440
C          5.65590       15.62710       -7.43530
Cl         4.15630       15.26270       -8.18080
Cl         6.99710       15.02970       -9.76430
C          3.91670       15.19000       -4.78760
S          3.98660       13.57470       -5.43180
C          5.29880       18.67360       -4.61910
C          4.84670       19.65840       -3.81670
S          3.53400       19.17760       -2.79840
H         -8.09270      -17.82510        9.45590
H         -5.91740      -18.74410        8.35810
H         -1.90740      -22.31960        6.99480
H         -2.23840      -21.78910        8.65560
H          0.21160      -21.01260        6.99870
H         -0.11450      -20.47270        8.64840
H          0.19240      -22.18280        8.32190
H         -7.23010       -9.23620        5.89610
H         -7.68960       -8.66100        7.51530
H         -9.33730      -10.55690        5.77000
H         -9.79630       -9.98670        7.37730
H         -9.67890       -8.84420        6.03530
H         -3.60110      -12.22830        6.53570
H          1.89410      -15.24150        7.05970
H          3.05570      -14.52780        5.37050
H          3.77450      -12.91960        3.68660
H          3.23540      -11.09390        2.47400
H         -1.98350       -8.76590        3.84760
H         -5.78990       -7.23990        6.04020
H         -5.98670       -5.49500        6.26730
H         -7.27890       -5.37340        4.13010
H         -8.03080       -6.50050        5.26230
H         -7.07510       -7.11230        3.90560
H          4.50310       -8.19070       -3.96380
H          4.97010       -6.97850       -2.75620
H          3.04320       -6.49210       -5.07990
H          4.71700       -5.93960       -5.00350
H          3.51850       -5.29260       -3.87460
H          0.18620       -5.06780       -1.85660
H          0.52350       -2.91850       -2.70170
H          5.17360       -2.33170       -6.69450
H          5.51450       -0.73870       -5.99130
H          6.93700       -2.48940       -4.94670
H          5.49400       -3.37910       -4.44930
H          5.83380       -1.79070       -3.75590
H         -6.03740        4.14370        0.61250
H         -4.82860        5.26360       -0.03220
H         -4.41900        3.44530        2.39110
H         -3.21570        4.55670        1.73210
H         -4.70760        5.18650        2.44260
H         -1.63680        3.84720       -3.00110
H         -0.68850        5.90280       -2.85880
H         -2.07510       10.28740        1.27460
H         -3.70000        9.70330        0.86640
H         -1.41510        7.96600        1.92390
H         -3.03350        7.39140        1.51190
H         -2.81160        8.51350        2.85810
H          6.69930        7.36940       -9.47850
H          6.83500        6.27910       -8.08470
H          6.46690        4.99210      -10.17750
H          4.96790        5.87820      -10.47310
H          5.09260        4.79590       -9.08290
H          3.51740       10.80010       -5.83870
H          1.47620       13.93420       -2.83660
H          0.36090       18.43700        1.59490
H         -1.22960       17.73820        1.23630
H         -0.39600       15.49410        1.94010
H         -0.21880       16.67260        3.24420
H          1.18920       16.18890        2.29160
H          9.47760       16.15480       -8.85020
H          9.92610       16.73210       -7.23290
H          9.54450       13.80380       -8.02930
H         11.09620       14.60620       -7.76680
H          9.98180       14.37200       -6.41520
H          6.10290       18.79830       -5.32050
H          5.20190       20.66820       -3.75070
