
  xtb     03022205233D
 energy: -234.173511867442 gnorm: 0.000366917633 xtb: 6.4.1 (unknown)
119133  0     0  0            999 V2000
    8.1832   -7.4964    4.3853 C   0  0  0  0  0  0  0  0  0  0  0  0
    7.3619   -6.0092    4.3279 S   0  0  0  0  0  0  0  0  0  0  0  0
    6.0200   -6.6878    3.4711 C   0  0  0  0  0  0  0  0  0  0  0  0
    6.2309   -8.0446    3.2191 C   0  0  0  0  0  0  0  0  0  0  0  0
    7.4876   -8.5048    3.7573 C   0  0  0  0  0  0  0  0  0  0  0  0
    7.8717   -9.8644    3.5966 C   0  0  0  0  0  0  0  0  0  0  0  0
    9.3918  -10.4960    4.2517 S   0  0  0  0  0  0  0  0  0  0  0  0
    7.0361  -10.7234    2.9439 C   0  0  0  0  0  0  0  0  0  0  0  0
    5.8263  -10.2722    2.3915 C   0  0  0  0  0  0  0  0  0  0  0  0
    5.4240   -8.9663    2.4944 C   0  0  0  0  0  0  0  0  0  0  0  0
    4.2814   -8.5296    1.9019 O   0  0  0  0  0  0  0  0  0  0  0  0
    4.9171   -5.8195    3.1992 C   0  0  0  0  0  0  0  0  0  0  0  0
    3.5841   -6.0889    3.1178 C   0  0  0  0  0  0  0  0  0  0  0  0
    2.7809   -4.9389    2.9246 C   0  0  0  0  0  0  0  0  0  0  0  0
    1.3873   -4.8781    2.7535 C   0  0  0  0  0  0  0  0  0  0  0  0
    0.5569   -6.0642    2.8652 C   0  0  0  0  0  0  0  0  0  0  0  0
   -0.5849   -6.4932    1.6270 S   0  0  0  0  0  0  0  0  0  0  0  0
   -1.1200   -7.8905    2.4946 C   0  0  0  0  0  0  0  0  0  0  0  0
   -2.1418   -8.8118    1.9251 C   0  0  0  0  0  0  0  0  0  0  0  0
   -1.4836   -9.9092    1.0853 C   0  0  0  0  0  0  0  0  0  0  0  0
   -0.4402   -8.0073    3.6702 C   0  0  0  0  0  0  0  0  0  0  0  0
   -0.6993   -9.2721    4.8011 Cl  0  0  0  0  0  0  0  0  0  0  0  0
    0.5067   -6.9715    3.8875 C   0  0  0  0  0  0  0  0  0  0  0  0
    1.4208   -6.8465    5.3351 Cl  0  0  0  0  0  0  0  0  0  0  0  0
    0.8392   -3.6321    2.4804 C   0  0  0  0  0  0  0  0  0  0  0  0
    1.6055   -2.4430    2.4345 C   0  0  0  0  0  0  0  0  0  0  0  0
    2.9962   -2.4975    2.6404 C   0  0  0  0  0  0  0  0  0  0  0  0
    3.8175   -1.3000    2.5896 C   0  0  0  0  0  0  0  0  0  0  0  0
    3.7623   -0.2303    1.2178 S   0  0  0  0  0  0  0  0  0  0  0  0
    4.9686    0.8166    1.8838 C   0  0  0  0  0  0  0  0  0  0  0  0
    5.4648    2.0014    1.1311 C   0  0  0  0  0  0  0  0  0  0  0  0
    6.5977    1.6083    0.1800 C   0  0  0  0  0  0  0  0  0  0  0  0
    5.3832    0.3487    3.0943 C   0  0  0  0  0  0  0  0  0  0  0  0
    4.7316   -0.8472    3.5001 C   0  0  0  0  0  0  0  0  0  0  0  0
    5.0203   -1.5754    5.0242 Cl  0  0  0  0  0  0  0  0  0  0  0  0
    6.5705    1.1224    4.0616 Cl  0  0  0  0  0  0  0  0  0  0  0  0
    3.5505   -3.7502    2.8676 C   0  0  0  0  0  0  0  0  0  0  0  0
    5.2426   -4.0972    3.0504 S   0  0  0  0  0  0  0  0  0  0  0  0
    0.7932   -1.3041    2.2249 C   0  0  0  0  0  0  0  0  0  0  0  0
   -0.5400   -1.5867    2.1233 C   0  0  0  0  0  0  0  0  0  0  0  0
   -0.8506   -3.3119    2.2309 S   0  0  0  0  0  0  0  0  0  0  0  0
   -1.5685   -0.6452    1.8008 C   0  0  0  0  0  0  0  0  0  0  0  0
   -1.1140    0.6187    0.6957 S   0  0  0  0  0  0  0  0  0  0  0  0
   -2.7277    1.2243    0.5909 C   0  0  0  0  0  0  0  0  0  0  0  0
   -3.5967    0.4488    1.3534 C   0  0  0  0  0  0  0  0  0  0  0  0
   -2.9292   -0.5821    2.1010 C   0  0  0  0  0  0  0  0  0  0  0  0
   -3.7021   -1.3148    3.0423 C   0  0  0  0  0  0  0  0  0  0  0  0
   -3.0066   -2.3748    4.2815 S   0  0  0  0  0  0  0  0  0  0  0  0
   -5.0633   -1.1685    3.0542 C   0  0  0  0  0  0  0  0  0  0  0  0
   -5.7240   -0.2820    2.1925 C   0  0  0  0  0  0  0  0  0  0  0  0
   -5.0151    0.5572    1.3749 C   0  0  0  0  0  0  0  0  0  0  0  0
   -5.6044    1.4716    0.5670 O   0  0  0  0  0  0  0  0  0  0  0  0
   -3.0568    2.3598   -0.2199 C   0  0  0  0  0  0  0  0  0  0  0  0
   -2.6836    2.3129   -1.9075 S   0  0  0  0  0  0  0  0  0  0  0  0
   -3.5508    3.7693   -2.2178 C   0  0  0  0  0  0  0  0  0  0  0  0
   -4.0457    4.3228   -1.0411 C   0  0  0  0  0  0  0  0  0  0  0  0
   -3.7535    3.5178    0.1152 C   0  0  0  0  0  0  0  0  0  0  0  0
   -4.1517    3.9960    1.3912 C   0  0  0  0  0  0  0  0  0  0  0  0
   -3.7285    3.2048    2.9224 S   0  0  0  0  0  0  0  0  0  0  0  0
   -4.8898    5.1460    1.4773 C   0  0  0  0  0  0  0  0  0  0  0  0
   -5.2118    5.9064    0.3464 C   0  0  0  0  0  0  0  0  0  0  0  0
   -4.7728    5.5422   -0.9009 C   0  0  0  0  0  0  0  0  0  0  0  0
   -5.0552    6.3577   -1.9472 O   0  0  0  0  0  0  0  0  0  0  0  0
   -3.6856    4.2638   -3.5684 C   0  0  0  0  0  0  0  0  0  0  0  0
   -2.2870    4.8837   -4.3872 S   0  0  0  0  0  0  0  0  0  0  0  0
   -3.1993    5.3041   -5.7886 C   0  0  0  0  0  0  0  0  0  0  0  0
   -4.5232    4.9245   -5.6526 C   0  0  0  0  0  0  0  0  0  0  0  0
   -4.8125    4.3173   -4.3823 C   0  0  0  0  0  0  0  0  0  0  0  0
   -6.1322    3.8391   -4.1471 C   0  0  0  0  0  0  0  0  0  0  0  0
   -6.5845    2.8865   -2.7092 S   0  0  0  0  0  0  0  0  0  0  0  0
   -7.0827    3.9985   -5.1141 C   0  0  0  0  0  0  0  0  0  0  0  0
   -6.8090    4.6436   -6.3338 C   0  0  0  0  0  0  0  0  0  0  0  0
   -5.5542    5.1041   -6.6183 C   0  0  0  0  0  0  0  0  0  0  0  0
   -5.2319    5.7198   -7.7827 O   0  0  0  0  0  0  0  0  0  0  0  0
   -2.5731    5.9577   -6.9124 C   0  0  0  0  0  0  0  0  0  0  0  0
   -2.1795    5.0760   -8.3462 S   0  0  0  0  0  0  0  0  0  0  0  0
   -1.4977    6.4458   -9.0894 C   0  0  0  0  0  0  0  0  0  0  0  0
   -1.5658    7.5575   -8.2842 C   0  0  0  0  0  0  0  0  0  0  0  0
   -2.1899    7.2823   -7.0199 C   0  0  0  0  0  0  0  0  0  0  0  0
   -2.3801    8.3466   -6.0953 C   0  0  0  0  0  0  0  0  0  0  0  0
   -3.2285    8.0374   -4.5726 S   0  0  0  0  0  0  0  0  0  0  0  0
   -1.9280    9.5935   -6.4180 C   0  0  0  0  0  0  0  0  0  0  0  0
   -1.2863    9.8552   -7.6469 C   0  0  0  0  0  0  0  0  0  0  0  0
   -1.1059    8.8732   -8.5781 C   0  0  0  0  0  0  0  0  0  0  0  0
   -0.5141    9.0742   -9.7848 O   0  0  0  0  0  0  0  0  0  0  0  0
    9.1234   -7.5524    4.8971 H   0  0  0  0  0  0  0  0  0  0  0  0
   10.0649   -9.3487    4.2202 H   0  0  0  0  0  0  0  0  0  0  0  0
    7.3148  -11.7592    2.8298 H   0  0  0  0  0  0  0  0  0  0  0  0
    5.2089  -10.9766    1.8507 H   0  0  0  0  0  0  0  0  0  0  0  0
    3.8705   -9.2610    1.4233 H   0  0  0  0  0  0  0  0  0  0  0  0
    3.1830   -7.0793    3.1931 H   0  0  0  0  0  0  0  0  0  0  0  0
   -2.8336   -8.2418    1.3032 H   0  0  0  0  0  0  0  0  0  0  0  0
   -2.7002   -9.2671    2.7452 H   0  0  0  0  0  0  0  0  0  0  0  0
   -2.2418  -10.5694    0.6730 H   0  0  0  0  0  0  0  0  0  0  0  0
   -0.9199   -9.4692    0.2660 H   0  0  0  0  0  0  0  0  0  0  0  0
   -0.8065  -10.4971    1.6998 H   0  0  0  0  0  0  0  0  0  0  0  0
    4.6440    2.4371    0.5588 H   0  0  0  0  0  0  0  0  0  0  0  0
    5.8282    2.7429    1.8452 H   0  0  0  0  0  0  0  0  0  0  0  0
    7.4279    1.1841    0.7389 H   0  0  0  0  0  0  0  0  0  0  0  0
    6.9514    2.4818   -0.3610 H   0  0  0  0  0  0  0  0  0  0  0  0
    6.2481    0.8699   -0.5377 H   0  0  0  0  0  0  0  0  0  0  0  0
    1.1742   -0.2997    2.1787 H   0  0  0  0  0  0  0  0  0  0  0  0
   -1.8619   -1.7083    4.4208 H   0  0  0  0  0  0  0  0  0  0  0  0
   -5.6421   -1.7426    3.7609 H   0  0  0  0  0  0  0  0  0  0  0  0
   -6.8030   -0.2285    2.2153 H   0  0  0  0  0  0  0  0  0  0  0  0
   -6.5644    1.4033    0.6436 H   0  0  0  0  0  0  0  0  0  0  0  0
   -2.5548    2.7207    2.5218 H   0  0  0  0  0  0  0  0  0  0  0  0
   -5.2047    5.4930    2.4492 H   0  0  0  0  0  0  0  0  0  0  0  0
   -5.7742    6.8195    0.4503 H   0  0  0  0  0  0  0  0  0  0  0  0
   -4.5946    6.0701   -2.7486 H   0  0  0  0  0  0  0  0  0  0  0  0
   -6.3104    3.8096   -1.7888 H   0  0  0  0  0  0  0  0  0  0  0  0
   -8.0759    3.6161   -4.9384 H   0  0  0  0  0  0  0  0  0  0  0  0
   -7.6061    4.7631   -7.0539 H   0  0  0  0  0  0  0  0  0  0  0  0
   -6.0157    5.7863   -8.3427 H   0  0  0  0  0  0  0  0  0  0  0  0
   -1.0798    6.3830  -10.0732 H   0  0  0  0  0  0  0  0  0  0  0  0
   -3.2540    9.3090   -4.1773 H   0  0  0  0  0  0  0  0  0  0  0  0
   -2.0629   10.4146   -5.7290 H   0  0  0  0  0  0  0  0  0  0  0  0
   -0.9464   10.8620   -7.8465 H   0  0  0  0  0  0  0  0  0  0  0  0
   -0.2513    9.9991   -9.8679 H   0  0  0  0  0  0  0  0  0  0  0  0
  1  2  1  0  0  0  0
  2  3  1  0  0  0  0
  3  4  2  0  0  0  0
  4  5  1  0  0  0  0
  5  6  1  0  0  0  0
  6  7  1  0  0  0  0
  6  8  2  0  0  0  0
  8  9  1  0  0  0  0
  9 10  2  0  0  0  0
 10 11  1  0  0  0  0
  3 12  1  0  0  0  0
 12 13  2  0  0  0  0
 13 14  1  0  0  0  0
 14 15  2  0  0  0  0
 15 16  1  0  0  0  0
 16 17  1  0  0  0  0
 17 18  1  0  0  0  0
 18 19  1  0  0  0  0
 19 20  1  0  0  0  0
 18 21  2  0  0  0  0
 21 22  1  0  0  0  0
 21 23  1  0  0  0  0
 23 24  1  0  0  0  0
 15 25  1  0  0  0  0
 25 26  2  0  0  0  0
 26 27  1  0  0  0  0
 27 28  1  0  0  0  0
 28 29  1  0  0  0  0
 29 30  1  0  0  0  0
 30 31  1  0  0  0  0
 31 32  1  0  0  0  0
 30 33  2  0  0  0  0
 33 34  1  0  0  0  0
 34 35  1  0  0  0  0
 33 36  1  0  0  0  0
 27 37  2  0  0  0  0
 37 38  1  0  0  0  0
 26 39  1  0  0  0  0
 39 40  2  0  0  0  0
 40 41  1  0  0  0  0
 40 42  1  0  0  0  0
 42 43  1  0  0  0  0
 43 44  1  0  0  0  0
 44 45  2  0  0  0  0
 45 46  1  0  0  0  0
 46 47  1  0  0  0  0
 47 48  1  0  0  0  0
 47 49  2  0  0  0  0
 49 50  1  0  0  0  0
 50 51  2  0  0  0  0
 51 52  1  0  0  0  0
 44 53  1  0  0  0  0
 53 54  1  0  0  0  0
 54 55  1  0  0  0  0
 55 56  2  0  0  0  0
 56 57  1  0  0  0  0
 57 58  1  0  0  0  0
 58 59  1  0  0  0  0
 58 60  2  0  0  0  0
 60 61  1  0  0  0  0
 61 62  2  0  0  0  0
 62 63  1  0  0  0  0
 55 64  1  0  0  0  0
 64 65  1  0  0  0  0
 65 66  1  0  0  0  0
 66 67  2  0  0  0  0
 67 68  1  0  0  0  0
 68 69  1  0  0  0  0
 69 70  1  0  0  0  0
 69 71  2  0  0  0  0
 71 72  1  0  0  0  0
 72 73  2  0  0  0  0
 73 74  1  0  0  0  0
 66 75  1  0  0  0  0
 75 76  1  0  0  0  0
 76 77  1  0  0  0  0
 77 78  2  0  0  0  0
 78 79  1  0  0  0  0
 79 80  1  0  0  0  0
 80 81  1  0  0  0  0
 80 82  2  0  0  0  0
 82 83  1  0  0  0  0
 83 84  2  0  0  0  0
 84 85  1  0  0  0  0
  5  1  2  0  0  0  0
 38 12  1  0  0  0  0
 46 42  2  0  0  0  0
 57 53  2  0  0  0  0
 68 64  2  0  0  0  0
 79 75  2  0  0  0  0
 10  4  1  0  0  0  0
 37 14  1  0  0  0  0
 51 45  1  0  0  0  0
 62 56  1  0  0  0  0
 73 67  1  0  0  0  0
 84 78  1  0  0  0  0
 23 16  2  0  0  0  0
 41 25  1  0  0  0  0
 34 28  2  0  0  0  0
  1 86  1  0  0  0  0
  7 87  1  0  0  0  0
  8 88  1  0  0  0  0
  9 89  1  0  0  0  0
 11 90  1  0  0  0  0
 13 91  1  0  0  0  0
 19 92  1  0  0  0  0
 19 93  1  0  0  0  0
 20 94  1  0  0  0  0
 20 95  1  0  0  0  0
 20 96  1  0  0  0  0
 31 97  1  0  0  0  0
 31 98  1  0  0  0  0
 32 99  1  0  0  0  0
 32100  1  0  0  0  0
 32101  1  0  0  0  0
 39102  1  0  0  0  0
 48103  1  0  0  0  0
 49104  1  0  0  0  0
 50105  1  0  0  0  0
 52106  1  0  0  0  0
 59107  1  0  0  0  0
 60108  1  0  0  0  0
 61109  1  0  0  0  0
 63110  1  0  0  0  0
 70111  1  0  0  0  0
 71112  1  0  0  0  0
 72113  1  0  0  0  0
 74114  1  0  0  0  0
 77115  1  0  0  0  0
 81116  1  0  0  0  0
 82117  1  0  0  0  0
 83118  1  0  0  0  0
 85119  1  0  0  0  0
M  END
