
  xtb     03042205433D
 energy: -399.005339306042 gnorm: 0.000683861861 xtb: 6.4.1 (unknown)
228249  0     0  0            999 V2000
   -1.1489   -5.8261   13.5924 C   0  0  0  0  0  0  0  0  0  0  0  0
   -0.6340   -5.0114   12.6498 C   0  0  0  0  0  0  0  0  0  0  0  0
   -1.4142   -4.9827   11.4559 C   0  0  0  0  0  0  0  0  0  0  0  0
   -1.1561   -4.2880   10.2664 C   0  0  0  0  0  0  0  0  0  0  0  0
   -0.0504   -3.3337   10.1181 C   0  0  0  0  0  0  0  0  0  0  0  0
    0.1423   -2.3103   11.0453 C   0  0  0  0  0  0  0  0  0  0  0  0
    1.0974   -1.3399   10.8313 C   0  0  0  0  0  0  0  0  0  0  0  0
    1.9022   -1.3532    9.6931 C   0  0  0  0  0  0  0  0  0  0  0  0
    3.0714   -0.0456    9.4935 S   0  0  0  0  0  0  0  0  0  0  0  0
    3.0612    0.2382    7.6764 C   0  0  0  0  0  0  0  0  0  0  0  0
    3.4365    1.6800    7.3973 C   0  0  0  0  0  0  0  0  0  0  0  0
    1.7397   -2.4135    8.8068 C   0  0  0  0  0  0  0  0  0  0  0  0
    2.5284   -2.5289    7.7130 F   0  0  0  0  0  0  0  0  0  0  0  0
    0.7766   -3.3817    9.0003 C   0  0  0  0  0  0  0  0  0  0  0  0
   -2.0472   -4.4939    9.2229 C   0  0  0  0  0  0  0  0  0  0  0  0
   -3.1922   -5.3215    9.3195 C   0  0  0  0  0  0  0  0  0  0  0  0
   -3.4462   -6.0214   10.5097 C   0  0  0  0  0  0  0  0  0  0  0  0
   -4.5918   -6.9291   10.6382 C   0  0  0  0  0  0  0  0  0  0  0  0
   -5.4642   -6.8446   11.7223 C   0  0  0  0  0  0  0  0  0  0  0  0
   -6.5194   -7.7212   11.8429 C   0  0  0  0  0  0  0  0  0  0  0  0
   -6.7532   -8.7181   10.8943 C   0  0  0  0  0  0  0  0  0  0  0  0
   -8.1563   -9.7509   11.1634 S   0  0  0  0  0  0  0  0  0  0  0  0
   -7.7349  -11.3362   10.3348 C   0  0  0  0  0  0  0  0  0  0  0  0
   -8.5932  -12.4357   10.9288 C   0  0  0  0  0  0  0  0  0  0  0  0
   -5.8868   -8.7760    9.8064 C   0  0  0  0  0  0  0  0  0  0  0  0
   -4.8205   -7.9091    9.6780 C   0  0  0  0  0  0  0  0  0  0  0  0
   -6.0580   -9.6889    8.8226 F   0  0  0  0  0  0  0  0  0  0  0  0
   -2.5462   -5.8284   11.5500 C   0  0  0  0  0  0  0  0  0  0  0  0
   -2.6112   -6.6140   13.1073 S   0  0  0  0  0  0  0  0  0  0  0  0
   -3.9821   -5.2722    8.1384 C   0  0  0  0  0  0  0  0  0  0  0  0
   -3.4573   -4.4750    7.1683 C   0  0  0  0  0  0  0  0  0  0  0  0
   -1.9528   -3.7213    7.6655 S   0  0  0  0  0  0  0  0  0  0  0  0
   -3.9472   -4.1761    5.8618 C   0  0  0  0  0  0  0  0  0  0  0  0
   -3.2480   -3.5362    4.8831 C   0  0  0  0  0  0  0  0  0  0  0  0
   -3.9865   -3.3274    3.6941 C   0  0  0  0  0  0  0  0  0  0  0  0
   -3.5583   -2.6911    2.5167 C   0  0  0  0  0  0  0  0  0  0  0  0
   -2.2168   -2.1015    2.4249 C   0  0  0  0  0  0  0  0  0  0  0  0
   -1.3854   -2.3456    1.3323 C   0  0  0  0  0  0  0  0  0  0  0  0
   -0.1063   -1.8321    1.2949 C   0  0  0  0  0  0  0  0  0  0  0  0
    0.3959   -1.0617    2.3393 C   0  0  0  0  0  0  0  0  0  0  0  0
    2.0601   -0.4786    2.2323 S   0  0  0  0  0  0  0  0  0  0  0  0
    2.6731   -0.7628    3.9470 C   0  0  0  0  0  0  0  0  0  0  0  0
    4.1699   -0.9969    3.9126 C   0  0  0  0  0  0  0  0  0  0  0  0
   -0.4598   -0.7818    3.3995 C   0  0  0  0  0  0  0  0  0  0  0  0
   -0.0528    0.0061    4.4219 F   0  0  0  0  0  0  0  0  0  0  0  0
   -1.7408   -1.2893    3.4524 C   0  0  0  0  0  0  0  0  0  0  0  0
   -4.4669   -2.6609    1.4703 C   0  0  0  0  0  0  0  0  0  0  0  0
   -5.7843   -3.1771    1.5665 C   0  0  0  0  0  0  0  0  0  0  0  0
   -6.2185   -3.7862    2.7567 C   0  0  0  0  0  0  0  0  0  0  0  0
   -7.5914   -4.2833    2.9055 C   0  0  0  0  0  0  0  0  0  0  0  0
   -8.6808   -3.4659    2.6048 C   0  0  0  0  0  0  0  0  0  0  0  0
   -9.9688   -3.9315    2.7523 C   0  0  0  0  0  0  0  0  0  0  0  0
  -10.2288   -5.2238    3.2084 C   0  0  0  0  0  0  0  0  0  0  0  0
  -11.9273   -5.6726    3.3959 S   0  0  0  0  0  0  0  0  0  0  0  0
  -11.9977   -7.4481    2.9544 C   0  0  0  0  0  0  0  0  0  0  0  0
  -11.4953   -7.7061    1.5483 C   0  0  0  0  0  0  0  0  0  0  0  0
   -9.1320   -6.0173    3.5314 C   0  0  0  0  0  0  0  0  0  0  0  0
   -7.8357   -5.5688    3.3755 C   0  0  0  0  0  0  0  0  0  0  0  0
   -9.2966   -7.2684    4.0133 F   0  0  0  0  0  0  0  0  0  0  0  0
   -5.2926   -3.8697    3.7864 C   0  0  0  0  0  0  0  0  0  0  0  0
   -5.5720   -4.5861    5.3560 S   0  0  0  0  0  0  0  0  0  0  0  0
   -6.5035   -3.0272    0.3510 C   0  0  0  0  0  0  0  0  0  0  0  0
   -5.7870   -2.4099   -0.6302 C   0  0  0  0  0  0  0  0  0  0  0  0
   -4.1755   -1.9674   -0.0994 S   0  0  0  0  0  0  0  0  0  0  0  0
   -6.1374   -2.1688   -1.9946 C   0  0  0  0  0  0  0  0  0  0  0  0
   -4.8949   -1.5924   -3.0681 S   0  0  0  0  0  0  0  0  0  0  0  0
   -5.9327   -1.7142   -4.4462 C   0  0  0  0  0  0  0  0  0  0  0  0
   -7.2022   -2.1223   -4.0637 C   0  0  0  0  0  0  0  0  0  0  0  0
   -7.3022   -2.3901   -2.6750 C   0  0  0  0  0  0  0  0  0  0  0  0
   -8.3106   -2.3231   -4.9862 C   0  0  0  0  0  0  0  0  0  0  0  0
   -9.4077   -2.7138   -4.6728 O   0  0  0  0  0  0  0  0  0  0  0  0
   -5.4135   -1.4017   -5.7582 C   0  0  0  0  0  0  0  0  0  0  0  0
   -4.1734   -1.7245   -6.1555 C   0  0  0  0  0  0  0  0  0  0  0  0
   -3.3193   -2.5775   -5.3478 C   0  0  0  0  0  0  0  0  0  0  0  0
   -1.7747   -2.0485   -4.7449 S   0  0  0  0  0  0  0  0  0  0  0  0
   -1.5881   -3.4757   -3.7741 C   0  0  0  0  0  0  0  0  0  0  0  0
   -2.6628   -4.3452   -3.9806 C   0  0  0  0  0  0  0  0  0  0  0  0
   -3.6257   -3.8168   -4.8712 C   0  0  0  0  0  0  0  0  0  0  0  0
   -2.8660   -5.6294   -3.3362 C   0  0  0  0  0  0  0  0  0  0  0  0
   -2.1628   -6.1578   -2.5059 O   0  0  0  0  0  0  0  0  0  0  0  0
   -0.5688   -3.6908   -2.8043 C   0  0  0  0  0  0  0  0  0  0  0  0
    0.4396   -2.8971   -2.3865 C   0  0  0  0  0  0  0  0  0  0  0  0
    0.9173   -1.6534   -2.9171 C   0  0  0  0  0  0  0  0  0  0  0  0
    1.0743   -1.2547   -4.2099 C   0  0  0  0  0  0  0  0  0  0  0  0
    1.7134    0.0033   -4.3488 C   0  0  0  0  0  0  0  0  0  0  0  0
    2.0157    0.6768   -5.5437 C   0  0  0  0  0  0  0  0  0  0  0  0
    1.5343    0.1719   -6.8341 C   0  0  0  0  0  0  0  0  0  0  0  0
    2.3852   -0.0041   -7.9195 C   0  0  0  0  0  0  0  0  0  0  0  0
    1.9143   -0.4866   -9.1262 C   0  0  0  0  0  0  0  0  0  0  0  0
    0.5701   -0.7989   -9.2944 C   0  0  0  0  0  0  0  0  0  0  0  0
   -0.1673   -1.4407  -10.7597 S   0  0  0  0  0  0  0  0  0  0  0  0
    1.1505   -1.3406  -12.0176 C   0  0  0  0  0  0  0  0  0  0  0  0
    1.3921    0.0800  -12.4919 C   0  0  0  0  0  0  0  0  0  0  0  0
   -0.2719   -0.6097   -8.1968 C   0  0  0  0  0  0  0  0  0  0  0  0
   -1.5866   -0.8997   -8.3201 F   0  0  0  0  0  0  0  0  0  0  0  0
    0.1834   -0.1378   -6.9887 C   0  0  0  0  0  0  0  0  0  0  0  0
    2.7540    1.8424   -5.4262 C   0  0  0  0  0  0  0  0  0  0  0  0
    3.1304    2.3978   -4.1774 C   0  0  0  0  0  0  0  0  0  0  0  0
    2.7398    1.7764   -2.9772 C   0  0  0  0  0  0  0  0  0  0  0  0
    2.9796    2.4135   -1.6783 C   0  0  0  0  0  0  0  0  0  0  0  0
    3.4470    1.6968   -0.5791 C   0  0  0  0  0  0  0  0  0  0  0  0
    3.6281    2.3097    0.6439 C   0  0  0  0  0  0  0  0  0  0  0  0
    3.3433    3.6586    0.8183 C   0  0  0  0  0  0  0  0  0  0  0  0
    3.5688    4.5189    2.3448 S   0  0  0  0  0  0  0  0  0  0  0  0
    2.9958    3.2890    3.5707 C   0  0  0  0  0  0  0  0  0  0  0  0
    1.5332    2.9453    3.3751 C   0  0  0  0  0  0  0  0  0  0  0  0
    2.8908    4.3702   -0.2913 C   0  0  0  0  0  0  0  0  0  0  0  0
    2.7018    3.7710   -1.5169 C   0  0  0  0  0  0  0  0  0  0  0  0
    2.6080    5.6819   -0.1708 F   0  0  0  0  0  0  0  0  0  0  0  0
    2.0787    0.5606   -3.0987 C   0  0  0  0  0  0  0  0  0  0  0  0
    1.5666   -0.4693   -1.7904 S   0  0  0  0  0  0  0  0  0  0  0  0
    3.9161    3.5679   -4.3412 C   0  0  0  0  0  0  0  0  0  0  0  0
    4.0990    3.9293   -5.6417 C   0  0  0  0  0  0  0  0  0  0  0  0
    3.3028    2.8315   -6.7546 S   0  0  0  0  0  0  0  0  0  0  0  0
    4.8392    5.0375   -6.1491 C   0  0  0  0  0  0  0  0  0  0  0  0
    4.9331    5.4473   -7.4447 C   0  0  0  0  0  0  0  0  0  0  0  0
    5.7547    6.5899   -7.6227 C   0  0  0  0  0  0  0  0  0  0  0  0
    6.0786    7.2413   -8.8231 C   0  0  0  0  0  0  0  0  0  0  0  0
    5.4688    6.8371  -10.0947 C   0  0  0  0  0  0  0  0  0  0  0  0
    4.0874    6.7003  -10.2033 C   0  0  0  0  0  0  0  0  0  0  0  0
    3.4959    6.3234  -11.3930 C   0  0  0  0  0  0  0  0  0  0  0  0
    4.2683    6.0545  -12.5172 C   0  0  0  0  0  0  0  0  0  0  0  0
    3.6491    5.5676  -14.0930 S   0  0  0  0  0  0  0  0  0  0  0  0
    1.9190    5.0845  -13.7633 C   0  0  0  0  0  0  0  0  0  0  0  0
    1.8220    3.7933  -12.9729 C   0  0  0  0  0  0  0  0  0  0  0  0
    5.6509    6.2098  -12.3977 C   0  0  0  0  0  0  0  0  0  0  0  0
    6.4296    5.9638  -13.4699 F   0  0  0  0  0  0  0  0  0  0  0  0
    6.2520    6.5964  -11.2213 C   0  0  0  0  0  0  0  0  0  0  0  0
    6.9782    8.2946   -8.7352 C   0  0  0  0  0  0  0  0  0  0  0  0
    7.5451    8.7287   -7.5125 C   0  0  0  0  0  0  0  0  0  0  0  0
    7.2144    8.0826   -6.3121 C   0  0  0  0  0  0  0  0  0  0  0  0
    7.8067    8.4827   -5.0291 C   0  0  0  0  0  0  0  0  0  0  0  0
    7.0080    8.7478   -3.9187 C   0  0  0  0  0  0  0  0  0  0  0  0
    7.5769    9.0963   -2.7123 C   0  0  0  0  0  0  0  0  0  0  0  0
    8.9585    9.1965   -2.5648 C   0  0  0  0  0  0  0  0  0  0  0  0
    9.5798    9.6927   -0.9836 S   0  0  0  0  0  0  0  0  0  0  0  0
   11.0131    8.5841   -0.7175 C   0  0  0  0  0  0  0  0  0  0  0  0
   10.6135    7.1231   -0.7663 C   0  0  0  0  0  0  0  0  0  0  0  0
    9.7425    8.9506   -3.6878 C   0  0  0  0  0  0  0  0  0  0  0  0
    9.1877    8.5879   -4.8982 C   0  0  0  0  0  0  0  0  0  0  0  0
   11.0888    9.0593   -3.6309 F   0  0  0  0  0  0  0  0  0  0  0  0
    6.3138    7.0315   -6.3985 C   0  0  0  0  0  0  0  0  0  0  0  0
    5.7735    6.0480   -5.0616 S   0  0  0  0  0  0  0  0  0  0  0  0
    8.3846    9.8674   -7.6995 C   0  0  0  0  0  0  0  0  0  0  0  0
    8.4545   10.2623   -8.9866 C   0  0  0  0  0  0  0  0  0  0  0  0
    7.5129    9.2904  -10.0645 S   0  0  0  0  0  0  0  0  0  0  0  0
   -0.7611   -6.0285   14.5717 H   0  0  0  0  0  0  0  0  0  0  0  0
    0.2786   -4.4566   12.7713 H   0  0  0  0  0  0  0  0  0  0  0  0
   -0.4934   -2.2523   11.9156 H   0  0  0  0  0  0  0  0  0  0  0  0
    1.2261   -0.5345   11.5376 H   0  0  0  0  0  0  0  0  0  0  0  0
    2.0552    0.0174    7.3223 H   0  0  0  0  0  0  0  0  0  0  0  0
    3.7727   -0.4489    7.2208 H   0  0  0  0  0  0  0  0  0  0  0  0
    4.4227    1.9025    7.7982 H   0  0  0  0  0  0  0  0  0  0  0  0
    2.7178    2.3566    7.8538 H   0  0  0  0  0  0  0  0  0  0  0  0
    3.4494    1.8551    6.3235 H   0  0  0  0  0  0  0  0  0  0  0  0
    0.6966   -4.1812    8.2805 H   0  0  0  0  0  0  0  0  0  0  0  0
   -5.3192   -6.0789   12.4683 H   0  0  0  0  0  0  0  0  0  0  0  0
   -7.1918   -7.6527   12.6837 H   0  0  0  0  0  0  0  0  0  0  0  0
   -6.6772  -11.5235   10.5125 H   0  0  0  0  0  0  0  0  0  0  0  0
   -7.9182  -11.2272    9.2671 H   0  0  0  0  0  0  0  0  0  0  0  0
   -8.4147  -12.5248   11.9981 H   0  0  0  0  0  0  0  0  0  0  0  0
   -9.6483  -12.2229   10.7721 H   0  0  0  0  0  0  0  0  0  0  0  0
   -8.3542  -13.3843   10.4530 H   0  0  0  0  0  0  0  0  0  0  0  0
   -4.1650   -8.0193    8.8277 H   0  0  0  0  0  0  0  0  0  0  0  0
   -4.9132   -5.7967    8.0187 H   0  0  0  0  0  0  0  0  0  0  0  0
   -2.2209   -3.2455    5.0092 H   0  0  0  0  0  0  0  0  0  0  0  0
   -1.7267   -2.9731    0.5238 H   0  0  0  0  0  0  0  0  0  0  0  0
    0.5386   -2.0297    0.4541 H   0  0  0  0  0  0  0  0  0  0  0  0
    2.4231    0.1070    4.5526 H   0  0  0  0  0  0  0  0  0  0  0  0
    2.1519   -1.6378    4.3315 H   0  0  0  0  0  0  0  0  0  0  0  0
    4.5292   -1.2124    4.9163 H   0  0  0  0  0  0  0  0  0  0  0  0
    4.4089   -1.8405    3.2695 H   0  0  0  0  0  0  0  0  0  0  0  0
    4.6929   -0.1201    3.5367 H   0  0  0  0  0  0  0  0  0  0  0  0
   -2.3689   -1.0223    4.2881 H   0  0  0  0  0  0  0  0  0  0  0  0
   -8.5117   -2.4540    2.2694 H   0  0  0  0  0  0  0  0  0  0  0  0
  -10.8091   -3.2966    2.5178 H   0  0  0  0  0  0  0  0  0  0  0  0
  -13.0595   -7.6797    3.0405 H   0  0  0  0  0  0  0  0  0  0  0  0
  -11.4485   -8.0218    3.6974 H   0  0  0  0  0  0  0  0  0  0  0  0
  -10.4350   -7.4754    1.4652 H   0  0  0  0  0  0  0  0  0  0  0  0
  -11.6379   -8.7550    1.2965 H   0  0  0  0  0  0  0  0  0  0  0  0
  -12.0395   -7.0965    0.8298 H   0  0  0  0  0  0  0  0  0  0  0  0
   -7.0261   -6.2385    3.6201 H   0  0  0  0  0  0  0  0  0  0  0  0
   -7.5026   -3.3957    0.2072 H   0  0  0  0  0  0  0  0  0  0  0  0
   -8.2116   -2.7459   -2.2268 H   0  0  0  0  0  0  0  0  0  0  0  0
   -8.0692   -2.0806   -6.0394 H   0  0  0  0  0  0  0  0  0  0  0  0
   -6.0667   -0.8552   -6.4245 H   0  0  0  0  0  0  0  0  0  0  0  0
   -3.7843   -1.3760   -7.1012 H   0  0  0  0  0  0  0  0  0  0  0  0
   -4.5303   -4.3355   -5.1376 H   0  0  0  0  0  0  0  0  0  0  0  0
   -3.7928   -6.1285   -3.6817 H   0  0  0  0  0  0  0  0  0  0  0  0
   -0.7052   -4.6236   -2.2709 H   0  0  0  0  0  0  0  0  0  0  0  0
    0.9783   -3.2322   -1.5081 H   0  0  0  0  0  0  0  0  0  0  0  0
    0.8257   -1.8740   -5.0519 H   0  0  0  0  0  0  0  0  0  0  0  0
    3.4366    0.2160   -7.8162 H   0  0  0  0  0  0  0  0  0  0  0  0
    2.6134   -0.6262   -9.9341 H   0  0  0  0  0  0  0  0  0  0  0  0
    2.0491   -1.8071  -11.6163 H   0  0  0  0  0  0  0  0  0  0  0  0
    0.7732   -1.9602  -12.8312 H   0  0  0  0  0  0  0  0  0  0  0  0
    0.4781    0.4942  -12.9109 H   0  0  0  0  0  0  0  0  0  0  0  0
    1.7137    0.7196  -11.6728 H   0  0  0  0  0  0  0  0  0  0  0  0
    2.1615    0.0850  -13.2615 H   0  0  0  0  0  0  0  0  0  0  0  0
   -0.5145    0.0062   -6.1792 H   0  0  0  0  0  0  0  0  0  0  0  0
    3.6962    0.6526   -0.6801 H   0  0  0  0  0  0  0  0  0  0  0  0
    3.9972    1.7252    1.4707 H   0  0  0  0  0  0  0  0  0  0  0  0
    3.1616    3.7884    4.5255 H   0  0  0  0  0  0  0  0  0  0  0  0
    3.6359    2.4095    3.5145 H   0  0  0  0  0  0  0  0  0  0  0  0
    1.3841    2.4293    2.4284 H   0  0  0  0  0  0  0  0  0  0  0  0
    0.9306    3.8507    3.3768 H   0  0  0  0  0  0  0  0  0  0  0  0
    1.1874    2.3003    4.1801 H   0  0  0  0  0  0  0  0  0  0  0  0
    2.3044    4.3593   -2.3291 H   0  0  0  0  0  0  0  0  0  0  0  0
    4.3563    4.1132   -3.5255 H   0  0  0  0  0  0  0  0  0  0  0  0
    4.4425    4.9332   -8.2521 H   0  0  0  0  0  0  0  0  0  0  0  0
    3.4628    6.9180   -9.3500 H   0  0  0  0  0  0  0  0  0  0  0  0
    2.4215    6.2497  -11.4372 H   0  0  0  0  0  0  0  0  0  0  0  0
    1.4099    5.9137  -13.2741 H   0  0  0  0  0  0  0  0  0  0  0  0
    1.4966    4.9599  -14.7603 H   0  0  0  0  0  0  0  0  0  0  0  0
    0.7774    3.5250  -12.8279 H   0  0  0  0  0  0  0  0  0  0  0  0
    2.2932    3.8946  -11.9974 H   0  0  0  0  0  0  0  0  0  0  0  0
    2.3173    2.9887  -13.5108 H   0  0  0  0  0  0  0  0  0  0  0  0
    7.3261    6.6844  -11.1855 H   0  0  0  0  0  0  0  0  0  0  0  0
    5.9341    8.6887   -4.0049 H   0  0  0  0  0  0  0  0  0  0  0  0
    6.9556    9.2982   -1.8540 H   0  0  0  0  0  0  0  0  0  0  0  0
   11.7859    8.8212   -1.4452 H   0  0  0  0  0  0  0  0  0  0  0  0
   11.3636    8.8635    0.2761 H   0  0  0  0  0  0  0  0  0  0  0  0
   11.4729    6.5001   -0.5265 H   0  0  0  0  0  0  0  0  0  0  0  0
   10.2573    6.8507   -1.7583 H   0  0  0  0  0  0  0  0  0  0  0  0
    9.8218    6.9195   -0.0483 H   0  0  0  0  0  0  0  0  0  0  0  0
    9.8432    8.3804   -5.7302 H   0  0  0  0  0  0  0  0  0  0  0  0
    8.8895   10.3683   -6.8939 H   0  0  0  0  0  0  0  0  0  0  0  0
    9.0108   11.0838   -9.3941 H   0  0  0  0  0  0  0  0  0  0  0  0
  1  2  2  0  0  0  0
  2  3  1  0  0  0  0
  3  4  2  0  0  0  0
  4  5  1  0  0  0  0
  5  6  2  0  0  0  0
  6  7  1  0  0  0  0
  7  8  2  0  0  0  0
  8  9  1  0  0  0  0
  9 10  1  0  0  0  0
 10 11  1  0  0  0  0
  8 12  1  0  0  0  0
 12 13  1  0  0  0  0
 12 14  2  0  0  0  0
  4 15  1  0  0  0  0
 15 16  2  0  0  0  0
 16 17  1  0  0  0  0
 17 18  1  0  0  0  0
 18 19  2  0  0  0  0
 19 20  1  0  0  0  0
 20 21  2  0  0  0  0
 21 22  1  0  0  0  0
 22 23  1  0  0  0  0
 23 24  1  0  0  0  0
 21 25  1  0  0  0  0
 25 26  2  0  0  0  0
 25 27  1  0  0  0  0
 17 28  2  0  0  0  0
 28 29  1  0  0  0  0
 16 30  1  0  0  0  0
 30 31  2  0  0  0  0
 31 32  1  0  0  0  0
 31 33  1  0  0  0  0
 33 34  2  0  0  0  0
 34 35  1  0  0  0  0
 35 36  2  0  0  0  0
 36 37  1  0  0  0  0
 37 38  2  0  0  0  0
 38 39  1  0  0  0  0
 39 40  2  0  0  0  0
 40 41  1  0  0  0  0
 41 42  1  0  0  0  0
 42 43  1  0  0  0  0
 40 44  1  0  0  0  0
 44 45  1  0  0  0  0
 44 46  2  0  0  0  0
 36 47  1  0  0  0  0
 47 48  2  0  0  0  0
 48 49  1  0  0  0  0
 49 50  1  0  0  0  0
 50 51  2  0  0  0  0
 51 52  1  0  0  0  0
 52 53  2  0  0  0  0
 53 54  1  0  0  0  0
 54 55  1  0  0  0  0
 55 56  1  0  0  0  0
 53 57  1  0  0  0  0
 57 58  2  0  0  0  0
 57 59  1  0  0  0  0
 49 60  2  0  0  0  0
 60 61  1  0  0  0  0
 48 62  1  0  0  0  0
 62 63  2  0  0  0  0
 63 64  1  0  0  0  0
 63 65  1  0  0  0  0
 65 66  1  0  0  0  0
 66 67  1  0  0  0  0
 67 68  2  0  0  0  0
 68 69  1  0  0  0  0
 68 70  1  0  0  0  0
 70 71  2  0  0  0  0
 67 72  1  0  0  0  0
 72 73  2  0  0  0  0
 73 74  1  0  0  0  0
 74 75  1  0  0  0  0
 75 76  1  0  0  0  0
 76 77  2  0  0  0  0
 77 78  1  0  0  0  0
 77 79  1  0  0  0  0
 79 80  2  0  0  0  0
 76 81  1  0  0  0  0
 81 82  2  0  0  0  0
 82 83  1  0  0  0  0
 83 84  2  0  0  0  0
 84 85  1  0  0  0  0
 85 86  2  0  0  0  0
 86 87  1  0  0  0  0
 87 88  2  0  0  0  0
 88 89  1  0  0  0  0
 89 90  2  0  0  0  0
 90 91  1  0  0  0  0
 91 92  1  0  0  0  0
 92 93  1  0  0  0  0
 90 94  1  0  0  0  0
 94 95  1  0  0  0  0
 94 96  2  0  0  0  0
 86 97  1  0  0  0  0
 97 98  2  0  0  0  0
 98 99  1  0  0  0  0
 99100  1  0  0  0  0
100101  2  0  0  0  0
101102  1  0  0  0  0
102103  2  0  0  0  0
103104  1  0  0  0  0
104105  1  0  0  0  0
105106  1  0  0  0  0
103107  1  0  0  0  0
107108  2  0  0  0  0
107109  1  0  0  0  0
 99110  2  0  0  0  0
110111  1  0  0  0  0
 98112  1  0  0  0  0
112113  2  0  0  0  0
113114  1  0  0  0  0
113115  1  0  0  0  0
115116  2  0  0  0  0
116117  1  0  0  0  0
117118  2  0  0  0  0
118119  1  0  0  0  0
119120  2  0  0  0  0
120121  1  0  0  0  0
121122  2  0  0  0  0
122123  1  0  0  0  0
123124  1  0  0  0  0
124125  1  0  0  0  0
122126  1  0  0  0  0
126127  1  0  0  0  0
126128  2  0  0  0  0
118129  1  0  0  0  0
129130  2  0  0  0  0
130131  1  0  0  0  0
131132  1  0  0  0  0
132133  2  0  0  0  0
133134  1  0  0  0  0
134135  2  0  0  0  0
135136  1  0  0  0  0
136137  1  0  0  0  0
137138  1  0  0  0  0
135139  1  0  0  0  0
139140  2  0  0  0  0
139141  1  0  0  0  0
131142  2  0  0  0  0
142143  1  0  0  0  0
130144  1  0  0  0  0
144145  2  0  0  0  0
145146  1  0  0  0  0
 29  1  1  0  0  0  0
 61 33  1  0  0  0  0
 69 65  2  0  0  0  0
 78 74  2  0  0  0  0
111 83  1  0  0  0  0
143115  1  0  0  0  0
 28  3  1  0  0  0  0
 60 35  1  0  0  0  0
110 85  1  0  0  0  0
142117  1  0  0  0  0
 14  5  1  0  0  0  0
 32 15  1  0  0  0  0
 46 37  1  0  0  0  0
 64 47  1  0  0  0  0
 96 87  1  0  0  0  0
114 97  1  0  0  0  0
128119  1  0  0  0  0
146129  1  0  0  0  0
 26 18  1  0  0  0  0
 58 50  1  0  0  0  0
108100  1  0  0  0  0
140132  1  0  0  0  0
  1147  1  0  0  0  0
  2148  1  0  0  0  0
  6149  1  0  0  0  0
  7150  1  0  0  0  0
 10151  1  0  0  0  0
 10152  1  0  0  0  0
 11153  1  0  0  0  0
 11154  1  0  0  0  0
 11155  1  0  0  0  0
 14156  1  0  0  0  0
 19157  1  0  0  0  0
 20158  1  0  0  0  0
 23159  1  0  0  0  0
 23160  1  0  0  0  0
 24161  1  0  0  0  0
 24162  1  0  0  0  0
 24163  1  0  0  0  0
 26164  1  0  0  0  0
 30165  1  0  0  0  0
 34166  1  0  0  0  0
 38167  1  0  0  0  0
 39168  1  0  0  0  0
 42169  1  0  0  0  0
 42170  1  0  0  0  0
 43171  1  0  0  0  0
 43172  1  0  0  0  0
 43173  1  0  0  0  0
 46174  1  0  0  0  0
 51175  1  0  0  0  0
 52176  1  0  0  0  0
 55177  1  0  0  0  0
 55178  1  0  0  0  0
 56179  1  0  0  0  0
 56180  1  0  0  0  0
 56181  1  0  0  0  0
 58182  1  0  0  0  0
 62183  1  0  0  0  0
 69184  1  0  0  0  0
 70185  1  0  0  0  0
 72186  1  0  0  0  0
 73187  1  0  0  0  0
 78188  1  0  0  0  0
 79189  1  0  0  0  0
 81190  1  0  0  0  0
 82191  1  0  0  0  0
 84192  1  0  0  0  0
 88193  1  0  0  0  0
 89194  1  0  0  0  0
 92195  1  0  0  0  0
 92196  1  0  0  0  0
 93197  1  0  0  0  0
 93198  1  0  0  0  0
 93199  1  0  0  0  0
 96200  1  0  0  0  0
101201  1  0  0  0  0
102202  1  0  0  0  0
105203  1  0  0  0  0
105204  1  0  0  0  0
106205  1  0  0  0  0
106206  1  0  0  0  0
106207  1  0  0  0  0
108208  1  0  0  0  0
112209  1  0  0  0  0
116210  1  0  0  0  0
120211  1  0  0  0  0
121212  1  0  0  0  0
124213  1  0  0  0  0
124214  1  0  0  0  0
125215  1  0  0  0  0
125216  1  0  0  0  0
125217  1  0  0  0  0
128218  1  0  0  0  0
133219  1  0  0  0  0
134220  1  0  0  0  0
137221  1  0  0  0  0
137222  1  0  0  0  0
138223  1  0  0  0  0
138224  1  0  0  0  0
138225  1  0  0  0  0
140226  1  0  0  0  0
144227  1  0  0  0  0
145228  1  0  0  0  0
M  END
