225

C         -4.97850      -19.58270       -0.63480
C         -5.73040      -18.59680       -0.10460
C         -5.53980      -17.34390       -0.75700
C         -6.11240      -16.10210       -0.43900
C         -7.12390      -15.97920        0.59750
S         -6.96300      -14.83080        1.89230
C         -8.46800      -15.30390        2.60250
C         -8.94440      -14.69420        3.87450
C         -8.32160      -15.39360        5.08520
C         -9.04760      -16.29640        1.86970
Cl       -10.55320      -17.02150        2.26090
C         -8.29090      -16.67950        0.72990
Cl        -8.84530      -17.84920       -0.39770
C         -5.66120      -14.99870       -1.15200
C         -4.70310      -15.09350       -2.19010
C         -4.16650      -16.34350       -2.54350
C         -3.18830      -16.47060       -3.61090
S         -1.74130      -15.50330       -3.62990
C         -1.17620      -16.23080       -5.09450
C          0.13940      -15.85840       -5.68390
C          1.26630      -16.69640       -5.07510
C         -2.06220      -17.17170       -5.52620
C         -3.20430      -17.30870       -4.69130
Cl        -4.49920      -18.36230       -5.07620
Cl        -1.84680      -18.10410       -6.95000
C         -4.59290      -17.44170       -1.80540
S         -3.99240      -19.06790       -1.95770
C         -4.42610      -13.83130       -2.76820
C         -5.12080      -12.80530       -2.19690
S         -6.19050      -13.35580       -0.92650
C         -5.00030      -11.41830       -2.51580
C         -4.04080      -10.85140       -3.30380
C         -4.14590       -9.44400       -3.40160
C         -3.27230       -8.55990       -4.06190
C         -2.13050       -9.06010       -4.81020
S         -2.33170      -10.25610       -6.05810
C         -0.63720      -10.29560       -6.40610
C         -0.09440      -11.14900       -7.49860
C         -0.19280      -10.43350       -8.84810
C          0.03000       -9.42160       -5.60160
Cl         1.72850       -9.18510       -5.64890
C         -0.81100       -8.72210       -4.69360
Cl        -0.19150       -7.63780       -3.52080
C         -3.54990       -7.20400       -3.95440
C         -4.66190       -6.70900       -3.22720
C         -5.50710       -7.58890       -2.52840
C         -6.58120       -7.07970       -1.69290
S         -8.20900       -7.67070       -1.84000
C         -8.78870       -6.61180       -0.60130
C        -10.20870       -6.64380       -0.15490
C        -10.38250       -7.60670        1.02210
C         -7.76540       -5.86280       -0.10120
C         -6.51290       -6.12080       -0.71780
Cl        -5.06490       -5.34990       -0.20390
Cl        -7.95110       -4.70780        1.15270
C         -5.23600       -8.94450       -2.64710
S         -6.09830      -10.22970       -1.85100
C         -4.75510       -5.30160       -3.29880
C         -3.73520       -4.72040       -3.99720
S         -2.64270       -5.90530       -4.67500
C         -3.46300       -3.32030       -4.05520
C         -4.22680       -2.33660       -3.49410
C         -3.60160       -1.06960       -3.48170
C         -4.04740        0.10510       -2.84700
C         -5.32590        0.15890       -2.15920
S         -5.80220       -1.07290       -1.02300
C         -7.30420       -0.29190       -0.67540
C         -8.30420       -0.91190        0.23650
C         -9.28340       -1.78760       -0.54940
C         -7.41930        0.85360       -1.40490
Cl        -8.77990        1.89620       -1.33330
C         -6.30030        1.11680       -2.23970
Cl        -6.25440        2.45860       -3.30410
C         -3.16860        1.18170       -2.84070
C         -1.90360        1.14770       -3.48080
C         -1.48880       -0.00510       -4.17200
C         -0.19670       -0.07780       -4.83280
S          1.27600        0.34280       -4.00690
C          2.25440       -0.02890       -5.38660
C          3.73030        0.16180       -5.34930
C          4.09600        1.62320       -5.09010
C          1.47070       -0.45060       -6.41810
C          0.08380       -0.48720       -6.10670
Cl        -1.10340       -0.92050       -7.26340
Cl         2.07170       -0.90360       -7.96030
C         -2.34090       -1.10080       -4.12910
S         -1.96230       -2.70020       -4.70210
C         -1.16090        2.32740       -3.24150
C         -1.78780        3.20600       -2.40580
S         -3.38420        2.66020       -1.94930
C         -1.21200        4.37510       -1.82150
C          0.12140        4.66530       -1.77250
C          0.42320        5.79540       -0.97880
C          1.69770        6.27270       -0.61900
C          2.88380        5.80930       -1.31070
S          4.34920        5.37370       -0.48170
C          5.17210        5.00820       -1.95850
C          6.59760        4.58030       -1.97820
C          7.51910        5.77690       -2.22550
C          4.35330        5.23350       -3.02530
Cl         4.83050        5.00550       -4.65750
C          3.05670        5.68260       -2.66530
Cl         1.88270        6.10870       -3.84390
C          1.73930        7.20580        0.40910
C          0.57790        7.80090        0.96160
C         -0.69490        7.41450        0.50460
C         -1.91560        8.02430        1.00190
S         -2.25310        8.16260        2.70250
C         -3.79950        8.88540        2.41990
C         -4.65950        9.33430        3.54890
C         -4.26570       10.74020        4.00870
C         -4.02160        9.01790        1.08180
C         -2.96230        8.52280        0.27500
Cl        -2.98310        8.63200       -1.43460
Cl        -5.44240        9.70810        0.41230
C         -0.74010        6.37500       -0.41820
S         -2.17350        5.52970       -0.92890
C          0.89990        8.74610        1.96950
C          2.23330        8.82300        2.23260
S          3.18190        7.78860        1.18410
C          2.89950        9.57230        3.25100
S          2.22530       11.03890        3.90440
C          3.57230       11.24460        4.98140
C          4.45700       10.17660        4.87610
C          4.08000        9.26330        3.86550
C          5.58390        9.89550        5.75550
O          5.86500       10.46200        6.78440
C          3.61950       12.42680        5.79250
C          4.71200       13.13370        6.13740
C          6.06660       12.91610        5.71800
C          7.17590       13.22690        6.44570
C          8.39540       12.82690        5.83950
C          9.69640       12.90760        6.36090
C          9.93610       13.36250        7.71960
S         11.09180       14.60850        8.08340
C         10.79150       14.49560        9.78400
C         11.47680       15.39770       10.75000
C         10.78680       16.76210       10.81190
C          9.84680       13.54590       10.03590
Cl         9.29140       13.14550       11.60780
C          9.35930       12.89510        8.87000
Cl         8.22300       11.60470        8.92650
C         10.73140       12.48010        5.53530
C         10.51230       11.88960        4.26920
C          9.20200       11.72030        3.79080
C          8.91980       10.93320        2.60230
S          7.85980       11.48350        1.34040
C          8.00140        9.99710        0.46500
C          7.24230        9.75720       -0.79330
C          5.88880        9.10870       -0.49230
C          8.81550        9.13090        1.13220
C          9.34050        9.65690        2.34140
Cl        10.32570        8.72790        3.39780
Cl         9.18530        7.54870        0.58390
C          8.17980       12.25150        4.56520
S          6.48690       12.21020        4.16800
C         11.73780       11.52790        3.63830
C         12.81750       11.80570        4.39750
S         12.42830       12.52090        5.92300
H         -4.93140      -20.61040       -0.33160
H         -6.38830      -18.73490        0.73310
H         -8.67750      -13.63620        3.88960
H        -10.03130      -14.78310        3.92000
H         -8.67380      -14.93290        6.00410
H         -7.23760      -15.31630        5.04840
H         -8.59560      -16.44540        5.09550
H          0.33280      -14.80020       -5.49960
H          0.10100      -16.02720       -6.76180
H          1.31330      -16.54060       -4.00000
H          1.09520      -17.75250       -5.26630
H          2.22020      -16.41300       -5.51130
H         -3.74150      -13.69190       -3.58300
H         -3.26250      -11.41980       -3.77640
H          0.95100      -11.37490       -7.27990
H         -0.65550      -12.08440       -7.54170
H         -1.23050      -10.20350       -9.07770
H          0.37180       -9.50510       -8.82370
H          0.20780      -11.06510       -9.63620
H        -10.84100       -6.96290       -0.98420
H        -10.50760       -5.63850        0.14890
H        -11.42470       -7.63890        1.32790
H         -9.78160       -7.28000        1.86620
H        -10.06930       -8.60830        0.73920
H         -5.54190       -4.73960       -2.83430
H         -5.19430       -2.52250       -3.06990
H         -8.85420       -0.12070        0.74940
H         -7.78900       -1.52170        0.97990
H         -8.75020       -2.58630       -1.05980
H         -9.81200       -1.19210       -1.28910
H        -10.00910       -2.23160        0.12650
H          4.14320       -0.16370       -6.30530
H          4.15790       -0.46120       -4.55930
H          3.70690        1.94540       -4.12660
H          5.17580        1.74470       -5.08750
H          3.67750        2.26140       -5.86430
H         -0.18860        2.51130       -3.65690
H          0.87160        4.04230       -2.22180
H          6.85010        4.11490       -1.02490
H          6.73380        3.84620       -2.77530
H          7.27670        6.24990       -3.17360
H          8.55510        5.45040       -2.25300
H          7.40570        6.50770       -1.43000
H         -4.55780        8.63730        4.38250
H         -5.69930        9.33580        3.21730
H         -3.22960       10.75290        4.33900
H         -4.37970       11.44890        3.19250
H         -4.89920       11.05400        4.83380
H          0.16930        9.31940        2.51000
H          4.64790        8.38280        3.62100
H          6.18450        9.03340        5.40270
H          2.65490       12.78580        6.12850
H          4.58630       13.95680        6.82930
H          7.12310       13.69590        7.41120
H         11.45570       14.93140       11.73630
H         12.51650       15.53080       10.44640
H         10.79980       17.23520        9.83320
H          9.75370       16.64720       11.12970
H         11.29930       17.40780       11.51970
H          7.82820        9.10020       -1.43960
H          7.08560       10.70590       -1.30800
H          5.28790        9.76510        0.13210
H          6.02450        8.16680        0.03320
H          5.35010        8.91550       -1.41590
H         11.79250       11.09880        2.65470
H         13.84980       11.63830        4.15950
