
  xtb     03042220493D
 energy: -399.020035503188 gnorm: 0.000253148274 xtb: 6.4.1 (unknown)
228249  0     0  0            999 V2000
    1.4174   -1.7684    7.6536 C   0  0  0  0  0  0  0  0  0  0  0  0
    1.7736   -1.1811    6.4933 C   0  0  0  0  0  0  0  0  0  0  0  0
    0.9314   -1.5457    5.3996 C   0  0  0  0  0  0  0  0  0  0  0  0
    1.0118   -1.1129    4.0628 C   0  0  0  0  0  0  0  0  0  0  0  0
    1.9526   -0.0553    3.6771 C   0  0  0  0  0  0  0  0  0  0  0  0
    2.0780    1.0886    4.4626 C   0  0  0  0  0  0  0  0  0  0  0  0
    2.9390    2.1118    4.1196 C   0  0  0  0  0  0  0  0  0  0  0  0
    3.7089    2.0355    2.9651 C   0  0  0  0  0  0  0  0  0  0  0  0
    4.8001    3.2865    2.3794 S   0  0  0  0  0  0  0  0  0  0  0  0
    4.6085    4.6605    3.5647 C   0  0  0  0  0  0  0  0  0  0  0  0
    5.4397    4.4772    4.8189 C   0  0  0  0  0  0  0  0  0  0  0  0
    3.5868    0.8769    2.1943 C   0  0  0  0  0  0  0  0  0  0  0  0
    4.3400    0.7479    1.0818 F   0  0  0  0  0  0  0  0  0  0  0  0
    2.7312   -0.1486    2.5248 C   0  0  0  0  0  0  0  0  0  0  0  0
    0.1413   -1.7203    3.1651 C   0  0  0  0  0  0  0  0  0  0  0  0
   -0.8360   -2.6617    3.5728 C   0  0  0  0  0  0  0  0  0  0  0  0
   -0.9725   -3.0319    4.9210 C   0  0  0  0  0  0  0  0  0  0  0  0
   -2.0349   -3.9560    5.3283 C   0  0  0  0  0  0  0  0  0  0  0  0
   -3.3396   -3.7706    4.8674 C   0  0  0  0  0  0  0  0  0  0  0  0
   -4.3389   -4.6604    5.1866 C   0  0  0  0  0  0  0  0  0  0  0  0
   -4.0853   -5.7699    5.9954 C   0  0  0  0  0  0  0  0  0  0  0  0
   -5.4588   -6.8207    6.3391 S   0  0  0  0  0  0  0  0  0  0  0  0
   -4.7153   -8.4687    6.6727 C   0  0  0  0  0  0  0  0  0  0  0  0
   -5.7826   -9.5289    6.4828 C   0  0  0  0  0  0  0  0  0  0  0  0
   -2.7919   -5.9183    6.4876 C   0  0  0  0  0  0  0  0  0  0  0  0
   -1.7766   -5.0434    6.1547 C   0  0  0  0  0  0  0  0  0  0  0  0
   -2.4696   -6.9430    7.3127 F   0  0  0  0  0  0  0  0  0  0  0  0
   -0.0530   -2.4811    5.8012 C   0  0  0  0  0  0  0  0  0  0  0  0
    0.0457   -2.8103    7.5113 S   0  0  0  0  0  0  0  0  0  0  0  0
   -1.5582   -3.1866    2.4751 C   0  0  0  0  0  0  0  0  0  0  0  0
   -1.1876   -2.6720    1.2693 C   0  0  0  0  0  0  0  0  0  0  0  0
    0.0756   -1.4668    1.4317 S   0  0  0  0  0  0  0  0  0  0  0  0
   -1.6740   -3.1256    0.0075 C   0  0  0  0  0  0  0  0  0  0  0  0
   -2.8893   -4.3803   -0.0004 S   0  0  0  0  0  0  0  0  0  0  0  0
   -2.8437   -4.5306   -1.7233 C   0  0  0  0  0  0  0  0  0  0  0  0
   -1.9447   -3.5962   -2.2541 C   0  0  0  0  0  0  0  0  0  0  0  0
   -1.3032   -2.8106   -1.2688 C   0  0  0  0  0  0  0  0  0  0  0  0
   -1.7056   -3.3881   -3.6698 C   0  0  0  0  0  0  0  0  0  0  0  0
   -1.1432   -2.4289   -4.1460 O   0  0  0  0  0  0  0  0  0  0  0  0
   -3.5477   -5.5193   -2.4762 C   0  0  0  0  0  0  0  0  0  0  0  0
   -4.6732   -6.2454   -2.2730 C   0  0  0  0  0  0  0  0  0  0  0  0
   -5.6883   -6.2333   -1.2672 C   0  0  0  0  0  0  0  0  0  0  0  0
   -7.2023   -7.0160   -1.7143 S   0  0  0  0  0  0  0  0  0  0  0  0
   -7.9697   -6.5309   -0.2510 C   0  0  0  0  0  0  0  0  0  0  0  0
   -7.0764   -5.8637    0.5703 C   0  0  0  0  0  0  0  0  0  0  0  0
   -5.7994   -5.7017   -0.0130 C   0  0  0  0  0  0  0  0  0  0  0  0
   -7.3830   -5.3902    1.9137 C   0  0  0  0  0  0  0  0  0  0  0  0
   -6.6450   -4.7161    2.5900 O   0  0  0  0  0  0  0  0  0  0  0  0
   -9.4191   -6.6171   -0.0801 C   0  0  0  0  0  0  0  0  0  0  0  0
  -10.1504   -5.4996   -0.0977 C   0  0  0  0  0  0  0  0  0  0  0  0
   -9.4542   -4.2320   -0.3326 C   0  0  0  0  0  0  0  0  0  0  0  0
   -8.9262   -3.3821    0.5779 C   0  0  0  0  0  0  0  0  0  0  0  0
   -7.9020   -2.5416    0.0478 C   0  0  0  0  0  0  0  0  0  0  0  0
   -7.0005   -1.7461    0.7717 C   0  0  0  0  0  0  0  0  0  0  0  0
   -7.2260   -1.4686    2.1926 C   0  0  0  0  0  0  0  0  0  0  0  0
   -8.4858   -1.0613    2.6335 C   0  0  0  0  0  0  0  0  0  0  0  0
   -8.7087   -0.7823    3.9631 C   0  0  0  0  0  0  0  0  0  0  0  0
   -7.6935   -0.9052    4.9118 C   0  0  0  0  0  0  0  0  0  0  0  0
   -8.1396   -0.5765    6.5889 S   0  0  0  0  0  0  0  0  0  0  0  0
   -6.6442    0.1483    7.3555 C   0  0  0  0  0  0  0  0  0  0  0  0
   -6.1916    1.4069    6.6431 C   0  0  0  0  0  0  0  0  0  0  0  0
   -6.4474   -1.3278    4.4593 C   0  0  0  0  0  0  0  0  0  0  0  0
   -5.4181   -1.4875    5.3201 F   0  0  0  0  0  0  0  0  0  0  0  0
   -6.2053   -1.5938    3.1269 C   0  0  0  0  0  0  0  0  0  0  0  0
   -5.9016   -1.2663    0.0702 C   0  0  0  0  0  0  0  0  0  0  0  0
   -5.7252   -1.4732   -1.3206 C   0  0  0  0  0  0  0  0  0  0  0  0
   -6.6594   -2.2207   -2.0549 C   0  0  0  0  0  0  0  0  0  0  0  0
   -6.4758   -2.4756   -3.4893 C   0  0  0  0  0  0  0  0  0  0  0  0
   -5.2674   -2.9817   -3.9628 C   0  0  0  0  0  0  0  0  0  0  0  0
   -5.0738   -3.2033   -5.3095 C   0  0  0  0  0  0  0  0  0  0  0  0
   -6.0735   -2.9194   -6.2313 C   0  0  0  0  0  0  0  0  0  0  0  0
   -5.7629   -3.2269   -7.9531 S   0  0  0  0  0  0  0  0  0  0  0  0
   -5.9940   -1.5473   -8.6431 C   0  0  0  0  0  0  0  0  0  0  0  0
   -4.9453   -0.5842   -8.1229 C   0  0  0  0  0  0  0  0  0  0  0  0
   -7.2863   -2.4411   -5.7462 C   0  0  0  0  0  0  0  0  0  0  0  0
   -7.4963   -2.2188   -4.3992 C   0  0  0  0  0  0  0  0  0  0  0  0
   -8.2952   -2.1683   -6.5974 F   0  0  0  0  0  0  0  0  0  0  0  0
   -7.7113   -2.7616   -1.3353 C   0  0  0  0  0  0  0  0  0  0  0  0
   -8.8412   -3.9365   -1.9531 S   0  0  0  0  0  0  0  0  0  0  0  0
   -4.5467   -0.8567   -1.8054 C   0  0  0  0  0  0  0  0  0  0  0  0
   -3.8188   -0.2297   -0.8380 C   0  0  0  0  0  0  0  0  0  0  0  0
   -4.5780   -0.3412    0.7344 S   0  0  0  0  0  0  0  0  0  0  0  0
   -2.5467    0.3902   -1.0225 C   0  0  0  0  0  0  0  0  0  0  0  0
   -1.7642    0.2846   -2.1335 C   0  0  0  0  0  0  0  0  0  0  0  0
   -0.5057    0.9171   -1.9999 C   0  0  0  0  0  0  0  0  0  0  0  0
    0.5165    0.9567   -2.9621 C   0  0  0  0  0  0  0  0  0  0  0  0
    0.2480    0.4445   -4.3105 C   0  0  0  0  0  0  0  0  0  0  0  0
   -0.8851    0.8886   -4.9923 C   0  0  0  0  0  0  0  0  0  0  0  0
   -1.2373    0.3400   -6.2051 C   0  0  0  0  0  0  0  0  0  0  0  0
   -0.4730   -0.6719   -6.7748 C   0  0  0  0  0  0  0  0  0  0  0  0
   -1.0378   -1.4152   -8.2768 S   0  0  0  0  0  0  0  0  0  0  0  0
   -0.8274   -3.1993   -7.8796 C   0  0  0  0  0  0  0  0  0  0  0  0
   -1.9237   -4.0020   -8.5513 C   0  0  0  0  0  0  0  0  0  0  0  0
    0.6949   -1.0529   -6.1231 C   0  0  0  0  0  0  0  0  0  0  0  0
    1.5012   -1.9886   -6.6670 F   0  0  0  0  0  0  0  0  0  0  0  0
    1.0593   -0.5122   -4.9066 C   0  0  0  0  0  0  0  0  0  0  0  0
    1.7230    1.4949   -2.5522 C   0  0  0  0  0  0  0  0  0  0  0  0
    1.9099    2.0904   -1.2770 C   0  0  0  0  0  0  0  0  0  0  0  0
    0.8399    2.1651   -0.3643 C   0  0  0  0  0  0  0  0  0  0  0  0
    0.9200    2.9688    0.8568 C   0  0  0  0  0  0  0  0  0  0  0  0
    0.3523    2.5468    2.0571 C   0  0  0  0  0  0  0  0  0  0  0  0
    0.3496    3.3701    3.1626 C   0  0  0  0  0  0  0  0  0  0  0  0
    0.9333    4.6318    3.1249 C   0  0  0  0  0  0  0  0  0  0  0  0
    0.9748    5.5767    4.6272 S   0  0  0  0  0  0  0  0  0  0  0  0
    0.4467    7.2430    4.0874 C   0  0  0  0  0  0  0  0  0  0  0  0
   -0.9241    7.2154    3.4431 C   0  0  0  0  0  0  0  0  0  0  0  0
    1.5219    5.0331    1.9299 C   0  0  0  0  0  0  0  0  0  0  0  0
    1.5023    4.2345    0.8074 C   0  0  0  0  0  0  0  0  0  0  0  0
    2.1308    6.2366    1.8343 F   0  0  0  0  0  0  0  0  0  0  0  0
   -0.3309    1.5097   -0.7271 C   0  0  0  0  0  0  0  0  0  0  0  0
   -1.7733    1.3239    0.2406 S   0  0  0  0  0  0  0  0  0  0  0  0
    3.2482    2.5262   -1.0988 C   0  0  0  0  0  0  0  0  0  0  0  0
    4.0428    2.3088   -2.1836 C   0  0  0  0  0  0  0  0  0  0  0  0
    3.1722    1.5704   -3.5139 S   0  0  0  0  0  0  0  0  0  0  0  0
    5.4369    2.5759   -2.3309 C   0  0  0  0  0  0  0  0  0  0  0  0
    6.1479    2.5829   -3.4930 C   0  0  0  0  0  0  0  0  0  0  0  0
    7.5257    2.8633   -3.3134 C   0  0  0  0  0  0  0  0  0  0  0  0
    8.5206    2.9482   -4.2997 C   0  0  0  0  0  0  0  0  0  0  0  0
    8.2272    2.6516   -5.7067 C   0  0  0  0  0  0  0  0  0  0  0  0
    8.5949    3.5252   -6.7284 C   0  0  0  0  0  0  0  0  0  0  0  0
    8.3048    3.2292   -8.0423 C   0  0  0  0  0  0  0  0  0  0  0  0
    7.6562    2.0461   -8.3970 C   0  0  0  0  0  0  0  0  0  0  0  0
    7.3760    1.7692  -10.1165 S   0  0  0  0  0  0  0  0  0  0  0  0
    5.8513    0.7433  -10.1678 C   0  0  0  0  0  0  0  0  0  0  0  0
    5.2028    0.9021  -11.5287 C   0  0  0  0  0  0  0  0  0  0  0  0
    7.3282    1.1664   -7.3692 C   0  0  0  0  0  0  0  0  0  0  0  0
    6.7511   -0.0281   -7.6313 F   0  0  0  0  0  0  0  0  0  0  0  0
    7.5880    1.4635   -6.0471 C   0  0  0  0  0  0  0  0  0  0  0  0
    9.7925    3.2964   -3.8689 C   0  0  0  0  0  0  0  0  0  0  0  0
   10.1213    3.4785   -2.5044 C   0  0  0  0  0  0  0  0  0  0  0  0
    9.1384    3.3337   -1.5128 C   0  0  0  0  0  0  0  0  0  0  0  0
    9.4885    3.3759   -0.0883 C   0  0  0  0  0  0  0  0  0  0  0  0
   10.5647    2.6218    0.3820 C   0  0  0  0  0  0  0  0  0  0  0  0
   10.8924    2.6177    1.7194 C   0  0  0  0  0  0  0  0  0  0  0  0
   10.1686    3.3703    2.6422 C   0  0  0  0  0  0  0  0  0  0  0  0
   10.7065    3.3263    4.3249 S   0  0  0  0  0  0  0  0  0  0  0  0
    9.1306    3.3933    5.2684 C   0  0  0  0  0  0  0  0  0  0  0  0
    9.3256    2.7203    6.6124 C   0  0  0  0  0  0  0  0  0  0  0  0
    9.1090    4.1303    2.1577 C   0  0  0  0  0  0  0  0  0  0  0  0
    8.7559    4.1276    0.8234 C   0  0  0  0  0  0  0  0  0  0  0  0
    8.3904    4.9180    2.9911 F   0  0  0  0  0  0  0  0  0  0  0  0
    7.8448    3.0782   -1.9489 C   0  0  0  0  0  0  0  0  0  0  0  0
    6.4351    2.9135   -0.9337 S   0  0  0  0  0  0  0  0  0  0  0  0
   11.4976    3.8206   -2.3399 C   0  0  0  0  0  0  0  0  0  0  0  0
   12.1717    3.8645   -3.5062 C   0  0  0  0  0  0  0  0  0  0  0  0
   11.1952    3.4990   -4.8876 S   0  0  0  0  0  0  0  0  0  0  0  0
    1.8857   -1.6671    8.6131 H   0  0  0  0  0  0  0  0  0  0  0  0
    2.6236   -0.5309    6.3962 H   0  0  0  0  0  0  0  0  0  0  0  0
    1.4663    1.1989    5.3447 H   0  0  0  0  0  0  0  0  0  0  0  0
    2.9885    2.9781    4.7581 H   0  0  0  0  0  0  0  0  0  0  0  0
    3.5499    4.7741    3.7863 H   0  0  0  0  0  0  0  0  0  0  0  0
    4.9465    5.5324    3.0050 H   0  0  0  0  0  0  0  0  0  0  0  0
    5.2029    3.5394    5.3173 H   0  0  0  0  0  0  0  0  0  0  0  0
    5.2437    5.2962    5.5081 H   0  0  0  0  0  0  0  0  0  0  0  0
    6.4957    4.4810    4.5681 H   0  0  0  0  0  0  0  0  0  0  0  0
    2.6975   -1.0210    1.8920 H   0  0  0  0  0  0  0  0  0  0  0  0
   -3.5679   -2.9055    4.2671 H   0  0  0  0  0  0  0  0  0  0  0  0
   -5.3362   -4.5207    4.7991 H   0  0  0  0  0  0  0  0  0  0  0  0
   -4.3319   -8.4765    7.6916 H   0  0  0  0  0  0  0  0  0  0  0  0
   -3.8963   -8.6049    5.9681 H   0  0  0  0  0  0  0  0  0  0  0  0
   -5.3604  -10.5134    6.6724 H   0  0  0  0  0  0  0  0  0  0  0  0
   -6.1705   -9.5027    5.4668 H   0  0  0  0  0  0  0  0  0  0  0  0
   -6.6085   -9.3650    7.1711 H   0  0  0  0  0  0  0  0  0  0  0  0
   -0.7873   -5.2361    6.5389 H   0  0  0  0  0  0  0  0  0  0  0  0
   -2.2993   -3.9601    2.5724 H   0  0  0  0  0  0  0  0  0  0  0  0
   -0.5698   -2.0631   -1.5127 H   0  0  0  0  0  0  0  0  0  0  0  0
   -2.0953   -4.1874   -4.3299 H   0  0  0  0  0  0  0  0  0  0  0  0
   -3.0717   -5.7118   -3.4311 H   0  0  0  0  0  0  0  0  0  0  0  0
   -4.9208   -6.9205   -3.0845 H   0  0  0  0  0  0  0  0  0  0  0  0
   -5.0175   -5.2061    0.5249 H   0  0  0  0  0  0  0  0  0  0  0  0
   -8.3658   -5.7289    2.2954 H   0  0  0  0  0  0  0  0  0  0  0  0
   -9.8713   -7.5938    0.0140 H   0  0  0  0  0  0  0  0  0  0  0  0
  -11.2234   -5.5158    0.0218 H   0  0  0  0  0  0  0  0  0  0  0  0
   -9.1827   -3.4025    1.6216 H   0  0  0  0  0  0  0  0  0  0  0  0
   -9.2853   -0.9337    1.9193 H   0  0  0  0  0  0  0  0  0  0  0  0
   -9.6819   -0.4583    4.2980 H   0  0  0  0  0  0  0  0  0  0  0  0
   -5.8617   -0.6062    7.3929 H   0  0  0  0  0  0  0  0  0  0  0  0
   -6.9733    0.3693    8.3711 H   0  0  0  0  0  0  0  0  0  0  0  0
   -5.3551    1.8496    7.1802 H   0  0  0  0  0  0  0  0  0  0  0  0
   -5.8674    1.1851    5.6283 H   0  0  0  0  0  0  0  0  0  0  0  0
   -7.0017    2.1318    6.5972 H   0  0  0  0  0  0  0  0  0  0  0  0
   -5.2277   -1.9411    2.8346 H   0  0  0  0  0  0  0  0  0  0  0  0
   -4.4810   -3.2098   -3.2626 H   0  0  0  0  0  0  0  0  0  0  0  0
   -4.1346   -3.5888   -5.6738 H   0  0  0  0  0  0  0  0  0  0  0  0
   -7.0058   -1.2192   -8.4115 H   0  0  0  0  0  0  0  0  0  0  0  0
   -5.9018   -1.6884   -9.7192 H   0  0  0  0  0  0  0  0  0  0  0  0
   -5.0877    0.3934   -8.5794 H   0  0  0  0  0  0  0  0  0  0  0  0
   -5.0232   -0.4765   -7.0414 H   0  0  0  0  0  0  0  0  0  0  0  0
   -3.9452   -0.9382   -8.3657 H   0  0  0  0  0  0  0  0  0  0  0  0
   -8.4508   -1.8349   -4.0736 H   0  0  0  0  0  0  0  0  0  0  0  0
   -4.2582   -0.8677   -2.8399 H   0  0  0  0  0  0  0  0  0  0  0  0
   -2.0372   -0.2766   -3.0076 H   0  0  0  0  0  0  0  0  0  0  0  0
   -1.4983    1.6630   -4.5555 H   0  0  0  0  0  0  0  0  0  0  0  0
   -2.1282    0.6662   -6.7197 H   0  0  0  0  0  0  0  0  0  0  0  0
    0.1590   -3.5091   -8.2234 H   0  0  0  0  0  0  0  0  0  0  0  0
   -0.8795   -3.2779   -6.7947 H   0  0  0  0  0  0  0  0  0  0  0  0
   -1.8022   -5.0582   -8.3183 H   0  0  0  0  0  0  0  0  0  0  0  0
   -2.9063   -3.6806   -8.2126 H   0  0  0  0  0  0  0  0  0  0  0  0
   -1.8784   -3.8794   -9.6310 H   0  0  0  0  0  0  0  0  0  0  0  0
    1.9524   -0.8721   -4.4208 H   0  0  0  0  0  0  0  0  0  0  0  0
   -0.0723    1.5594    2.1354 H   0  0  0  0  0  0  0  0  0  0  0  0
   -0.1055    3.0433    4.0839 H   0  0  0  0  0  0  0  0  0  0  0  0
    0.4386    7.8190    5.0128 H   0  0  0  0  0  0  0  0  0  0  0  0
    1.2031    7.6520    3.4210 H   0  0  0  0  0  0  0  0  0  0  0  0
   -1.2337    8.2295    3.1985 H   0  0  0  0  0  0  0  0  0  0  0  0
   -0.9095    6.6287    2.5258 H   0  0  0  0  0  0  0  0  0  0  0  0
   -1.6567    6.7795    4.1195 H   0  0  0  0  0  0  0  0  0  0  0  0
    1.9345    4.6150   -0.1045 H   0  0  0  0  0  0  0  0  0  0  0  0
    3.6307    2.9506   -0.1883 H   0  0  0  0  0  0  0  0  0  0  0  0
    5.6925    2.4160   -4.4529 H   0  0  0  0  0  0  0  0  0  0  0  0
    9.0853    4.4554   -6.4873 H   0  0  0  0  0  0  0  0  0  0  0  0
    8.5767    3.9156   -8.8289 H   0  0  0  0  0  0  0  0  0  0  0  0
    5.1951    1.0994   -9.3753 H   0  0  0  0  0  0  0  0  0  0  0  0
    6.1263   -0.2938   -9.9821 H   0  0  0  0  0  0  0  0  0  0  0  0
    4.2945    0.3050  -11.5722 H   0  0  0  0  0  0  0  0  0  0  0  0
    5.8776    0.5696  -12.3144 H   0  0  0  0  0  0  0  0  0  0  0  0
    4.9470    1.9434  -11.7119 H   0  0  0  0  0  0  0  0  0  0  0  0
    7.3208    0.7399   -5.2924 H   0  0  0  0  0  0  0  0  0  0  0  0
   11.1253    2.0080   -0.3063 H   0  0  0  0  0  0  0  0  0  0  0  0
   11.7181    2.0238    2.0794 H   0  0  0  0  0  0  0  0  0  0  0  0
    8.3833    2.8708    4.6728 H   0  0  0  0  0  0  0  0  0  0  0  0
    8.8503    4.4388    5.3915 H   0  0  0  0  0  0  0  0  0  0  0  0
    9.6211    1.6820    6.4802 H   0  0  0  0  0  0  0  0  0  0  0  0
   10.0984    3.2284    7.1846 H   0  0  0  0  0  0  0  0  0  0  0  0
    8.3957    2.7520    7.1766 H   0  0  0  0  0  0  0  0  0  0  0  0
    7.9265    4.7398    0.5067 H   0  0  0  0  0  0  0  0  0  0  0  0
   11.9413    4.0424   -1.3862 H   0  0  0  0  0  0  0  0  0  0  0  0
   13.2065    4.1003   -3.6607 H   0  0  0  0  0  0  0  0  0  0  0  0
  1  2  2  0  0  0  0
  2  3  1  0  0  0  0
  3  4  2  0  0  0  0
  4  5  1  0  0  0  0
  5  6  2  0  0  0  0
  6  7  1  0  0  0  0
  7  8  2  0  0  0  0
  8  9  1  0  0  0  0
  9 10  1  0  0  0  0
 10 11  1  0  0  0  0
  8 12  1  0  0  0  0
 12 13  1  0  0  0  0
 12 14  2  0  0  0  0
  4 15  1  0  0  0  0
 15 16  2  0  0  0  0
 16 17  1  0  0  0  0
 17 18  1  0  0  0  0
 18 19  2  0  0  0  0
 19 20  1  0  0  0  0
 20 21  2  0  0  0  0
 21 22  1  0  0  0  0
 22 23  1  0  0  0  0
 23 24  1  0  0  0  0
 21 25  1  0  0  0  0
 25 26  2  0  0  0  0
 25 27  1  0  0  0  0
 17 28  2  0  0  0  0
 28 29  1  0  0  0  0
 16 30  1  0  0  0  0
 30 31  2  0  0  0  0
 31 32  1  0  0  0  0
 31 33  1  0  0  0  0
 33 34  1  0  0  0  0
 34 35  1  0  0  0  0
 35 36  2  0  0  0  0
 36 37  1  0  0  0  0
 36 38  1  0  0  0  0
 38 39  2  0  0  0  0
 35 40  1  0  0  0  0
 40 41  2  0  0  0  0
 41 42  1  0  0  0  0
 42 43  1  0  0  0  0
 43 44  1  0  0  0  0
 44 45  2  0  0  0  0
 45 46  1  0  0  0  0
 45 47  1  0  0  0  0
 47 48  2  0  0  0  0
 44 49  1  0  0  0  0
 49 50  2  0  0  0  0
 50 51  1  0  0  0  0
 51 52  2  0  0  0  0
 52 53  1  0  0  0  0
 53 54  2  0  0  0  0
 54 55  1  0  0  0  0
 55 56  2  0  0  0  0
 56 57  1  0  0  0  0
 57 58  2  0  0  0  0
 58 59  1  0  0  0  0
 59 60  1  0  0  0  0
 60 61  1  0  0  0  0
 58 62  1  0  0  0  0
 62 63  1  0  0  0  0
 62 64  2  0  0  0  0
 54 65  1  0  0  0  0
 65 66  2  0  0  0  0
 66 67  1  0  0  0  0
 67 68  1  0  0  0  0
 68 69  2  0  0  0  0
 69 70  1  0  0  0  0
 70 71  2  0  0  0  0
 71 72  1  0  0  0  0
 72 73  1  0  0  0  0
 73 74  1  0  0  0  0
 71 75  1  0  0  0  0
 75 76  2  0  0  0  0
 75 77  1  0  0  0  0
 67 78  2  0  0  0  0
 78 79  1  0  0  0  0
 66 80  1  0  0  0  0
 80 81  2  0  0  0  0
 81 82  1  0  0  0  0
 81 83  1  0  0  0  0
 83 84  2  0  0  0  0
 84 85  1  0  0  0  0
 85 86  2  0  0  0  0
 86 87  1  0  0  0  0
 87 88  2  0  0  0  0
 88 89  1  0  0  0  0
 89 90  2  0  0  0  0
 90 91  1  0  0  0  0
 91 92  1  0  0  0  0
 92 93  1  0  0  0  0
 90 94  1  0  0  0  0
 94 95  1  0  0  0  0
 94 96  2  0  0  0  0
 86 97  1  0  0  0  0
 97 98  2  0  0  0  0
 98 99  1  0  0  0  0
 99100  1  0  0  0  0
100101  2  0  0  0  0
101102  1  0  0  0  0
102103  2  0  0  0  0
103104  1  0  0  0  0
104105  1  0  0  0  0
105106  1  0  0  0  0
103107  1  0  0  0  0
107108  2  0  0  0  0
107109  1  0  0  0  0
 99110  2  0  0  0  0
110111  1  0  0  0  0
 98112  1  0  0  0  0
112113  2  0  0  0  0
113114  1  0  0  0  0
113115  1  0  0  0  0
115116  2  0  0  0  0
116117  1  0  0  0  0
117118  2  0  0  0  0
118119  1  0  0  0  0
119120  2  0  0  0  0
120121  1  0  0  0  0
121122  2  0  0  0  0
122123  1  0  0  0  0
123124  1  0  0  0  0
124125  1  0  0  0  0
122126  1  0  0  0  0
126127  1  0  0  0  0
126128  2  0  0  0  0
118129  1  0  0  0  0
129130  2  0  0  0  0
130131  1  0  0  0  0
131132  1  0  0  0  0
132133  2  0  0  0  0
133134  1  0  0  0  0
134135  2  0  0  0  0
135136  1  0  0  0  0
136137  1  0  0  0  0
137138  1  0  0  0  0
135139  1  0  0  0  0
139140  2  0  0  0  0
139141  1  0  0  0  0
131142  2  0  0  0  0
142143  1  0  0  0  0
130144  1  0  0  0  0
144145  2  0  0  0  0
145146  1  0  0  0  0
 29  1  1  0  0  0  0
 37 33  2  0  0  0  0
 46 42  2  0  0  0  0
 79 51  1  0  0  0  0
111 83  1  0  0  0  0
143115  1  0  0  0  0
 28  3  1  0  0  0  0
 78 53  1  0  0  0  0
110 85  1  0  0  0  0
142117  1  0  0  0  0
 14  5  1  0  0  0  0
 32 15  1  0  0  0  0
 64 55  1  0  0  0  0
 82 65  1  0  0  0  0
 96 87  1  0  0  0  0
114 97  1  0  0  0  0
128119  1  0  0  0  0
146129  1  0  0  0  0
 26 18  1  0  0  0  0
 76 68  1  0  0  0  0
108100  1  0  0  0  0
140132  1  0  0  0  0
  1147  1  0  0  0  0
  2148  1  0  0  0  0
  6149  1  0  0  0  0
  7150  1  0  0  0  0
 10151  1  0  0  0  0
 10152  1  0  0  0  0
 11153  1  0  0  0  0
 11154  1  0  0  0  0
 11155  1  0  0  0  0
 14156  1  0  0  0  0
 19157  1  0  0  0  0
 20158  1  0  0  0  0
 23159  1  0  0  0  0
 23160  1  0  0  0  0
 24161  1  0  0  0  0
 24162  1  0  0  0  0
 24163  1  0  0  0  0
 26164  1  0  0  0  0
 30165  1  0  0  0  0
 37166  1  0  0  0  0
 38167  1  0  0  0  0
 40168  1  0  0  0  0
 41169  1  0  0  0  0
 46170  1  0  0  0  0
 47171  1  0  0  0  0
 49172  1  0  0  0  0
 50173  1  0  0  0  0
 52174  1  0  0  0  0
 56175  1  0  0  0  0
 57176  1  0  0  0  0
 60177  1  0  0  0  0
 60178  1  0  0  0  0
 61179  1  0  0  0  0
 61180  1  0  0  0  0
 61181  1  0  0  0  0
 64182  1  0  0  0  0
 69183  1  0  0  0  0
 70184  1  0  0  0  0
 73185  1  0  0  0  0
 73186  1  0  0  0  0
 74187  1  0  0  0  0
 74188  1  0  0  0  0
 74189  1  0  0  0  0
 76190  1  0  0  0  0
 80191  1  0  0  0  0
 84192  1  0  0  0  0
 88193  1  0  0  0  0
 89194  1  0  0  0  0
 92195  1  0  0  0  0
 92196  1  0  0  0  0
 93197  1  0  0  0  0
 93198  1  0  0  0  0
 93199  1  0  0  0  0
 96200  1  0  0  0  0
101201  1  0  0  0  0
102202  1  0  0  0  0
105203  1  0  0  0  0
105204  1  0  0  0  0
106205  1  0  0  0  0
106206  1  0  0  0  0
106207  1  0  0  0  0
108208  1  0  0  0  0
112209  1  0  0  0  0
116210  1  0  0  0  0
120211  1  0  0  0  0
121212  1  0  0  0  0
124213  1  0  0  0  0
124214  1  0  0  0  0
125215  1  0  0  0  0
125216  1  0  0  0  0
125217  1  0  0  0  0
128218  1  0  0  0  0
133219  1  0  0  0  0
134220  1  0  0  0  0
137221  1  0  0  0  0
137222  1  0  0  0  0
138223  1  0  0  0  0
138224  1  0  0  0  0
138225  1  0  0  0  0
140226  1  0  0  0  0
144227  1  0  0  0  0
145228  1  0  0  0  0
M  END
