228

C          1.41740       -1.76840        7.65360
C          1.77360       -1.18110        6.49330
C          0.93140       -1.54570        5.39960
C          1.01180       -1.11290        4.06280
C          1.95260       -0.05530        3.67710
C          2.07800        1.08860        4.46260
C          2.93900        2.11180        4.11960
C          3.70890        2.03550        2.96510
S          4.80010        3.28650        2.37940
C          4.60850        4.66050        3.56470
C          5.43970        4.47720        4.81890
C          3.58680        0.87690        2.19430
F          4.34000        0.74790        1.08180
C          2.73120       -0.14860        2.52480
C          0.14130       -1.72030        3.16510
C         -0.83600       -2.66170        3.57280
C         -0.97250       -3.03190        4.92100
C         -2.03490       -3.95600        5.32830
C         -3.33960       -3.77060        4.86740
C         -4.33890       -4.66040        5.18660
C         -4.08530       -5.76990        5.99540
S         -5.45880       -6.82070        6.33910
C         -4.71530       -8.46870        6.67270
C         -5.78260       -9.52890        6.48280
C         -2.79190       -5.91830        6.48760
C         -1.77660       -5.04340        6.15470
F         -2.46960       -6.94300        7.31270
C         -0.05300       -2.48110        5.80120
S          0.04570       -2.81030        7.51130
C         -1.55820       -3.18660        2.47510
C         -1.18760       -2.67200        1.26930
S          0.07560       -1.46680        1.43170
C         -1.67400       -3.12560        0.00750
S         -2.88930       -4.38030       -0.00040
C         -2.84370       -4.53060       -1.72330
C         -1.94470       -3.59620       -2.25410
C         -1.30320       -2.81060       -1.26880
C         -1.70560       -3.38810       -3.66980
O         -1.14320       -2.42890       -4.14600
C         -3.54770       -5.51930       -2.47620
C         -4.67320       -6.24540       -2.27300
C         -5.68830       -6.23330       -1.26720
S         -7.20230       -7.01600       -1.71430
C         -7.96970       -6.53090       -0.25100
C         -7.07640       -5.86370        0.57030
C         -5.79940       -5.70170       -0.01300
C         -7.38300       -5.39020        1.91370
O         -6.64500       -4.71610        2.59000
C         -9.41910       -6.61710       -0.08010
C        -10.15040       -5.49960       -0.09770
C         -9.45420       -4.23200       -0.33260
C         -8.92620       -3.38210        0.57790
C         -7.90200       -2.54160        0.04780
C         -7.00050       -1.74610        0.77170
C         -7.22600       -1.46860        2.19260
C         -8.48580       -1.06130        2.63350
C         -8.70870       -0.78230        3.96310
C         -7.69350       -0.90520        4.91180
S         -8.13960       -0.57650        6.58890
C         -6.64420        0.14830        7.35550
C         -6.19160        1.40690        6.64310
C         -6.44740       -1.32780        4.45930
F         -5.41810       -1.48750        5.32010
C         -6.20530       -1.59380        3.12690
C         -5.90160       -1.26630        0.07020
C         -5.72520       -1.47320       -1.32060
C         -6.65940       -2.22070       -2.05490
C         -6.47580       -2.47560       -3.48930
C         -5.26740       -2.98170       -3.96280
C         -5.07380       -3.20330       -5.30950
C         -6.07350       -2.91940       -6.23130
S         -5.76290       -3.22690       -7.95310
C         -5.99400       -1.54730       -8.64310
C         -4.94530       -0.58420       -8.12290
C         -7.28630       -2.44110       -5.74620
C         -7.49630       -2.21880       -4.39920
F         -8.29520       -2.16830       -6.59740
C         -7.71130       -2.76160       -1.33530
S         -8.84120       -3.93650       -1.95310
C         -4.54670       -0.85670       -1.80540
C         -3.81880       -0.22970       -0.83800
S         -4.57800       -0.34120        0.73440
C         -2.54670        0.39020       -1.02250
C         -1.76420        0.28460       -2.13350
C         -0.50570        0.91710       -1.99990
C          0.51650        0.95670       -2.96210
C          0.24800        0.44450       -4.31050
C         -0.88510        0.88860       -4.99230
C         -1.23730        0.34000       -6.20510
C         -0.47300       -0.67190       -6.77480
S         -1.03780       -1.41520       -8.27680
C         -0.82740       -3.19930       -7.87960
C         -1.92370       -4.00200       -8.55130
C          0.69490       -1.05290       -6.12310
F          1.50120       -1.98860       -6.66700
C          1.05930       -0.51220       -4.90660
C          1.72300        1.49490       -2.55220
C          1.90990        2.09040       -1.27700
C          0.83990        2.16510       -0.36430
C          0.92000        2.96880        0.85680
C          0.35230        2.54680        2.05710
C          0.34960        3.37010        3.16260
C          0.93330        4.63180        3.12490
S          0.97480        5.57670        4.62720
C          0.44670        7.24300        4.08740
C         -0.92410        7.21540        3.44310
C          1.52190        5.03310        1.92990
C          1.50230        4.23450        0.80740
F          2.13080        6.23660        1.83430
C         -0.33090        1.50970       -0.72710
S         -1.77330        1.32390        0.24060
C          3.24820        2.52620       -1.09880
C          4.04280        2.30880       -2.18360
S          3.17220        1.57040       -3.51390
C          5.43690        2.57590       -2.33090
C          6.14790        2.58290       -3.49300
C          7.52570        2.86330       -3.31340
C          8.52060        2.94820       -4.29970
C          8.22720        2.65160       -5.70670
C          8.59490        3.52520       -6.72840
C          8.30480        3.22920       -8.04230
C          7.65620        2.04610       -8.39700
S          7.37600        1.76920      -10.11650
C          5.85130        0.74330      -10.16780
C          5.20280        0.90210      -11.52870
C          7.32820        1.16640       -7.36920
F          6.75110       -0.02810       -7.63130
C          7.58800        1.46350       -6.04710
C          9.79250        3.29640       -3.86890
C         10.12130        3.47850       -2.50440
C          9.13840        3.33370       -1.51280
C          9.48850        3.37590       -0.08830
C         10.56470        2.62180        0.38200
C         10.89240        2.61770        1.71940
C         10.16860        3.37030        2.64220
S         10.70650        3.32630        4.32490
C          9.13060        3.39330        5.26840
C          9.32560        2.72030        6.61240
C          9.10900        4.13030        2.15770
C          8.75590        4.12760        0.82340
F          8.39040        4.91800        2.99110
C          7.84480        3.07820       -1.94890
S          6.43510        2.91350       -0.93370
C         11.49760        3.82060       -2.33990
C         12.17170        3.86450       -3.50620
S         11.19520        3.49900       -4.88760
H          1.88570       -1.66710        8.61310
H          2.62360       -0.53090        6.39620
H          1.46630        1.19890        5.34470
H          2.98850        2.97810        4.75810
H          3.54990        4.77410        3.78630
H          4.94650        5.53240        3.00500
H          5.20290        3.53940        5.31730
H          5.24370        5.29620        5.50810
H          6.49570        4.48100        4.56810
H          2.69750       -1.02100        1.89200
H         -3.56790       -2.90550        4.26710
H         -5.33620       -4.52070        4.79910
H         -4.33190       -8.47650        7.69160
H         -3.89630       -8.60490        5.96810
H         -5.36040      -10.51340        6.67240
H         -6.17050       -9.50270        5.46680
H         -6.60850       -9.36500        7.17110
H         -0.78730       -5.23610        6.53890
H         -2.29930       -3.96010        2.57240
H         -0.56980       -2.06310       -1.51270
H         -2.09530       -4.18740       -4.32990
H         -3.07170       -5.71180       -3.43110
H         -4.92080       -6.92050       -3.08450
H         -5.01750       -5.20610        0.52490
H         -8.36580       -5.72890        2.29540
H         -9.87130       -7.59380        0.01400
H        -11.22340       -5.51580        0.02180
H         -9.18270       -3.40250        1.62160
H         -9.28530       -0.93370        1.91930
H         -9.68190       -0.45830        4.29800
H         -5.86170       -0.60620        7.39290
H         -6.97330        0.36930        8.37110
H         -5.35510        1.84960        7.18020
H         -5.86740        1.18510        5.62830
H         -7.00170        2.13180        6.59720
H         -5.22770       -1.94110        2.83460
H         -4.48100       -3.20980       -3.26260
H         -4.13460       -3.58880       -5.67380
H         -7.00580       -1.21920       -8.41150
H         -5.90180       -1.68840       -9.71920
H         -5.08770        0.39340       -8.57940
H         -5.02320       -0.47650       -7.04140
H         -3.94520       -0.93820       -8.36570
H         -8.45080       -1.83490       -4.07360
H         -4.25820       -0.86770       -2.83990
H         -2.03720       -0.27660       -3.00760
H         -1.49830        1.66300       -4.55550
H         -2.12820        0.66620       -6.71970
H          0.15900       -3.50910       -8.22340
H         -0.87950       -3.27790       -6.79470
H         -1.80220       -5.05820       -8.31830
H         -2.90630       -3.68060       -8.21260
H         -1.87840       -3.87940       -9.63100
H          1.95240       -0.87210       -4.42080
H         -0.07230        1.55940        2.13540
H         -0.10550        3.04330        4.08390
H          0.43860        7.81900        5.01280
H          1.20310        7.65200        3.42100
H         -1.23370        8.22950        3.19850
H         -0.90950        6.62870        2.52580
H         -1.65670        6.77950        4.11950
H          1.93450        4.61500       -0.10450
H          3.63070        2.95060       -0.18830
H          5.69250        2.41600       -4.45290
H          9.08530        4.45540       -6.48730
H          8.57670        3.91560       -8.82890
H          5.19510        1.09940       -9.37530
H          6.12630       -0.29380       -9.98210
H          4.29450        0.30500      -11.57220
H          5.87760        0.56960      -12.31440
H          4.94700        1.94340      -11.71190
H          7.32080        0.73990       -5.29240
H         11.12530        2.00800       -0.30630
H         11.71810        2.02380        2.07940
H          8.38330        2.87080        4.67280
H          8.85030        4.43880        5.39150
H          9.62110        1.68200        6.48020
H         10.09840        3.22840        7.18460
H          8.39570        2.75200        7.17660
H          7.92650        4.73980        0.50670
H         11.94130        4.04240       -1.38620
H         13.20650        4.10030       -3.66070
