
  xtb     03022206283D
 energy: -445.651851003171 gnorm: 0.000169020520 xtb: 6.4.1 (unknown)
224249  0     0  0            999 V2000
    0.9580  -10.0593   15.3629 C   0  0  0  0  0  0  0  0  0  0  0  0
   -0.0317   -9.3969   15.9954 C   0  0  0  0  0  0  0  0  0  0  0  0
   -1.0283   -8.9037   15.1026 C   0  0  0  0  0  0  0  0  0  0  0  0
   -2.2037   -8.1992   15.4128 C   0  0  0  0  0  0  0  0  0  0  0  0
   -2.5322   -7.8199   16.7777 C   0  0  0  0  0  0  0  0  0  0  0  0
   -1.4179   -6.9058   17.7513 S   0  0  0  0  0  0  0  0  0  0  0  0
   -2.5213   -6.8267   19.0820 C   0  0  0  0  0  0  0  0  0  0  0  0
   -2.1834   -6.0743   20.3214 C   0  0  0  0  0  0  0  0  0  0  0  0
   -2.5463   -4.5944   20.1760 C   0  0  0  0  0  0  0  0  0  0  0  0
   -3.6814   -7.4711   18.7727 C   0  0  0  0  0  0  0  0  0  0  0  0
   -5.0139   -7.6079   19.8449 Cl  0  0  0  0  0  0  0  0  0  0  0  0
   -3.6915   -8.0364   17.4688 C   0  0  0  0  0  0  0  0  0  0  0  0
   -5.0071   -8.9618   16.8776 Cl  0  0  0  0  0  0  0  0  0  0  0  0
   -3.0258   -7.8439   14.3505 C   0  0  0  0  0  0  0  0  0  0  0  0
   -2.7173   -8.1706   13.0088 C   0  0  0  0  0  0  0  0  0  0  0  0
   -1.5606   -8.9050   12.6996 C   0  0  0  0  0  0  0  0  0  0  0  0
   -1.2789   -9.2576   11.3168 C   0  0  0  0  0  0  0  0  0  0  0  0
    0.1936   -8.7890   10.5199 S   0  0  0  0  0  0  0  0  0  0  0  0
   -0.3244   -9.4463    9.0052 C   0  0  0  0  0  0  0  0  0  0  0  0
    0.4954   -9.3158    7.7685 C   0  0  0  0  0  0  0  0  0  0  0  0
    0.0195   -8.1335    6.9200 C   0  0  0  0  0  0  0  0  0  0  0  0
   -1.5643   -9.9996    9.1290 C   0  0  0  0  0  0  0  0  0  0  0  0
   -2.1077   -9.8977   10.4360 C   0  0  0  0  0  0  0  0  0  0  0  0
   -3.6308  -10.5693   10.8635 Cl  0  0  0  0  0  0  0  0  0  0  0  0
   -2.4064  -10.7466    7.8350 Cl  0  0  0  0  0  0  0  0  0  0  0  0
   -0.7317   -9.2414   13.7603 C   0  0  0  0  0  0  0  0  0  0  0  0
    0.7545  -10.1401   13.6466 S   0  0  0  0  0  0  0  0  0  0  0  0
   -3.6473   -7.6155   12.1014 C   0  0  0  0  0  0  0  0  0  0  0  0
   -4.6428   -6.8998   12.7009 C   0  0  0  0  0  0  0  0  0  0  0  0
   -4.4783   -6.8842   14.4426 S   0  0  0  0  0  0  0  0  0  0  0  0
   -5.6790   -6.2082   12.0032 C   0  0  0  0  0  0  0  0  0  0  0  0
   -6.9783   -5.3344   12.7783 S   0  0  0  0  0  0  0  0  0  0  0  0
   -7.6023   -4.8284   11.2367 C   0  0  0  0  0  0  0  0  0  0  0  0
   -8.6925   -4.0537   11.1310 O   0  0  0  0  0  0  0  0  0  0  0  0
   -6.8615   -5.3172   10.1787 C   0  0  0  0  0  0  0  0  0  0  0  0
   -5.7781   -6.1008   10.6471 C   0  0  0  0  0  0  0  0  0  0  0  0
   -7.0863   -5.0083    8.7894 C   0  0  0  0  0  0  0  0  0  0  0  0
   -6.4003   -5.6259    7.8109 C   0  0  0  0  0  0  0  0  0  0  0  0
   -6.3553   -5.3036    6.4247 C   0  0  0  0  0  0  0  0  0  0  0  0
   -5.4638   -5.8640    5.5533 C   0  0  0  0  0  0  0  0  0  0  0  0
   -5.4843   -5.2935    4.2620 C   0  0  0  0  0  0  0  0  0  0  0  0
   -4.6137   -5.5590    3.1898 C   0  0  0  0  0  0  0  0  0  0  0  0
   -3.5750   -6.5717    3.2996 C   0  0  0  0  0  0  0  0  0  0  0  0
   -3.9564   -8.1995    3.7864 S   0  0  0  0  0  0  0  0  0  0  0  0
   -2.3031   -8.7047    3.6973 C   0  0  0  0  0  0  0  0  0  0  0  0
   -1.9080  -10.1102    3.9876 C   0  0  0  0  0  0  0  0  0  0  0  0
   -2.2418  -11.0307    2.8119 C   0  0  0  0  0  0  0  0  0  0  0  0
   -1.5178   -7.6653    3.3000 C   0  0  0  0  0  0  0  0  0  0  0  0
    0.1813   -7.7749    3.0940 Cl  0  0  0  0  0  0  0  0  0  0  0  0
   -2.2298   -6.4551    3.0797 C   0  0  0  0  0  0  0  0  0  0  0  0
   -1.4266   -4.9939    2.6778 Cl  0  0  0  0  0  0  0  0  0  0  0  0
   -4.7699   -4.7796    2.0526 C   0  0  0  0  0  0  0  0  0  0  0  0
   -5.7444   -3.7550    1.9418 C   0  0  0  0  0  0  0  0  0  0  0  0
   -6.6027   -3.4840    3.0224 C   0  0  0  0  0  0  0  0  0  0  0  0
   -7.5712   -2.4011    2.9636 C   0  0  0  0  0  0  0  0  0  0  0  0
   -9.2542   -2.6774    3.2976 S   0  0  0  0  0  0  0  0  0  0  0  0
   -9.6586   -1.0150    3.0380 C   0  0  0  0  0  0  0  0  0  0  0  0
  -11.0679   -0.5429    3.1230 C   0  0  0  0  0  0  0  0  0  0  0  0
  -11.8308   -0.8573    1.8340 C   0  0  0  0  0  0  0  0  0  0  0  0
   -8.5443   -0.3020    2.7104 C   0  0  0  0  0  0  0  0  0  0  0  0
   -7.3576   -1.0825    2.6726 C   0  0  0  0  0  0  0  0  0  0  0  0
   -5.8120   -0.3968    2.3706 Cl  0  0  0  0  0  0  0  0  0  0  0  0
   -8.5459    1.3822    2.3804 Cl  0  0  0  0  0  0  0  0  0  0  0  0
   -6.4547   -4.2669    4.1590 C   0  0  0  0  0  0  0  0  0  0  0  0
   -7.3134   -4.0520    5.6625 S   0  0  0  0  0  0  0  0  0  0  0  0
   -5.6720   -3.0920    0.6912 C   0  0  0  0  0  0  0  0  0  0  0  0
   -4.6718   -3.5550   -0.1109 C   0  0  0  0  0  0  0  0  0  0  0  0
   -3.8186   -4.9080    0.6054 S   0  0  0  0  0  0  0  0  0  0  0  0
   -4.1500   -2.9878   -1.3091 C   0  0  0  0  0  0  0  0  0  0  0  0
   -3.0242   -3.4034   -1.9564 C   0  0  0  0  0  0  0  0  0  0  0  0
   -2.5855   -2.5155   -2.9652 C   0  0  0  0  0  0  0  0  0  0  0  0
   -1.3892   -2.5801   -3.7040 C   0  0  0  0  0  0  0  0  0  0  0  0
   -0.4361   -3.6542   -3.4814 C   0  0  0  0  0  0  0  0  0  0  0  0
    0.0910   -4.0553   -1.8715 S   0  0  0  0  0  0  0  0  0  0  0  0
    1.1133   -5.3327   -2.4351 C   0  0  0  0  0  0  0  0  0  0  0  0
    1.8767   -6.1748   -1.4732 C   0  0  0  0  0  0  0  0  0  0  0  0
    0.9482   -6.8433   -0.4592 C   0  0  0  0  0  0  0  0  0  0  0  0
    1.0486   -5.4217   -3.7933 C   0  0  0  0  0  0  0  0  0  0  0  0
    1.9187   -6.5718   -4.7243 Cl  0  0  0  0  0  0  0  0  0  0  0  0
    0.1788   -4.4684   -4.3908 C   0  0  0  0  0  0  0  0  0  0  0  0
   -0.1195   -4.4293   -6.0777 Cl  0  0  0  0  0  0  0  0  0  0  0  0
   -1.1372   -1.5334   -4.5807 C   0  0  0  0  0  0  0  0  0  0  0  0
   -2.0394   -0.4541   -4.7524 C   0  0  0  0  0  0  0  0  0  0  0  0
   -3.2177   -0.3731   -3.9901 C   0  0  0  0  0  0  0  0  0  0  0  0
   -4.0590    0.8109   -4.0680 C   0  0  0  0  0  0  0  0  0  0  0  0
   -5.7620    0.7112   -4.3970 S   0  0  0  0  0  0  0  0  0  0  0  0
   -5.9508    2.4306   -4.3574 C   0  0  0  0  0  0  0  0  0  0  0  0
   -7.2587    3.0787   -4.6511 C   0  0  0  0  0  0  0  0  0  0  0  0
   -7.3558    3.4604   -6.1305 C   0  0  0  0  0  0  0  0  0  0  0  0
   -4.7554    3.0334   -4.0999 C   0  0  0  0  0  0  0  0  0  0  0  0
   -3.6828    2.1196   -3.9288 C   0  0  0  0  0  0  0  0  0  0  0  0
   -2.0995    2.6403   -3.5086 Cl  0  0  0  0  0  0  0  0  0  0  0  0
   -4.5422    4.7317   -3.9896 Cl  0  0  0  0  0  0  0  0  0  0  0  0
   -3.4691   -1.4176   -3.1139 C   0  0  0  0  0  0  0  0  0  0  0  0
   -4.7889   -1.5000   -1.9784 S   0  0  0  0  0  0  0  0  0  0  0  0
   -1.5392    0.5128   -5.6528 C   0  0  0  0  0  0  0  0  0  0  0  0
   -0.2690    0.2544   -6.0795 C   0  0  0  0  0  0  0  0  0  0  0  0
    0.3275   -1.2798   -5.4883 S   0  0  0  0  0  0  0  0  0  0  0  0
    0.5537    1.1865   -6.7824 C   0  0  0  0  0  0  0  0  0  0  0  0
    0.3192    2.5308   -6.8144 C   0  0  0  0  0  0  0  0  0  0  0  0
    1.3350    3.2683   -7.4601 C   0  0  0  0  0  0  0  0  0  0  0  0
    1.4324    4.6680   -7.5571 C   0  0  0  0  0  0  0  0  0  0  0  0
    0.3347    5.5070   -7.1126 C   0  0  0  0  0  0  0  0  0  0  0  0
    0.5813    6.8261   -6.0073 S   0  0  0  0  0  0  0  0  0  0  0  0
   -1.1092    7.1923   -5.9438 C   0  0  0  0  0  0  0  0  0  0  0  0
   -1.6173    8.3347   -5.1362 C   0  0  0  0  0  0  0  0  0  0  0  0
   -1.3927    9.6615   -5.8649 C   0  0  0  0  0  0  0  0  0  0  0  0
   -1.8088    6.3466   -6.7522 C   0  0  0  0  0  0  0  0  0  0  0  0
   -3.5101    6.4046   -6.9590 Cl  0  0  0  0  0  0  0  0  0  0  0  0
   -0.9960    5.3869   -7.4116 C   0  0  0  0  0  0  0  0  0  0  0  0
   -1.6400    4.2562   -8.5323 Cl  0  0  0  0  0  0  0  0  0  0  0  0
    2.6296    5.1747   -8.0408 C   0  0  0  0  0  0  0  0  0  0  0  0
    3.6840    4.3446   -8.4978 C   0  0  0  0  0  0  0  0  0  0  0  0
    3.5530    2.9423   -8.4717 C   0  0  0  0  0  0  0  0  0  0  0  0
    4.6147    2.0733   -8.9485 C   0  0  0  0  0  0  0  0  0  0  0  0
    6.2631    2.2764   -8.4259 S   0  0  0  0  0  0  0  0  0  0  0  0
    6.8167    0.9409   -9.3751 C   0  0  0  0  0  0  0  0  0  0  0  0
    8.2626    0.5937   -9.4427 C   0  0  0  0  0  0  0  0  0  0  0  0
    8.9757    1.4494  -10.4928 C   0  0  0  0  0  0  0  0  0  0  0  0
    5.7758    0.3815  -10.0539 C   0  0  0  0  0  0  0  0  0  0  0  0
    4.5266    1.0131   -9.8092 C   0  0  0  0  0  0  0  0  0  0  0  0
    3.0886    0.5321  -10.6067 Cl  0  0  0  0  0  0  0  0  0  0  0  0
    5.9355   -0.9604  -11.1112 Cl  0  0  0  0  0  0  0  0  0  0  0  0
    2.3809    2.4337   -7.9249 C   0  0  0  0  0  0  0  0  0  0  0  0
    2.0479    0.7580   -7.5792 S   0  0  0  0  0  0  0  0  0  0  0  0
    4.7978    5.1046   -8.9248 C   0  0  0  0  0  0  0  0  0  0  0  0
    4.6329    6.4515   -8.7760 C   0  0  0  0  0  0  0  0  0  0  0  0
    3.0490    6.8594   -8.1554 S   0  0  0  0  0  0  0  0  0  0  0  0
    5.6251    7.4555   -8.9893 C   0  0  0  0  0  0  0  0  0  0  0  0
    6.9263    7.2477   -9.3443 C   0  0  0  0  0  0  0  0  0  0  0  0
    7.7048    8.4294   -9.3552 C   0  0  0  0  0  0  0  0  0  0  0  0
    9.0747    8.5598   -9.6397 C   0  0  0  0  0  0  0  0  0  0  0  0
    9.9024    7.3887   -9.8737 C   0  0  0  0  0  0  0  0  0  0  0  0
   10.9339    7.2596  -11.2666 S   0  0  0  0  0  0  0  0  0  0  0  0
   11.5049    5.6956  -10.7967 C   0  0  0  0  0  0  0  0  0  0  0  0
   12.5390    4.9782  -11.5916 C   0  0  0  0  0  0  0  0  0  0  0  0
   13.9448    5.3992  -11.1559 C   0  0  0  0  0  0  0  0  0  0  0  0
   10.9312    5.3157   -9.6201 C   0  0  0  0  0  0  0  0  0  0  0  0
   11.2653    3.8305   -8.8282 Cl  0  0  0  0  0  0  0  0  0  0  0  0
   10.0182    6.2684   -9.0955 C   0  0  0  0  0  0  0  0  0  0  0  0
    9.2221    6.0418   -7.5891 Cl  0  0  0  0  0  0  0  0  0  0  0  0
    9.5955    9.8478   -9.6426 C   0  0  0  0  0  0  0  0  0  0  0  0
    8.8214   10.9930   -9.3378 C   0  0  0  0  0  0  0  0  0  0  0  0
    7.4570   10.8590   -9.0356 C   0  0  0  0  0  0  0  0  0  0  0  0
    6.6241   12.0122   -8.7349 C   0  0  0  0  0  0  0  0  0  0  0  0
    5.6644   12.0774   -7.2876 S   0  0  0  0  0  0  0  0  0  0  0  0
    5.0214   13.6326   -7.6916 C   0  0  0  0  0  0  0  0  0  0  0  0
    4.0143   14.2932   -6.8166 C   0  0  0  0  0  0  0  0  0  0  0  0
    2.6438   13.6288   -6.9653 C   0  0  0  0  0  0  0  0  0  0  0  0
    5.5233   14.0579   -8.8852 C   0  0  0  0  0  0  0  0  0  0  0  0
    6.4367   13.1443   -9.4775 C   0  0  0  0  0  0  0  0  0  0  0  0
    7.1550   13.4194  -11.0121 Cl  0  0  0  0  0  0  0  0  0  0  0  0
    5.1113   15.5516   -9.6239 Cl  0  0  0  0  0  0  0  0  0  0  0  0
    6.9334    9.5728   -9.0369 C   0  0  0  0  0  0  0  0  0  0  0  0
    5.2808    9.1458   -8.6957 S   0  0  0  0  0  0  0  0  0  0  0  0
    9.6173   12.1760   -9.3296 C   0  0  0  0  0  0  0  0  0  0  0  0
   10.9102   11.9394   -9.6290 C   0  0  0  0  0  0  0  0  0  0  0  0
   11.2594   10.2720   -9.9311 S   0  0  0  0  0  0  0  0  0  0  0  0
    1.8208  -10.5248   15.7975 H   0  0  0  0  0  0  0  0  0  0  0  0
   -0.0695   -9.2593   17.0602 H   0  0  0  0  0  0  0  0  0  0  0  0
   -1.1150   -6.1684   20.5233 H   0  0  0  0  0  0  0  0  0  0  0  0
   -2.7383   -6.5063   21.1562 H   0  0  0  0  0  0  0  0  0  0  0  0
   -2.2969   -4.0577   21.0873 H   0  0  0  0  0  0  0  0  0  0  0  0
   -1.9984   -4.1511   19.3479 H   0  0  0  0  0  0  0  0  0  0  0  0
   -3.6111   -4.4850   19.9867 H   0  0  0  0  0  0  0  0  0  0  0  0
    1.5414   -9.1738    8.0422 H   0  0  0  0  0  0  0  0  0  0  0  0
    0.4067  -10.2359    7.1865 H   0  0  0  0  0  0  0  0  0  0  0  0
    0.1053   -7.2061    7.4809 H   0  0  0  0  0  0  0  0  0  0  0  0
   -1.0190   -8.2702    6.6287 H   0  0  0  0  0  0  0  0  0  0  0  0
    0.6225   -8.0530    6.0202 H   0  0  0  0  0  0  0  0  0  0  0  0
   -3.5604   -7.7296   11.0384 H   0  0  0  0  0  0  0  0  0  0  0  0
   -9.0454   -3.8254   11.9989 H   0  0  0  0  0  0  0  0  0  0  0  0
   -5.0598   -6.5514    9.9911 H   0  0  0  0  0  0  0  0  0  0  0  0
   -7.7974   -4.2261    8.5664 H   0  0  0  0  0  0  0  0  0  0  0  0
   -5.7306   -6.4355    8.0672 H   0  0  0  0  0  0  0  0  0  0  0  0
   -4.7823   -6.6413    5.8467 H   0  0  0  0  0  0  0  0  0  0  0  0
   -0.8345  -10.1355    4.1824 H   0  0  0  0  0  0  0  0  0  0  0  0
   -2.4327  -10.4585    4.8792 H   0  0  0  0  0  0  0  0  0  0  0  0
   -1.9485  -12.0512    3.0425 H   0  0  0  0  0  0  0  0  0  0  0  0
   -1.7129  -10.7088    1.9182 H   0  0  0  0  0  0  0  0  0  0  0  0
   -3.3101  -11.0117    2.6097 H   0  0  0  0  0  0  0  0  0  0  0  0
  -11.0649    0.5350    3.2943 H   0  0  0  0  0  0  0  0  0  0  0  0
  -11.5629   -1.0304    3.9648 H   0  0  0  0  0  0  0  0  0  0  0  0
  -11.3557   -0.3698    0.9864 H   0  0  0  0  0  0  0  0  0  0  0  0
  -11.8436   -1.9300    1.6563 H   0  0  0  0  0  0  0  0  0  0  0  0
  -12.8552   -0.5031    1.9106 H   0  0  0  0  0  0  0  0  0  0  0  0
   -6.3156   -2.2821    0.4007 H   0  0  0  0  0  0  0  0  0  0  0  0
   -2.5102   -4.3065   -1.6831 H   0  0  0  0  0  0  0  0  0  0  0  0
    2.4251   -6.9310   -2.0372 H   0  0  0  0  0  0  0  0  0  0  0  0
    2.6006   -5.5528   -0.9398 H   0  0  0  0  0  0  0  0  0  0  0  0
    1.5243   -7.4605    0.2248 H   0  0  0  0  0  0  0  0  0  0  0  0
    0.2208   -7.4726   -0.9668 H   0  0  0  0  0  0  0  0  0  0  0  0
    0.4129   -6.0918    0.1167 H   0  0  0  0  0  0  0  0  0  0  0  0
   -7.3523    3.9777   -4.0381 H   0  0  0  0  0  0  0  0  0  0  0  0
   -8.0676    2.3932   -4.3948 H   0  0  0  0  0  0  0  0  0  0  0  0
   -7.2691    2.5750   -6.7558 H   0  0  0  0  0  0  0  0  0  0  0  0
   -6.5591    4.1513   -6.3942 H   0  0  0  0  0  0  0  0  0  0  0  0
   -8.3111    3.9378   -6.3311 H   0  0  0  0  0  0  0  0  0  0  0  0
   -2.0997    1.3712   -5.9700 H   0  0  0  0  0  0  0  0  0  0  0  0
   -0.5186    2.9874   -6.3235 H   0  0  0  0  0  0  0  0  0  0  0  0
   -2.6836    8.1880   -4.9552 H   0  0  0  0  0  0  0  0  0  0  0  0
   -1.1000    8.3576   -4.1752 H   0  0  0  0  0  0  0  0  0  0  0  0
   -1.9187    9.6632   -6.8163 H   0  0  0  0  0  0  0  0  0  0  0  0
   -1.7618   10.4862   -5.2612 H   0  0  0  0  0  0  0  0  0  0  0  0
   -0.3324    9.8118   -6.0538 H   0  0  0  0  0  0  0  0  0  0  0  0
    8.7233    0.7603   -8.4676 H   0  0  0  0  0  0  0  0  0  0  0  0
    8.3594   -0.4619   -9.7023 H   0  0  0  0  0  0  0  0  0  0  0  0
    8.5370    1.2871  -11.4741 H   0  0  0  0  0  0  0  0  0  0  0  0
    8.8891    2.5039  -10.2416 H   0  0  0  0  0  0  0  0  0  0  0  0
   10.0296    1.1883  -10.5330 H   0  0  0  0  0  0  0  0  0  0  0  0
    5.6986    4.6678   -9.3106 H   0  0  0  0  0  0  0  0  0  0  0  0
    7.3203    6.2805   -9.5911 H   0  0  0  0  0  0  0  0  0  0  0  0
   12.4036    5.2034  -12.6505 H   0  0  0  0  0  0  0  0  0  0  0  0
   12.4156    3.9039  -11.4419 H   0  0  0  0  0  0  0  0  0  0  0  0
   14.1003    5.1629  -10.1064 H   0  0  0  0  0  0  0  0  0  0  0  0
   14.0771    6.4696  -11.2944 H   0  0  0  0  0  0  0  0  0  0  0  0
   14.6915    4.8748  -11.7458 H   0  0  0  0  0  0  0  0  0  0  0  0
    3.9477   15.3465   -7.0938 H   0  0  0  0  0  0  0  0  0  0  0  0
    4.3369   14.2254   -5.7757 H   0  0  0  0  0  0  0  0  0  0  0  0
    2.2983   13.7027   -7.9934 H   0  0  0  0  0  0  0  0  0  0  0  0
    2.7043   12.5774   -6.6944 H   0  0  0  0  0  0  0  0  0  0  0  0
    1.9199   14.1168   -6.3184 H   0  0  0  0  0  0  0  0  0  0  0  0
    9.2288   13.1496   -9.0953 H   0  0  0  0  0  0  0  0  0  0  0  0
   11.7119   12.6489   -9.6926 H   0  0  0  0  0  0  0  0  0  0  0  0
  1  2  2  0  0  0  0
  2  3  1  0  0  0  0
  3  4  2  0  0  0  0
  4  5  1  0  0  0  0
  5  6  1  0  0  0  0
  6  7  1  0  0  0  0
  7  8  1  0  0  0  0
  8  9  1  0  0  0  0
  7 10  2  0  0  0  0
 10 11  1  0  0  0  0
 10 12  1  0  0  0  0
 12 13  1  0  0  0  0
  4 14  1  0  0  0  0
 14 15  2  0  0  0  0
 15 16  1  0  0  0  0
 16 17  1  0  0  0  0
 17 18  1  0  0  0  0
 18 19  1  0  0  0  0
 19 20  1  0  0  0  0
 20 21  1  0  0  0  0
 19 22  2  0  0  0  0
 22 23  1  0  0  0  0
 23 24  1  0  0  0  0
 22 25  1  0  0  0  0
 16 26  2  0  0  0  0
 26 27  1  0  0  0  0
 15 28  1  0  0  0  0
 28 29  2  0  0  0  0
 29 30  1  0  0  0  0
 29 31  1  0  0  0  0
 31 32  1  0  0  0  0
 32 33  1  0  0  0  0
 33 34  1  0  0  0  0
 33 35  2  0  0  0  0
 35 36  1  0  0  0  0
 35 37  1  0  0  0  0
 37 38  2  0  0  0  0
 38 39  1  0  0  0  0
 39 40  2  0  0  0  0
 40 41  1  0  0  0  0
 41 42  2  0  0  0  0
 42 43  1  0  0  0  0
 43 44  1  0  0  0  0
 44 45  1  0  0  0  0
 45 46  1  0  0  0  0
 46 47  1  0  0  0  0
 45 48  2  0  0  0  0
 48 49  1  0  0  0  0
 48 50  1  0  0  0  0
 50 51  1  0  0  0  0
 42 52  1  0  0  0  0
 52 53  2  0  0  0  0
 53 54  1  0  0  0  0
 54 55  1  0  0  0  0
 55 56  1  0  0  0  0
 56 57  1  0  0  0  0
 57 58  1  0  0  0  0
 58 59  1  0  0  0  0
 57 60  2  0  0  0  0
 60 61  1  0  0  0  0
 61 62  1  0  0  0  0
 60 63  1  0  0  0  0
 54 64  2  0  0  0  0
 64 65  1  0  0  0  0
 53 66  1  0  0  0  0
 66 67  2  0  0  0  0
 67 68  1  0  0  0  0
 67 69  1  0  0  0  0
 69 70  2  0  0  0  0
 70 71  1  0  0  0  0
 71 72  2  0  0  0  0
 72 73  1  0  0  0  0
 73 74  1  0  0  0  0
 74 75  1  0  0  0  0
 75 76  1  0  0  0  0
 76 77  1  0  0  0  0
 75 78  2  0  0  0  0
 78 79  1  0  0  0  0
 78 80  1  0  0  0  0
 80 81  1  0  0  0  0
 72 82  1  0  0  0  0
 82 83  2  0  0  0  0
 83 84  1  0  0  0  0
 84 85  1  0  0  0  0
 85 86  1  0  0  0  0
 86 87  1  0  0  0  0
 87 88  1  0  0  0  0
 88 89  1  0  0  0  0
 87 90  2  0  0  0  0
 90 91  1  0  0  0  0
 91 92  1  0  0  0  0
 90 93  1  0  0  0  0
 84 94  2  0  0  0  0
 94 95  1  0  0  0  0
 83 96  1  0  0  0  0
 96 97  2  0  0  0  0
 97 98  1  0  0  0  0
 97 99  1  0  0  0  0
 99100  2  0  0  0  0
100101  1  0  0  0  0
101102  2  0  0  0  0
102103  1  0  0  0  0
103104  1  0  0  0  0
104105  1  0  0  0  0
105106  1  0  0  0  0
106107  1  0  0  0  0
105108  2  0  0  0  0
108109  1  0  0  0  0
108110  1  0  0  0  0
110111  1  0  0  0  0
102112  1  0  0  0  0
112113  2  0  0  0  0
113114  1  0  0  0  0
114115  1  0  0  0  0
115116  1  0  0  0  0
116117  1  0  0  0  0
117118  1  0  0  0  0
118119  1  0  0  0  0
117120  2  0  0  0  0
120121  1  0  0  0  0
121122  1  0  0  0  0
120123  1  0  0  0  0
114124  2  0  0  0  0
124125  1  0  0  0  0
113126  1  0  0  0  0
126127  2  0  0  0  0
127128  1  0  0  0  0
127129  1  0  0  0  0
129130  2  0  0  0  0
130131  1  0  0  0  0
131132  2  0  0  0  0
132133  1  0  0  0  0
133134  1  0  0  0  0
134135  1  0  0  0  0
135136  1  0  0  0  0
136137  1  0  0  0  0
135138  2  0  0  0  0
138139  1  0  0  0  0
138140  1  0  0  0  0
140141  1  0  0  0  0
132142  1  0  0  0  0
142143  2  0  0  0  0
143144  1  0  0  0  0
144145  1  0  0  0  0
145146  1  0  0  0  0
146147  1  0  0  0  0
147148  1  0  0  0  0
148149  1  0  0  0  0
147150  2  0  0  0  0
150151  1  0  0  0  0
151152  1  0  0  0  0
150153  1  0  0  0  0
144154  2  0  0  0  0
154155  1  0  0  0  0
143156  1  0  0  0  0
156157  2  0  0  0  0
157158  1  0  0  0  0
 27  1  1  0  0  0  0
 36 31  2  0  0  0  0
 65 39  1  0  0  0  0
 95 69  1  0  0  0  0
125 99  1  0  0  0  0
155129  1  0  0  0  0
 26  3  1  0  0  0  0
 64 41  1  0  0  0  0
 94 71  1  0  0  0  0
124101  1  0  0  0  0
154131  1  0  0  0  0
 12  5  2  0  0  0  0
 30 14  1  0  0  0  0
 50 43  2  0  0  0  0
 68 52  1  0  0  0  0
 80 73  2  0  0  0  0
 98 82  1  0  0  0  0
110103  2  0  0  0  0
128112  1  0  0  0  0
140133  2  0  0  0  0
158142  1  0  0  0  0
 23 17  2  0  0  0  0
 61 55  2  0  0  0  0
 91 85  2  0  0  0  0
121115  2  0  0  0  0
151145  2  0  0  0  0
  1159  1  0  0  0  0
  2160  1  0  0  0  0
  8161  1  0  0  0  0
  8162  1  0  0  0  0
  9163  1  0  0  0  0
  9164  1  0  0  0  0
  9165  1  0  0  0  0
 20166  1  0  0  0  0
 20167  1  0  0  0  0
 21168  1  0  0  0  0
 21169  1  0  0  0  0
 21170  1  0  0  0  0
 28171  1  0  0  0  0
 34172  1  0  0  0  0
 36173  1  0  0  0  0
 37174  1  0  0  0  0
 38175  1  0  0  0  0
 40176  1  0  0  0  0
 46177  1  0  0  0  0
 46178  1  0  0  0  0
 47179  1  0  0  0  0
 47180  1  0  0  0  0
 47181  1  0  0  0  0
 58182  1  0  0  0  0
 58183  1  0  0  0  0
 59184  1  0  0  0  0
 59185  1  0  0  0  0
 59186  1  0  0  0  0
 66187  1  0  0  0  0
 70188  1  0  0  0  0
 76189  1  0  0  0  0
 76190  1  0  0  0  0
 77191  1  0  0  0  0
 77192  1  0  0  0  0
 77193  1  0  0  0  0
 88194  1  0  0  0  0
 88195  1  0  0  0  0
 89196  1  0  0  0  0
 89197  1  0  0  0  0
 89198  1  0  0  0  0
 96199  1  0  0  0  0
100200  1  0  0  0  0
106201  1  0  0  0  0
106202  1  0  0  0  0
107203  1  0  0  0  0
107204  1  0  0  0  0
107205  1  0  0  0  0
118206  1  0  0  0  0
118207  1  0  0  0  0
119208  1  0  0  0  0
119209  1  0  0  0  0
119210  1  0  0  0  0
126211  1  0  0  0  0
130212  1  0  0  0  0
136213  1  0  0  0  0
136214  1  0  0  0  0
137215  1  0  0  0  0
137216  1  0  0  0  0
137217  1  0  0  0  0
148218  1  0  0  0  0
148219  1  0  0  0  0
149220  1  0  0  0  0
149221  1  0  0  0  0
149222  1  0  0  0  0
156223  1  0  0  0  0
157224  1  0  0  0  0
M  END
