224

C          0.95800      -10.05930       15.36290
C         -0.03170       -9.39690       15.99540
C         -1.02830       -8.90370       15.10260
C         -2.20370       -8.19920       15.41280
C         -2.53220       -7.81990       16.77770
S         -1.41790       -6.90580       17.75130
C         -2.52130       -6.82670       19.08200
C         -2.18340       -6.07430       20.32140
C         -2.54630       -4.59440       20.17600
C         -3.68140       -7.47110       18.77270
Cl        -5.01390       -7.60790       19.84490
C         -3.69150       -8.03640       17.46880
Cl        -5.00710       -8.96180       16.87760
C         -3.02580       -7.84390       14.35050
C         -2.71730       -8.17060       13.00880
C         -1.56060       -8.90500       12.69960
C         -1.27890       -9.25760       11.31680
S          0.19360       -8.78900       10.51990
C         -0.32440       -9.44630        9.00520
C          0.49540       -9.31580        7.76850
C          0.01950       -8.13350        6.92000
C         -1.56430       -9.99960        9.12900
C         -2.10770       -9.89770       10.43600
Cl        -3.63080      -10.56930       10.86350
Cl        -2.40640      -10.74660        7.83500
C         -0.73170       -9.24140       13.76030
S          0.75450      -10.14010       13.64660
C         -3.64730       -7.61550       12.10140
C         -4.64280       -6.89980       12.70090
S         -4.47830       -6.88420       14.44260
C         -5.67900       -6.20820       12.00320
S         -6.97830       -5.33440       12.77830
C         -7.60230       -4.82840       11.23670
O         -8.69250       -4.05370       11.13100
C         -6.86150       -5.31720       10.17870
C         -5.77810       -6.10080       10.64710
C         -7.08630       -5.00830        8.78940
C         -6.40030       -5.62590        7.81090
C         -6.35530       -5.30360        6.42470
C         -5.46380       -5.86400        5.55330
C         -5.48430       -5.29350        4.26200
C         -4.61370       -5.55900        3.18980
C         -3.57500       -6.57170        3.29960
S         -3.95640       -8.19950        3.78640
C         -2.30310       -8.70470        3.69730
C         -1.90800      -10.11020        3.98760
C         -2.24180      -11.03070        2.81190
C         -1.51780       -7.66530        3.30000
Cl         0.18130       -7.77490        3.09400
C         -2.22980       -6.45510        3.07970
Cl        -1.42660       -4.99390        2.67780
C         -4.76990       -4.77960        2.05260
C         -5.74440       -3.75500        1.94180
C         -6.60270       -3.48400        3.02240
C         -7.57120       -2.40110        2.96360
S         -9.25420       -2.67740        3.29760
C         -9.65860       -1.01500        3.03800
C        -11.06790       -0.54290        3.12300
C        -11.83080       -0.85730        1.83400
C         -8.54430       -0.30200        2.71040
C         -7.35760       -1.08250        2.67260
Cl        -5.81200       -0.39680        2.37060
Cl        -8.54590        1.38220        2.38040
C         -6.45470       -4.26690        4.15900
S         -7.31340       -4.05200        5.66250
C         -5.67200       -3.09200        0.69120
C         -4.67180       -3.55500       -0.11090
S         -3.81860       -4.90800        0.60540
C         -4.15000       -2.98780       -1.30910
C         -3.02420       -3.40340       -1.95640
C         -2.58550       -2.51550       -2.96520
C         -1.38920       -2.58010       -3.70400
C         -0.43610       -3.65420       -3.48140
S          0.09100       -4.05530       -1.87150
C          1.11330       -5.33270       -2.43510
C          1.87670       -6.17480       -1.47320
C          0.94820       -6.84330       -0.45920
C          1.04860       -5.42170       -3.79330
Cl         1.91870       -6.57180       -4.72430
C          0.17880       -4.46840       -4.39080
Cl        -0.11950       -4.42930       -6.07770
C         -1.13720       -1.53340       -4.58070
C         -2.03940       -0.45410       -4.75240
C         -3.21770       -0.37310       -3.99010
C         -4.05900        0.81090       -4.06800
S         -5.76200        0.71120       -4.39700
C         -5.95080        2.43060       -4.35740
C         -7.25870        3.07870       -4.65110
C         -7.35580        3.46040       -6.13050
C         -4.75540        3.03340       -4.09990
C         -3.68280        2.11960       -3.92880
Cl        -2.09950        2.64030       -3.50860
Cl        -4.54220        4.73170       -3.98960
C         -3.46910       -1.41760       -3.11390
S         -4.78890       -1.50000       -1.97840
C         -1.53920        0.51280       -5.65280
C         -0.26900        0.25440       -6.07950
S          0.32750       -1.27980       -5.48830
C          0.55370        1.18650       -6.78240
C          0.31920        2.53080       -6.81440
C          1.33500        3.26830       -7.46010
C          1.43240        4.66800       -7.55710
C          0.33470        5.50700       -7.11260
S          0.58130        6.82610       -6.00730
C         -1.10920        7.19230       -5.94380
C         -1.61730        8.33470       -5.13620
C         -1.39270        9.66150       -5.86490
C         -1.80880        6.34660       -6.75220
Cl        -3.51010        6.40460       -6.95900
C         -0.99600        5.38690       -7.41160
Cl        -1.64000        4.25620       -8.53230
C          2.62960        5.17470       -8.04080
C          3.68400        4.34460       -8.49780
C          3.55300        2.94230       -8.47170
C          4.61470        2.07330       -8.94850
S          6.26310        2.27640       -8.42590
C          6.81670        0.94090       -9.37510
C          8.26260        0.59370       -9.44270
C          8.97570        1.44940      -10.49280
C          5.77580        0.38150      -10.05390
C          4.52660        1.01310       -9.80920
Cl         3.08860        0.53210      -10.60670
Cl         5.93550       -0.96040      -11.11120
C          2.38090        2.43370       -7.92490
S          2.04790        0.75800       -7.57920
C          4.79780        5.10460       -8.92480
C          4.63290        6.45150       -8.77600
S          3.04900        6.85940       -8.15540
C          5.62510        7.45550       -8.98930
C          6.92630        7.24770       -9.34430
C          7.70480        8.42940       -9.35520
C          9.07470        8.55980       -9.63970
C          9.90240        7.38870       -9.87370
S         10.93390        7.25960      -11.26660
C         11.50490        5.69560      -10.79670
C         12.53900        4.97820      -11.59160
C         13.94480        5.39920      -11.15590
C         10.93120        5.31570       -9.62010
Cl        11.26530        3.83050       -8.82820
C         10.01820        6.26840       -9.09550
Cl         9.22210        6.04180       -7.58910
C          9.59550        9.84780       -9.64260
C          8.82140       10.99300       -9.33780
C          7.45700       10.85900       -9.03560
C          6.62410       12.01220       -8.73490
S          5.66440       12.07740       -7.28760
C          5.02140       13.63260       -7.69160
C          4.01430       14.29320       -6.81660
C          2.64380       13.62880       -6.96530
C          5.52330       14.05790       -8.88520
C          6.43670       13.14430       -9.47750
Cl         7.15500       13.41940      -11.01210
Cl         5.11130       15.55160       -9.62390
C          6.93340        9.57280       -9.03690
S          5.28080        9.14580       -8.69570
C          9.61730       12.17600       -9.32960
C         10.91020       11.93940       -9.62900
S         11.25940       10.27200       -9.93110
H          1.82080      -10.52480       15.79750
H         -0.06950       -9.25930       17.06020
H         -1.11500       -6.16840       20.52330
H         -2.73830       -6.50630       21.15620
H         -2.29690       -4.05770       21.08730
H         -1.99840       -4.15110       19.34790
H         -3.61110       -4.48500       19.98670
H          1.54140       -9.17380        8.04220
H          0.40670      -10.23590        7.18650
H          0.10530       -7.20610        7.48090
H         -1.01900       -8.27020        6.62870
H          0.62250       -8.05300        6.02020
H         -3.56040       -7.72960       11.03840
H         -9.04540       -3.82540       11.99890
H         -5.05980       -6.55140        9.99110
H         -7.79740       -4.22610        8.56640
H         -5.73060       -6.43550        8.06720
H         -4.78230       -6.64130        5.84670
H         -0.83450      -10.13550        4.18240
H         -2.43270      -10.45850        4.87920
H         -1.94850      -12.05120        3.04250
H         -1.71290      -10.70880        1.91820
H         -3.31010      -11.01170        2.60970
H        -11.06490        0.53500        3.29430
H        -11.56290       -1.03040        3.96480
H        -11.35570       -0.36980        0.98640
H        -11.84360       -1.93000        1.65630
H        -12.85520       -0.50310        1.91060
H         -6.31560       -2.28210        0.40070
H         -2.51020       -4.30650       -1.68310
H          2.42510       -6.93100       -2.03720
H          2.60060       -5.55280       -0.93980
H          1.52430       -7.46050        0.22480
H          0.22080       -7.47260       -0.96680
H          0.41290       -6.09180        0.11670
H         -7.35230        3.97770       -4.03810
H         -8.06760        2.39320       -4.39480
H         -7.26910        2.57500       -6.75580
H         -6.55910        4.15130       -6.39420
H         -8.31110        3.93780       -6.33110
H         -2.09970        1.37120       -5.97000
H         -0.51860        2.98740       -6.32350
H         -2.68360        8.18800       -4.95520
H         -1.10000        8.35760       -4.17520
H         -1.91870        9.66320       -6.81630
H         -1.76180       10.48620       -5.26120
H         -0.33240        9.81180       -6.05380
H          8.72330        0.76030       -8.46760
H          8.35940       -0.46190       -9.70230
H          8.53700        1.28710      -11.47410
H          8.88910        2.50390      -10.24160
H         10.02960        1.18830      -10.53300
H          5.69860        4.66780       -9.31060
H          7.32030        6.28050       -9.59110
H         12.40360        5.20340      -12.65050
H         12.41560        3.90390      -11.44190
H         14.10030        5.16290      -10.10640
H         14.07710        6.46960      -11.29440
H         14.69150        4.87480      -11.74580
H          3.94770       15.34650       -7.09380
H          4.33690       14.22540       -5.77570
H          2.29830       13.70270       -7.99340
H          2.70430       12.57740       -6.69440
H          1.91990       14.11680       -6.31840
H          9.22880       13.14960       -9.09530
H         11.71190       12.64890       -9.69260
