160

C         -1.68760        9.62250       10.62900
C         -0.98970        8.49200       10.85400
C         -1.65540        7.32000       10.38200
C         -1.22450        5.99050       10.44150
C          0.07210        5.59860       11.08500
C         -0.09720        5.44350       12.59720
C         -2.07940        5.04570        9.90500
C         -3.32360        5.36150        9.30370
C         -3.74840        6.69340        9.23270
C         -5.06590        7.07650        8.62930
C         -6.19830        6.90600        9.64370
C         -2.89990        7.63630        9.78450
S         -3.20020        9.35730        9.83240
C         -3.97920        4.20200        8.81130
C         -3.28400        3.04870        9.01360
S         -1.76920        3.32740        9.85300
C         -3.61830        1.73640        8.56650
C         -2.86930        0.60340        8.67410
C         -3.41880       -0.51390        7.99410
C         -2.85760       -1.78580        7.82820
C         -1.54720       -2.16710        8.44880
C         -0.37950       -1.73680        7.55870
C         -3.52570       -2.64430        6.97470
C         -4.74870       -2.31760        6.33570
C         -5.34830       -1.06800        6.55660
C         -6.66480       -0.69980        5.94250
C         -7.82130       -1.31360        6.73350
C         -4.65050       -0.19360        7.36550
S         -5.10010        1.46840        7.66840
C         -5.15190       -3.32620        5.42700
C         -4.26770       -4.36470        5.32940
S         -2.93210       -4.20040        6.45340
C         -4.18710       -5.37620        4.31400
C         -3.04480       -6.20340        4.20200
N         -2.04910       -6.41970        5.06900
N         -1.22210       -7.19760        4.42860
C         -0.03970       -7.71690        5.05260
C         -0.35210       -9.02250        5.77740
N         -1.55260       -7.52100        3.20980
C         -2.72590       -6.91070        3.00820
C         -3.52660       -6.83800        1.84390
C         -4.74280       -6.19910        2.06070
C         -5.05670       -5.50230        3.23640
F         -6.23690       -4.84980        3.23570
F         -5.65800       -6.12780        1.07280
C         -2.97830       -7.14660        0.55380
C         -3.51320       -6.89500       -0.67910
C         -2.55710       -6.89130       -1.72430
C         -2.74130       -6.46030       -3.04720
C         -4.10250       -6.18680       -3.61060
C         -4.81190       -7.49440       -3.96710
C         -1.59040       -6.25760       -3.78290
C         -0.28630       -6.53970       -3.29840
C         -0.11590       -7.08860       -2.01980
C          1.23390       -7.47490       -1.49440
C          1.67710       -8.81650       -2.08040
C         -1.25770       -7.20910       -1.25090
S         -1.27840       -7.57150        0.45780
C          0.71650       -6.05070       -4.17320
C          0.22330       -5.38500       -5.25870
S         -1.52480       -5.46150       -5.33680
C          0.93720       -4.50910       -6.13340
C          2.24200       -4.12160       -6.02400
C          2.57990       -3.01180       -6.83900
C          3.78410       -2.29430       -6.86370
C          4.99270       -2.74440       -6.09940
C          5.72750       -3.85540       -6.85140
C          3.79370       -1.14490       -7.62930
C          2.68450       -0.69620       -8.39120
C          1.49840       -1.44150       -8.40760
C          0.31640       -1.03440       -9.23420
C          0.49690       -1.47270      -10.68870
C          1.47620       -2.57280       -7.61430
S          0.07560       -3.57880       -7.34110
C          2.93950        0.55930       -9.00160
C          4.16990        1.07000       -8.71760
S          5.12210       -0.01330       -7.72020
C          4.68770        2.35170       -9.06830
C          5.87340        2.90360       -8.68900
C          6.05180        4.24080       -9.13240
C          7.13360        5.09630       -8.89340
C          8.34260        4.65360       -8.12590
C          9.31330        3.89420       -9.03210
C          7.04160        6.36520       -9.43640
C          5.93050        6.82000      -10.18800
C          4.84940        5.96530      -10.42720
C          3.62740        6.41070      -11.17330
C          2.65020        7.11900      -10.23290
C          4.94100        4.69640       -9.88580
S          3.71690        3.45770      -10.02200
C          6.10060        8.17570      -10.60340
C          7.26760        8.71100      -10.19450
S          8.24890        7.61900       -9.27910
H         -1.41520       10.62840       10.88390
H         -0.03090        8.47860       11.34000
H          0.40620        4.64840       10.66190
H          0.83400        6.35140       10.87570
H         -0.43580        6.37720       13.04070
H         -0.83320        4.67300       12.81480
H          0.84700        5.16050       13.05640
H         -5.02260        8.12060        8.31140
H         -5.26540        6.46010        7.75090
H         -6.25960        5.87230        9.97640
H         -6.02270        7.53740       10.51160
H         -7.14940        7.18630        9.19780
H         -4.92970        4.21460        8.30820
H         -1.92870        0.58860        9.19550
H         -1.45080       -1.70270        9.43140
H         -1.51890       -3.25160        8.57600
H         -0.38980       -0.65940        7.40990
H          0.56690       -2.01690        8.01490
H         -0.45320       -2.21930        6.58690
H         -6.70490       -1.04820        4.90890
H         -6.76620        0.38790        5.94020
H         -7.80680       -0.95530        7.76040
H         -8.77250       -1.03980        6.28370
H         -7.74090       -2.39810        6.74590
H         -6.04000       -3.25130        4.82870
H          0.31620       -6.96360        5.75780
H          0.69850       -7.88170        4.26570
H         -1.10490       -8.85370        6.54350
H          0.54770       -9.40760        6.24820
H         -0.72410       -9.76230        5.07290
H         -4.54430       -6.63890       -0.83210
H         -4.70260       -5.63350       -2.88590
H         -4.00180       -5.57320       -4.50840
H         -4.23600       -8.04570       -4.70720
H         -4.92570       -8.11930       -3.08430
H         -5.79720       -7.28830       -4.37770
H          1.18210       -7.55450       -0.40670
H          1.96740       -6.70620       -1.74540
H          2.65650       -9.09260       -1.69680
H          0.96730       -9.59530       -1.81170
H          1.73010       -8.76010       -3.16530
H          1.76810       -6.12500       -3.96540
H          2.92790       -4.57850       -5.33460
H          5.66580       -1.89490       -5.96360
H          4.69630       -3.10380       -5.11210
H          5.07300       -4.71090       -7.00300
H          6.60110       -4.17830       -6.29020
H          6.05410       -3.49660       -7.82470
H         -0.58270       -1.50130       -8.82600
H          0.18760        0.04870       -9.19210
H         -0.36430       -1.17550      -11.28190
H          0.60040       -2.55390      -10.74510
H          1.38840       -1.01880      -11.11580
H          2.22640        1.09170       -9.60560
H          6.59040        2.36440       -8.09580
H          8.84620        5.53190       -7.71600
H          8.04110        4.01360       -7.29470
H         10.18690        3.57740       -8.46780
H          8.83210        3.01470       -9.45410
H          9.64100        4.53270       -9.84930
H          3.90910        7.08320      -11.98510
H          3.13690        5.53670      -11.60810
H          3.11900        7.99100       -9.78220
H          1.76580        7.44010      -10.77790
H          2.34120        6.44550       -9.43690
H          5.37380        8.71850      -11.18010
H          7.63680        9.70280      -10.37020
