
  xtb     03012221243D
 energy: -252.132015689228 gnorm: 0.000197425265 xtb: 6.4.1 (unknown)
160176  0     0  0            999 V2000
   -1.6876    9.6225   10.6290 C   0  0  0  0  0  0  0  0  0  0  0  0
   -0.9897    8.4920   10.8540 C   0  0  0  0  0  0  0  0  0  0  0  0
   -1.6554    7.3200   10.3820 C   0  0  0  0  0  0  0  0  0  0  0  0
   -1.2245    5.9905   10.4415 C   0  0  0  0  0  0  0  0  0  0  0  0
    0.0721    5.5986   11.0850 C   0  0  0  0  0  0  0  0  0  0  0  0
   -0.0972    5.4435   12.5972 C   0  0  0  0  0  0  0  0  0  0  0  0
   -2.0794    5.0457    9.9050 C   0  0  0  0  0  0  0  0  0  0  0  0
   -3.3236    5.3615    9.3037 C   0  0  0  0  0  0  0  0  0  0  0  0
   -3.7484    6.6934    9.2327 C   0  0  0  0  0  0  0  0  0  0  0  0
   -5.0659    7.0765    8.6293 C   0  0  0  0  0  0  0  0  0  0  0  0
   -6.1983    6.9060    9.6437 C   0  0  0  0  0  0  0  0  0  0  0  0
   -2.8999    7.6363    9.7845 C   0  0  0  0  0  0  0  0  0  0  0  0
   -3.2002    9.3573    9.8324 S   0  0  0  0  0  0  0  0  0  0  0  0
   -3.9792    4.2020    8.8113 C   0  0  0  0  0  0  0  0  0  0  0  0
   -3.2840    3.0487    9.0136 C   0  0  0  0  0  0  0  0  0  0  0  0
   -1.7692    3.3274    9.8530 S   0  0  0  0  0  0  0  0  0  0  0  0
   -3.6183    1.7364    8.5665 C   0  0  0  0  0  0  0  0  0  0  0  0
   -2.8693    0.6034    8.6741 C   0  0  0  0  0  0  0  0  0  0  0  0
   -3.4188   -0.5139    7.9941 C   0  0  0  0  0  0  0  0  0  0  0  0
   -2.8576   -1.7858    7.8282 C   0  0  0  0  0  0  0  0  0  0  0  0
   -1.5472   -2.1671    8.4488 C   0  0  0  0  0  0  0  0  0  0  0  0
   -0.3795   -1.7368    7.5587 C   0  0  0  0  0  0  0  0  0  0  0  0
   -3.5257   -2.6443    6.9747 C   0  0  0  0  0  0  0  0  0  0  0  0
   -4.7487   -2.3176    6.3357 C   0  0  0  0  0  0  0  0  0  0  0  0
   -5.3483   -1.0680    6.5566 C   0  0  0  0  0  0  0  0  0  0  0  0
   -6.6648   -0.6998    5.9425 C   0  0  0  0  0  0  0  0  0  0  0  0
   -7.8213   -1.3136    6.7335 C   0  0  0  0  0  0  0  0  0  0  0  0
   -4.6505   -0.1936    7.3655 C   0  0  0  0  0  0  0  0  0  0  0  0
   -5.1001    1.4684    7.6684 S   0  0  0  0  0  0  0  0  0  0  0  0
   -5.1519   -3.3262    5.4270 C   0  0  0  0  0  0  0  0  0  0  0  0
   -4.2677   -4.3647    5.3294 C   0  0  0  0  0  0  0  0  0  0  0  0
   -2.9321   -4.2004    6.4534 S   0  0  0  0  0  0  0  0  0  0  0  0
   -4.1871   -5.3762    4.3140 C   0  0  0  0  0  0  0  0  0  0  0  0
   -3.0448   -6.2034    4.2020 C   0  0  0  0  0  0  0  0  0  0  0  0
   -2.0491   -6.4197    5.0690 N   0  0  0  0  0  0  0  0  0  0  0  0
   -1.2221   -7.1976    4.4286 N   0  0  0  0  0  0  0  0  0  0  0  0
   -0.0397   -7.7169    5.0526 C   0  0  0  0  0  0  0  0  0  0  0  0
   -0.3521   -9.0225    5.7774 C   0  0  0  0  0  0  0  0  0  0  0  0
   -1.5526   -7.5210    3.2098 N   0  0  0  0  0  0  0  0  0  0  0  0
   -2.7259   -6.9107    3.0082 C   0  0  0  0  0  0  0  0  0  0  0  0
   -3.5266   -6.8380    1.8439 C   0  0  0  0  0  0  0  0  0  0  0  0
   -4.7428   -6.1991    2.0607 C   0  0  0  0  0  0  0  0  0  0  0  0
   -5.0567   -5.5023    3.2364 C   0  0  0  0  0  0  0  0  0  0  0  0
   -6.2369   -4.8498    3.2357 F   0  0  0  0  0  0  0  0  0  0  0  0
   -5.6580   -6.1278    1.0728 F   0  0  0  0  0  0  0  0  0  0  0  0
   -2.9783   -7.1466    0.5538 C   0  0  0  0  0  0  0  0  0  0  0  0
   -3.5132   -6.8950   -0.6791 C   0  0  0  0  0  0  0  0  0  0  0  0
   -2.5571   -6.8913   -1.7243 C   0  0  0  0  0  0  0  0  0  0  0  0
   -2.7413   -6.4603   -3.0472 C   0  0  0  0  0  0  0  0  0  0  0  0
   -4.1025   -6.1868   -3.6106 C   0  0  0  0  0  0  0  0  0  0  0  0
   -4.8119   -7.4944   -3.9671 C   0  0  0  0  0  0  0  0  0  0  0  0
   -1.5904   -6.2576   -3.7829 C   0  0  0  0  0  0  0  0  0  0  0  0
   -0.2863   -6.5397   -3.2984 C   0  0  0  0  0  0  0  0  0  0  0  0
   -0.1159   -7.0886   -2.0198 C   0  0  0  0  0  0  0  0  0  0  0  0
    1.2339   -7.4749   -1.4944 C   0  0  0  0  0  0  0  0  0  0  0  0
    1.6771   -8.8165   -2.0804 C   0  0  0  0  0  0  0  0  0  0  0  0
   -1.2577   -7.2091   -1.2509 C   0  0  0  0  0  0  0  0  0  0  0  0
   -1.2784   -7.5715    0.4578 S   0  0  0  0  0  0  0  0  0  0  0  0
    0.7165   -6.0507   -4.1732 C   0  0  0  0  0  0  0  0  0  0  0  0
    0.2233   -5.3850   -5.2587 C   0  0  0  0  0  0  0  0  0  0  0  0
   -1.5248   -5.4615   -5.3368 S   0  0  0  0  0  0  0  0  0  0  0  0
    0.9372   -4.5091   -6.1334 C   0  0  0  0  0  0  0  0  0  0  0  0
    2.2420   -4.1216   -6.0240 C   0  0  0  0  0  0  0  0  0  0  0  0
    2.5799   -3.0118   -6.8390 C   0  0  0  0  0  0  0  0  0  0  0  0
    3.7841   -2.2943   -6.8637 C   0  0  0  0  0  0  0  0  0  0  0  0
    4.9927   -2.7444   -6.0994 C   0  0  0  0  0  0  0  0  0  0  0  0
    5.7275   -3.8554   -6.8514 C   0  0  0  0  0  0  0  0  0  0  0  0
    3.7937   -1.1449   -7.6293 C   0  0  0  0  0  0  0  0  0  0  0  0
    2.6845   -0.6962   -8.3912 C   0  0  0  0  0  0  0  0  0  0  0  0
    1.4984   -1.4415   -8.4076 C   0  0  0  0  0  0  0  0  0  0  0  0
    0.3164   -1.0344   -9.2342 C   0  0  0  0  0  0  0  0  0  0  0  0
    0.4969   -1.4727  -10.6887 C   0  0  0  0  0  0  0  0  0  0  0  0
    1.4762   -2.5728   -7.6143 C   0  0  0  0  0  0  0  0  0  0  0  0
    0.0756   -3.5788   -7.3411 S   0  0  0  0  0  0  0  0  0  0  0  0
    2.9395    0.5593   -9.0016 C   0  0  0  0  0  0  0  0  0  0  0  0
    4.1699    1.0700   -8.7176 C   0  0  0  0  0  0  0  0  0  0  0  0
    5.1221   -0.0133   -7.7202 S   0  0  0  0  0  0  0  0  0  0  0  0
    4.6877    2.3517   -9.0683 C   0  0  0  0  0  0  0  0  0  0  0  0
    5.8734    2.9036   -8.6890 C   0  0  0  0  0  0  0  0  0  0  0  0
    6.0518    4.2408   -9.1324 C   0  0  0  0  0  0  0  0  0  0  0  0
    7.1336    5.0963   -8.8934 C   0  0  0  0  0  0  0  0  0  0  0  0
    8.3426    4.6536   -8.1259 C   0  0  0  0  0  0  0  0  0  0  0  0
    9.3133    3.8942   -9.0321 C   0  0  0  0  0  0  0  0  0  0  0  0
    7.0416    6.3652   -9.4364 C   0  0  0  0  0  0  0  0  0  0  0  0
    5.9305    6.8200  -10.1880 C   0  0  0  0  0  0  0  0  0  0  0  0
    4.8494    5.9653  -10.4272 C   0  0  0  0  0  0  0  0  0  0  0  0
    3.6274    6.4107  -11.1733 C   0  0  0  0  0  0  0  0  0  0  0  0
    2.6502    7.1190  -10.2329 C   0  0  0  0  0  0  0  0  0  0  0  0
    4.9410    4.6964   -9.8858 C   0  0  0  0  0  0  0  0  0  0  0  0
    3.7169    3.4577  -10.0220 S   0  0  0  0  0  0  0  0  0  0  0  0
    6.1006    8.1757  -10.6034 C   0  0  0  0  0  0  0  0  0  0  0  0
    7.2676    8.7110  -10.1945 C   0  0  0  0  0  0  0  0  0  0  0  0
    8.2489    7.6190   -9.2791 S   0  0  0  0  0  0  0  0  0  0  0  0
   -1.4152   10.6284   10.8839 H   0  0  0  0  0  0  0  0  0  0  0  0
   -0.0309    8.4786   11.3400 H   0  0  0  0  0  0  0  0  0  0  0  0
    0.4062    4.6484   10.6619 H   0  0  0  0  0  0  0  0  0  0  0  0
    0.8340    6.3514   10.8757 H   0  0  0  0  0  0  0  0  0  0  0  0
   -0.4358    6.3772   13.0407 H   0  0  0  0  0  0  0  0  0  0  0  0
   -0.8332    4.6730   12.8148 H   0  0  0  0  0  0  0  0  0  0  0  0
    0.8470    5.1605   13.0564 H   0  0  0  0  0  0  0  0  0  0  0  0
   -5.0226    8.1206    8.3114 H   0  0  0  0  0  0  0  0  0  0  0  0
   -5.2654    6.4601    7.7509 H   0  0  0  0  0  0  0  0  0  0  0  0
   -6.2596    5.8723    9.9764 H   0  0  0  0  0  0  0  0  0  0  0  0
   -6.0227    7.5374   10.5116 H   0  0  0  0  0  0  0  0  0  0  0  0
   -7.1494    7.1863    9.1978 H   0  0  0  0  0  0  0  0  0  0  0  0
   -4.9297    4.2146    8.3082 H   0  0  0  0  0  0  0  0  0  0  0  0
   -1.9287    0.5886    9.1955 H   0  0  0  0  0  0  0  0  0  0  0  0
   -1.4508   -1.7027    9.4314 H   0  0  0  0  0  0  0  0  0  0  0  0
   -1.5189   -3.2516    8.5760 H   0  0  0  0  0  0  0  0  0  0  0  0
   -0.3898   -0.6594    7.4099 H   0  0  0  0  0  0  0  0  0  0  0  0
    0.5669   -2.0169    8.0149 H   0  0  0  0  0  0  0  0  0  0  0  0
   -0.4532   -2.2193    6.5869 H   0  0  0  0  0  0  0  0  0  0  0  0
   -6.7049   -1.0482    4.9089 H   0  0  0  0  0  0  0  0  0  0  0  0
   -6.7662    0.3879    5.9402 H   0  0  0  0  0  0  0  0  0  0  0  0
   -7.8068   -0.9553    7.7604 H   0  0  0  0  0  0  0  0  0  0  0  0
   -8.7725   -1.0398    6.2837 H   0  0  0  0  0  0  0  0  0  0  0  0
   -7.7409   -2.3981    6.7459 H   0  0  0  0  0  0  0  0  0  0  0  0
   -6.0400   -3.2513    4.8287 H   0  0  0  0  0  0  0  0  0  0  0  0
    0.3162   -6.9636    5.7578 H   0  0  0  0  0  0  0  0  0  0  0  0
    0.6985   -7.8817    4.2657 H   0  0  0  0  0  0  0  0  0  0  0  0
   -1.1049   -8.8537    6.5435 H   0  0  0  0  0  0  0  0  0  0  0  0
    0.5477   -9.4076    6.2482 H   0  0  0  0  0  0  0  0  0  0  0  0
   -0.7241   -9.7623    5.0729 H   0  0  0  0  0  0  0  0  0  0  0  0
   -4.5443   -6.6389   -0.8321 H   0  0  0  0  0  0  0  0  0  0  0  0
   -4.7026   -5.6335   -2.8859 H   0  0  0  0  0  0  0  0  0  0  0  0
   -4.0018   -5.5732   -4.5084 H   0  0  0  0  0  0  0  0  0  0  0  0
   -4.2360   -8.0457   -4.7072 H   0  0  0  0  0  0  0  0  0  0  0  0
   -4.9257   -8.1193   -3.0843 H   0  0  0  0  0  0  0  0  0  0  0  0
   -5.7972   -7.2883   -4.3777 H   0  0  0  0  0  0  0  0  0  0  0  0
    1.1821   -7.5545   -0.4067 H   0  0  0  0  0  0  0  0  0  0  0  0
    1.9674   -6.7062   -1.7454 H   0  0  0  0  0  0  0  0  0  0  0  0
    2.6565   -9.0926   -1.6968 H   0  0  0  0  0  0  0  0  0  0  0  0
    0.9673   -9.5953   -1.8117 H   0  0  0  0  0  0  0  0  0  0  0  0
    1.7301   -8.7601   -3.1653 H   0  0  0  0  0  0  0  0  0  0  0  0
    1.7681   -6.1250   -3.9654 H   0  0  0  0  0  0  0  0  0  0  0  0
    2.9279   -4.5785   -5.3346 H   0  0  0  0  0  0  0  0  0  0  0  0
    5.6658   -1.8949   -5.9636 H   0  0  0  0  0  0  0  0  0  0  0  0
    4.6963   -3.1038   -5.1121 H   0  0  0  0  0  0  0  0  0  0  0  0
    5.0730   -4.7109   -7.0030 H   0  0  0  0  0  0  0  0  0  0  0  0
    6.6011   -4.1783   -6.2902 H   0  0  0  0  0  0  0  0  0  0  0  0
    6.0541   -3.4966   -7.8247 H   0  0  0  0  0  0  0  0  0  0  0  0
   -0.5827   -1.5013   -8.8260 H   0  0  0  0  0  0  0  0  0  0  0  0
    0.1876    0.0487   -9.1921 H   0  0  0  0  0  0  0  0  0  0  0  0
   -0.3643   -1.1755  -11.2819 H   0  0  0  0  0  0  0  0  0  0  0  0
    0.6004   -2.5539  -10.7451 H   0  0  0  0  0  0  0  0  0  0  0  0
    1.3884   -1.0188  -11.1158 H   0  0  0  0  0  0  0  0  0  0  0  0
    2.2264    1.0917   -9.6056 H   0  0  0  0  0  0  0  0  0  0  0  0
    6.5904    2.3644   -8.0958 H   0  0  0  0  0  0  0  0  0  0  0  0
    8.8462    5.5319   -7.7160 H   0  0  0  0  0  0  0  0  0  0  0  0
    8.0411    4.0136   -7.2947 H   0  0  0  0  0  0  0  0  0  0  0  0
   10.1869    3.5774   -8.4678 H   0  0  0  0  0  0  0  0  0  0  0  0
    8.8321    3.0147   -9.4541 H   0  0  0  0  0  0  0  0  0  0  0  0
    9.6410    4.5327   -9.8493 H   0  0  0  0  0  0  0  0  0  0  0  0
    3.9091    7.0832  -11.9851 H   0  0  0  0  0  0  0  0  0  0  0  0
    3.1369    5.5367  -11.6081 H   0  0  0  0  0  0  0  0  0  0  0  0
    3.1190    7.9910   -9.7822 H   0  0  0  0  0  0  0  0  0  0  0  0
    1.7658    7.4401  -10.7779 H   0  0  0  0  0  0  0  0  0  0  0  0
    2.3412    6.4455   -9.4369 H   0  0  0  0  0  0  0  0  0  0  0  0
    5.3738    8.7185  -11.1801 H   0  0  0  0  0  0  0  0  0  0  0  0
    7.6368    9.7028  -10.3702 H   0  0  0  0  0  0  0  0  0  0  0  0
  1  2  2  0  0  0  0
  2  3  1  0  0  0  0
  3  4  2  0  0  0  0
  4  5  1  0  0  0  0
  5  6  1  0  0  0  0
  4  7  1  0  0  0  0
  7  8  2  0  0  0  0
  8  9  1  0  0  0  0
  9 10  1  0  0  0  0
 10 11  1  0  0  0  0
  9 12  2  0  0  0  0
 12 13  1  0  0  0  0
  8 14  1  0  0  0  0
 14 15  2  0  0  0  0
 15 16  1  0  0  0  0
 15 17  1  0  0  0  0
 17 18  2  0  0  0  0
 18 19  1  0  0  0  0
 19 20  2  0  0  0  0
 20 21  1  0  0  0  0
 21 22  1  0  0  0  0
 20 23  1  0  0  0  0
 23 24  2  0  0  0  0
 24 25  1  0  0  0  0
 25 26  1  0  0  0  0
 26 27  1  0  0  0  0
 25 28  2  0  0  0  0
 28 29  1  0  0  0  0
 24 30  1  0  0  0  0
 30 31  2  0  0  0  0
 31 32  1  0  0  0  0
 31 33  1  0  0  0  0
 33 34  1  0  0  0  0
 34 35  2  0  0  0  0
 35 36  1  0  0  0  0
 36 37  1  0  0  0  0
 37 38  1  0  0  0  0
 36 39  1  0  0  0  0
 39 40  2  0  0  0  0
 40 41  1  0  0  0  0
 41 42  2  0  0  0  0
 42 43  1  0  0  0  0
 43 44  1  0  0  0  0
 42 45  1  0  0  0  0
 41 46  1  0  0  0  0
 46 47  2  0  0  0  0
 47 48  1  0  0  0  0
 48 49  2  0  0  0  0
 49 50  1  0  0  0  0
 50 51  1  0  0  0  0
 49 52  1  0  0  0  0
 52 53  2  0  0  0  0
 53 54  1  0  0  0  0
 54 55  1  0  0  0  0
 55 56  1  0  0  0  0
 54 57  2  0  0  0  0
 57 58  1  0  0  0  0
 53 59  1  0  0  0  0
 59 60  2  0  0  0  0
 60 61  1  0  0  0  0
 60 62  1  0  0  0  0
 62 63  2  0  0  0  0
 63 64  1  0  0  0  0
 64 65  2  0  0  0  0
 65 66  1  0  0  0  0
 66 67  1  0  0  0  0
 65 68  1  0  0  0  0
 68 69  2  0  0  0  0
 69 70  1  0  0  0  0
 70 71  1  0  0  0  0
 71 72  1  0  0  0  0
 70 73  2  0  0  0  0
 73 74  1  0  0  0  0
 69 75  1  0  0  0  0
 75 76  2  0  0  0  0
 76 77  1  0  0  0  0
 76 78  1  0  0  0  0
 78 79  2  0  0  0  0
 79 80  1  0  0  0  0
 80 81  2  0  0  0  0
 81 82  1  0  0  0  0
 82 83  1  0  0  0  0
 81 84  1  0  0  0  0
 84 85  2  0  0  0  0
 85 86  1  0  0  0  0
 86 87  1  0  0  0  0
 87 88  1  0  0  0  0
 86 89  2  0  0  0  0
 89 90  1  0  0  0  0
 85 91  1  0  0  0  0
 91 92  2  0  0  0  0
 92 93  1  0  0  0  0
 13  1  1  0  0  0  0
 29 17  1  0  0  0  0
 43 33  2  0  0  0  0
 58 46  1  0  0  0  0
 74 62  1  0  0  0  0
 90 78  1  0  0  0  0
 12  3  1  0  0  0  0
 28 19  1  0  0  0  0
 40 34  1  0  0  0  0
 57 48  1  0  0  0  0
 73 64  1  0  0  0  0
 89 80  1  0  0  0  0
 16  7  1  0  0  0  0
 32 23  1  0  0  0  0
 61 52  1  0  0  0  0
 77 68  1  0  0  0  0
 93 84  1  0  0  0  0
  1 94  1  0  0  0  0
  2 95  1  0  0  0  0
  5 96  1  0  0  0  0
  5 97  1  0  0  0  0
  6 98  1  0  0  0  0
  6 99  1  0  0  0  0
  6100  1  0  0  0  0
 10101  1  0  0  0  0
 10102  1  0  0  0  0
 11103  1  0  0  0  0
 11104  1  0  0  0  0
 11105  1  0  0  0  0
 14106  1  0  0  0  0
 18107  1  0  0  0  0
 21108  1  0  0  0  0
 21109  1  0  0  0  0
 22110  1  0  0  0  0
 22111  1  0  0  0  0
 22112  1  0  0  0  0
 26113  1  0  0  0  0
 26114  1  0  0  0  0
 27115  1  0  0  0  0
 27116  1  0  0  0  0
 27117  1  0  0  0  0
 30118  1  0  0  0  0
 37119  1  0  0  0  0
 37120  1  0  0  0  0
 38121  1  0  0  0  0
 38122  1  0  0  0  0
 38123  1  0  0  0  0
 47124  1  0  0  0  0
 50125  1  0  0  0  0
 50126  1  0  0  0  0
 51127  1  0  0  0  0
 51128  1  0  0  0  0
 51129  1  0  0  0  0
 55130  1  0  0  0  0
 55131  1  0  0  0  0
 56132  1  0  0  0  0
 56133  1  0  0  0  0
 56134  1  0  0  0  0
 59135  1  0  0  0  0
 63136  1  0  0  0  0
 66137  1  0  0  0  0
 66138  1  0  0  0  0
 67139  1  0  0  0  0
 67140  1  0  0  0  0
 67141  1  0  0  0  0
 71142  1  0  0  0  0
 71143  1  0  0  0  0
 72144  1  0  0  0  0
 72145  1  0  0  0  0
 72146  1  0  0  0  0
 75147  1  0  0  0  0
 79148  1  0  0  0  0
 82149  1  0  0  0  0
 82150  1  0  0  0  0
 83151  1  0  0  0  0
 83152  1  0  0  0  0
 83153  1  0  0  0  0
 87154  1  0  0  0  0
 87155  1  0  0  0  0
 88156  1  0  0  0  0
 88157  1  0  0  0  0
 88158  1  0  0  0  0
 91159  1  0  0  0  0
 92160  1  0  0  0  0
M  END
