
  xtb     03022213523D
 energy: -450.831547932358 gnorm: 0.000497283776 xtb: 6.4.1 (unknown)
224250  0     0  0            999 V2000
    2.1994   -9.1607    7.8104 C   0  0  0  0  0  0  0  0  0  0  0  0
    2.7495   -8.4807    6.7840 C   0  0  0  0  0  0  0  0  0  0  0  0
    1.8407   -8.2782    5.7048 C   0  0  0  0  0  0  0  0  0  0  0  0
    2.0550   -7.5818    4.5041 C   0  0  0  0  0  0  0  0  0  0  0  0
    3.2706   -6.8147    4.2894 C   0  0  0  0  0  0  0  0  0  0  0  0
    4.2031   -6.9349    2.8262 S   0  0  0  0  0  0  0  0  0  0  0  0
    5.3543   -5.7611    3.3688 C   0  0  0  0  0  0  0  0  0  0  0  0
    6.4944   -5.3285    2.5138 C   0  0  0  0  0  0  0  0  0  0  0  0
    6.1895   -4.0041    1.8086 C   0  0  0  0  0  0  0  0  0  0  0  0
    5.0169   -5.3025    4.6084 C   0  0  0  0  0  0  0  0  0  0  0  0
    5.9246   -4.1314    5.4748 Cl  0  0  0  0  0  0  0  0  0  0  0  0
    3.8363   -5.8940    5.1309 C   0  0  0  0  0  0  0  0  0  0  0  0
    3.1607   -5.4042    6.6307 Cl  0  0  0  0  0  0  0  0  0  0  0  0
    1.0263   -7.6121    3.5692 C   0  0  0  0  0  0  0  0  0  0  0  0
   -0.2292   -8.2147    3.8256 C   0  0  0  0  0  0  0  0  0  0  0  0
   -0.4650   -8.8559    5.0525 C   0  0  0  0  0  0  0  0  0  0  0  0
   -1.7639   -9.4300    5.3646 C   0  0  0  0  0  0  0  0  0  0  0  0
   -3.2074   -8.4620    5.2810 S   0  0  0  0  0  0  0  0  0  0  0  0
   -4.2110   -9.7714    5.8008 C   0  0  0  0  0  0  0  0  0  0  0  0
   -5.6737   -9.5865    6.0076 C   0  0  0  0  0  0  0  0  0  0  0  0
   -5.9619   -9.0423    7.4090 C   0  0  0  0  0  0  0  0  0  0  0  0
   -3.4573  -10.8843    6.0258 C   0  0  0  0  0  0  0  0  0  0  0  0
   -2.0709  -10.6966    5.7766 C   0  0  0  0  0  0  0  0  0  0  0  0
   -0.9350  -11.9731    5.9018 Cl  0  0  0  0  0  0  0  0  0  0  0  0
   -4.1020  -12.3854    6.5505 Cl  0  0  0  0  0  0  0  0  0  0  0  0
    0.5889   -8.8896    5.9583 C   0  0  0  0  0  0  0  0  0  0  0  0
    0.5542   -9.6148    7.5395 S   0  0  0  0  0  0  0  0  0  0  0  0
   -1.1229   -8.0664    2.7336 C   0  0  0  0  0  0  0  0  0  0  0  0
   -0.5847   -7.3926    1.6812 C   0  0  0  0  0  0  0  0  0  0  0  0
    1.0681   -6.8874    1.9874 S   0  0  0  0  0  0  0  0  0  0  0  0
   -1.2111   -6.9867    0.4638 C   0  0  0  0  0  0  0  0  0  0  0  0
   -0.5880   -6.5229   -0.6551 C   0  0  0  0  0  0  0  0  0  0  0  0
   -1.4772   -5.9826   -1.6143 C   0  0  0  0  0  0  0  0  0  0  0  0
   -1.1552   -5.3435   -2.8222 C   0  0  0  0  0  0  0  0  0  0  0  0
    0.2236   -5.1127   -3.2193 C   0  0  0  0  0  0  0  0  0  0  0  0
    0.8027   -5.4834   -4.8138 S   0  0  0  0  0  0  0  0  0  0  0  0
    2.3735   -4.8392   -4.4760 C   0  0  0  0  0  0  0  0  0  0  0  0
    3.4184   -4.7692   -5.5338 C   0  0  0  0  0  0  0  0  0  0  0  0
    3.2450   -3.4980   -6.3694 C   0  0  0  0  0  0  0  0  0  0  0  0
    2.4291   -4.3635   -3.1998 C   0  0  0  0  0  0  0  0  0  0  0  0
    3.8181   -3.6387   -2.5002 Cl  0  0  0  0  0  0  0  0  0  0  0  0
    1.2117   -4.5169   -2.4850 C   0  0  0  0  0  0  0  0  0  0  0  0
    0.9920   -3.9050   -0.9010 Cl  0  0  0  0  0  0  0  0  0  0  0  0
   -2.2074   -4.8096   -3.5514 C   0  0  0  0  0  0  0  0  0  0  0  0
   -3.5537   -4.8610   -3.1180 C   0  0  0  0  0  0  0  0  0  0  0  0
   -3.8818   -5.5426   -1.9313 C   0  0  0  0  0  0  0  0  0  0  0  0
   -5.2632   -5.6340   -1.4870 C   0  0  0  0  0  0  0  0  0  0  0  0
   -6.4784   -6.3084   -2.5341 S   0  0  0  0  0  0  0  0  0  0  0  0
   -7.7252   -6.1000   -1.3525 C   0  0  0  0  0  0  0  0  0  0  0  0
   -9.1174   -6.5623   -1.6059 C   0  0  0  0  0  0  0  0  0  0  0  0
   -9.2757   -8.0407   -1.2423 C   0  0  0  0  0  0  0  0  0  0  0  0
   -7.2133   -5.5413   -0.2200 C   0  0  0  0  0  0  0  0  0  0  0  0
   -5.8202   -5.2691   -0.2931 C   0  0  0  0  0  0  0  0  0  0  0  0
   -4.9753   -4.4753    0.9689 Cl  0  0  0  0  0  0  0  0  0  0  0  0
   -8.1474   -5.1804    1.1733 Cl  0  0  0  0  0  0  0  0  0  0  0  0
   -2.8299   -6.0807   -1.1997 C   0  0  0  0  0  0  0  0  0  0  0  0
   -2.9557   -6.8793    0.3435 S   0  0  0  0  0  0  0  0  0  0  0  0
   -4.3868   -4.0091   -3.8892 C   0  0  0  0  0  0  0  0  0  0  0  0
   -3.7176   -3.3345   -4.8671 C   0  0  0  0  0  0  0  0  0  0  0  0
   -2.0274   -3.8073   -4.9606 S   0  0  0  0  0  0  0  0  0  0  0  0
   -4.1048   -2.1525   -5.5680 C   0  0  0  0  0  0  0  0  0  0  0  0
   -3.3337   -1.4633   -6.4585 C   0  0  0  0  0  0  0  0  0  0  0  0
   -3.7211   -0.1119   -6.6239 C   0  0  0  0  0  0  0  0  0  0  0  0
   -2.9844    0.9231   -7.2330 C   0  0  0  0  0  0  0  0  0  0  0  0
   -1.7700    0.6798   -7.9924 C   0  0  0  0  0  0  0  0  0  0  0  0
   -0.4785   -0.3277   -7.4052 S   0  0  0  0  0  0  0  0  0  0  0  0
    0.5108   -0.0084   -8.7869 C   0  0  0  0  0  0  0  0  0  0  0  0
    1.8368   -0.6643   -8.9550 C   0  0  0  0  0  0  0  0  0  0  0  0
    1.6937   -1.9999   -9.6889 C   0  0  0  0  0  0  0  0  0  0  0  0
   -0.1369    0.8246   -9.6498 C   0  0  0  0  0  0  0  0  0  0  0  0
    0.5237    1.3555  -11.1413 Cl  0  0  0  0  0  0  0  0  0  0  0  0
   -1.4219    1.2265   -9.1984 C   0  0  0  0  0  0  0  0  0  0  0  0
   -2.4484    2.2326  -10.1306 Cl  0  0  0  0  0  0  0  0  0  0  0  0
   -3.3932    2.2232   -6.9597 C   0  0  0  0  0  0  0  0  0  0  0  0
   -4.5555    2.5191   -6.2069 C   0  0  0  0  0  0  0  0  0  0  0  0
   -5.3325    1.4832   -5.6624 C   0  0  0  0  0  0  0  0  0  0  0  0
   -6.4059    1.7963   -4.7238 C   0  0  0  0  0  0  0  0  0  0  0  0
   -8.0664    1.3882   -5.0133 S   0  0  0  0  0  0  0  0  0  0  0  0
   -8.5825    2.1105   -3.5262 C   0  0  0  0  0  0  0  0  0  0  0  0
  -10.0224    2.1672   -3.1518 C   0  0  0  0  0  0  0  0  0  0  0  0
  -10.6883    3.4197   -3.7271 C   0  0  0  0  0  0  0  0  0  0  0  0
   -7.5163    2.6326   -2.8565 C   0  0  0  0  0  0  0  0  0  0  0  0
   -6.2787    2.4466   -3.5279 C   0  0  0  0  0  0  0  0  0  0  0  0
   -4.7789    2.9452   -2.8515 Cl  0  0  0  0  0  0  0  0  0  0  0  0
   -7.6248    3.4509   -1.3522 Cl  0  0  0  0  0  0  0  0  0  0  0  0
   -4.8820    0.1901   -5.8669 C   0  0  0  0  0  0  0  0  0  0  0  0
   -5.4800   -1.2105   -5.0182 S   0  0  0  0  0  0  0  0  0  0  0  0
   -4.6245    3.8849   -5.8484 C   0  0  0  0  0  0  0  0  0  0  0  0
   -3.4953    4.5867   -6.1638 C   0  0  0  0  0  0  0  0  0  0  0  0
   -2.4149    3.6516   -7.1872 S   0  0  0  0  0  0  0  0  0  0  0  0
   -3.0089    5.6852   -5.3926 C   0  0  0  0  0  0  0  0  0  0  0  0
   -1.7122    6.0979   -5.2678 C   0  0  0  0  0  0  0  0  0  0  0  0
   -1.4234    6.6550   -3.9953 C   0  0  0  0  0  0  0  0  0  0  0  0
   -0.1465    6.8489   -3.4390 C   0  0  0  0  0  0  0  0  0  0  0  0
    1.0346    6.8350   -4.2891 C   0  0  0  0  0  0  0  0  0  0  0  0
    1.2020    8.0010   -5.5683 S   0  0  0  0  0  0  0  0  0  0  0  0
    2.7336    7.3606   -6.0564 C   0  0  0  0  0  0  0  0  0  0  0  0
    3.5180    7.9880   -7.1552 C   0  0  0  0  0  0  0  0  0  0  0  0
    4.3424    9.1674   -6.6336 C   0  0  0  0  0  0  0  0  0  0  0  0
    3.0786    6.3055   -5.2659 C   0  0  0  0  0  0  0  0  0  0  0  0
    4.5287    5.4068   -5.4486 Cl  0  0  0  0  0  0  0  0  0  0  0  0
    2.1149    5.9986   -4.2669 C   0  0  0  0  0  0  0  0  0  0  0  0
    2.2767    4.6531   -3.2169 Cl  0  0  0  0  0  0  0  0  0  0  0  0
   -0.0727    6.9405   -2.0556 C   0  0  0  0  0  0  0  0  0  0  0  0
   -1.2175    6.8978   -1.2159 C   0  0  0  0  0  0  0  0  0  0  0  0
   -2.5044    6.8175   -1.7825 C   0  0  0  0  0  0  0  0  0  0  0  0
   -3.6990    6.6394   -0.9771 C   0  0  0  0  0  0  0  0  0  0  0  0
   -3.7574    5.4256    0.2665 S   0  0  0  0  0  0  0  0  0  0  0  0
   -5.4285    5.7188    0.5858 C   0  0  0  0  0  0  0  0  0  0  0  0
   -6.1214    5.0016    1.6899 C   0  0  0  0  0  0  0  0  0  0  0  0
   -5.7227    5.5965    3.0429 C   0  0  0  0  0  0  0  0  0  0  0  0
   -5.9034    6.7033   -0.2295 C   0  0  0  0  0  0  0  0  0  0  0  0
   -4.9310    7.2167   -1.1275 C   0  0  0  0  0  0  0  0  0  0  0  0
   -5.2676    8.4927   -2.2201 Cl  0  0  0  0  0  0  0  0  0  0  0  0
   -7.5214    7.2723   -0.2029 Cl  0  0  0  0  0  0  0  0  0  0  0  0
   -2.5692    6.6947   -3.1633 C   0  0  0  0  0  0  0  0  0  0  0  0
   -3.9936    6.2035   -4.0307 S   0  0  0  0  0  0  0  0  0  0  0  0
   -0.8722    6.7980    0.1496 C   0  0  0  0  0  0  0  0  0  0  0  0
    0.4770    6.7134    0.3626 C   0  0  0  0  0  0  0  0  0  0  0  0
    1.3933    6.9312   -1.1201 S   0  0  0  0  0  0  0  0  0  0  0  0
    1.1225    6.2371    1.5378 C   0  0  0  0  0  0  0  0  0  0  0  0
    2.8369    5.8844    1.4961 S   0  0  0  0  0  0  0  0  0  0  0  0
    2.7813    5.0076    3.0024 C   0  0  0  0  0  0  0  0  0  0  0  0
    1.5145    5.0533    3.5172 C   0  0  0  0  0  0  0  0  0  0  0  0
    0.5717    5.7549    2.7123 C   0  0  0  0  0  0  0  0  0  0  0  0
   -0.7439    5.7164    3.3471 C   0  0  0  0  0  0  0  0  0  0  0  0
   -1.7900    6.1875    2.9631 O   0  0  0  0  0  0  0  0  0  0  0  0
   -0.5711    4.9441    4.6488 C   0  0  0  0  0  0  0  0  0  0  0  0
    0.8839    4.5036    4.7187 C   0  0  0  0  0  0  0  0  0  0  0  0
    1.3878    3.8367    5.5864 O   0  0  0  0  0  0  0  0  0  0  0  0
    3.8816    4.1977    3.4672 C   0  0  0  0  0  0  0  0  0  0  0  0
    3.8710    2.8413    3.4626 C   0  0  0  0  0  0  0  0  0  0  0  0
    5.0871    2.2676    3.9182 C   0  0  0  0  0  0  0  0  0  0  0  0
    5.4387    0.9091    3.9465 C   0  0  0  0  0  0  0  0  0  0  0  0
    4.5935   -0.0814    3.3025 C   0  0  0  0  0  0  0  0  0  0  0  0
    4.0655   -1.5429    4.0768 S   0  0  0  0  0  0  0  0  0  0  0  0
    3.2004   -2.0703    2.6705 C   0  0  0  0  0  0  0  0  0  0  0  0
    2.4474   -3.3549    2.6570 C   0  0  0  0  0  0  0  0  0  0  0  0
    1.4832   -3.4668    3.8349 C   0  0  0  0  0  0  0  0  0  0  0  0
    3.3349   -1.1578    1.6663 C   0  0  0  0  0  0  0  0  0  0  0  0
    2.6432   -1.3166    0.1068 Cl  0  0  0  0  0  0  0  0  0  0  0  0
    4.1209   -0.0308    2.0197 C   0  0  0  0  0  0  0  0  0  0  0  0
    4.4904    1.2169    0.8986 Cl  0  0  0  0  0  0  0  0  0  0  0  0
    6.6566    0.5907    4.5324 C   0  0  0  0  0  0  0  0  0  0  0  0
    7.5508    1.5718    5.0235 C   0  0  0  0  0  0  0  0  0  0  0  0
    7.2451    2.9356    4.8875 C   0  0  0  0  0  0  0  0  0  0  0  0
    8.1949    3.9661    5.2726 C   0  0  0  0  0  0  0  0  0  0  0  0
    7.7440    5.2647    6.3358 S   0  0  0  0  0  0  0  0  0  0  0  0
    9.3207    5.9733    6.2638 C   0  0  0  0  0  0  0  0  0  0  0  0
    9.6242    7.2479    6.9705 C   0  0  0  0  0  0  0  0  0  0  0  0
    9.1819    8.4506    6.1333 C   0  0  0  0  0  0  0  0  0  0  0  0
   10.1333    5.2429    5.4487 C   0  0  0  0  0  0  0  0  0  0  0  0
    9.5008    4.1006    4.8895 C   0  0  0  0  0  0  0  0  0  0  0  0
   10.2917    3.0567    3.7800 Cl  0  0  0  0  0  0  0  0  0  0  0  0
   11.7696    5.6428    5.1196 Cl  0  0  0  0  0  0  0  0  0  0  0  0
    6.0031    3.2529    4.3502 C   0  0  0  0  0  0  0  0  0  0  0  0
    5.3858    4.8583    4.0674 S   0  0  0  0  0  0  0  0  0  0  0  0
    8.7097    0.9767    5.6039 C   0  0  0  0  0  0  0  0  0  0  0  0
    8.7058   -0.3689    5.5183 C   0  0  0  0  0  0  0  0  0  0  0  0
    7.3024   -1.0113    4.7383 S   0  0  0  0  0  0  0  0  0  0  0  0
    2.6628   -9.4443    8.7352 H   0  0  0  0  0  0  0  0  0  0  0  0
    3.7700   -8.1459    6.7709 H   0  0  0  0  0  0  0  0  0  0  0  0
    7.3768   -5.2016    3.1447 H   0  0  0  0  0  0  0  0  0  0  0  0
    6.7012   -6.1007    1.7717 H   0  0  0  0  0  0  0  0  0  0  0  0
    7.0341   -3.7109    1.1912 H   0  0  0  0  0  0  0  0  0  0  0  0
    5.3124   -4.1008    1.1732 H   0  0  0  0  0  0  0  0  0  0  0  0
    6.0085   -3.2208    2.5401 H   0  0  0  0  0  0  0  0  0  0  0  0
   -6.0598   -8.8903    5.2610 H   0  0  0  0  0  0  0  0  0  0  0  0
   -6.1704  -10.5502    5.8801 H   0  0  0  0  0  0  0  0  0  0  0  0
   -7.0321   -8.9143    7.5468 H   0  0  0  0  0  0  0  0  0  0  0  0
   -5.4740   -8.0803    7.5477 H   0  0  0  0  0  0  0  0  0  0  0  0
   -5.5927   -9.7317    8.1641 H   0  0  0  0  0  0  0  0  0  0  0  0
   -2.1266   -8.4508    2.7226 H   0  0  0  0  0  0  0  0  0  0  0  0
    0.4789   -6.5575   -0.7755 H   0  0  0  0  0  0  0  0  0  0  0  0
    3.3414   -5.6439   -6.1812 H   0  0  0  0  0  0  0  0  0  0  0  0
    4.4016   -4.7668   -5.0601 H   0  0  0  0  0  0  0  0  0  0  0  0
    2.2622   -3.4867   -6.8343 H   0  0  0  0  0  0  0  0  0  0  0  0
    4.0035   -3.4544   -7.1463 H   0  0  0  0  0  0  0  0  0  0  0  0
    3.3402   -2.6186   -5.7374 H   0  0  0  0  0  0  0  0  0  0  0  0
   -9.3617   -6.4187   -2.6597 H   0  0  0  0  0  0  0  0  0  0  0  0
   -9.8008   -5.9626   -1.0018 H   0  0  0  0  0  0  0  0  0  0  0  0
   -9.0463   -8.1963   -0.1913 H   0  0  0  0  0  0  0  0  0  0  0  0
   -8.6018   -8.6503   -1.8395 H   0  0  0  0  0  0  0  0  0  0  0  0
  -10.2964   -8.3635   -1.4282 H   0  0  0  0  0  0  0  0  0  0  0  0
   -5.4277   -3.8417   -3.6766 H   0  0  0  0  0  0  0  0  0  0  0  0
   -2.4587   -1.8959   -6.9080 H   0  0  0  0  0  0  0  0  0  0  0  0
    2.2848   -0.8330   -7.9747 H   0  0  0  0  0  0  0  0  0  0  0  0
    2.4865   -0.0015   -9.5296 H   0  0  0  0  0  0  0  0  0  0  0  0
    2.6664   -2.4713   -9.7989 H   0  0  0  0  0  0  0  0  0  0  0  0
    1.0410   -2.6691   -9.1333 H   0  0  0  0  0  0  0  0  0  0  0  0
    1.2690   -1.8424  -10.6769 H   0  0  0  0  0  0  0  0  0  0  0  0
  -10.1003    2.1809   -2.0630 H   0  0  0  0  0  0  0  0  0  0  0  0
  -10.5300    1.2782   -3.5294 H   0  0  0  0  0  0  0  0  0  0  0  0
  -10.2009    4.3136   -3.3467 H   0  0  0  0  0  0  0  0  0  0  0  0
  -11.7370    3.4477   -3.4443 H   0  0  0  0  0  0  0  0  0  0  0  0
  -10.6187    3.4199   -4.8123 H   0  0  0  0  0  0  0  0  0  0  0  0
   -5.4205    4.3039   -5.2605 H   0  0  0  0  0  0  0  0  0  0  0  0
   -0.9558    5.8746   -5.9994 H   0  0  0  0  0  0  0  0  0  0  0  0
    4.1843    7.2362   -7.5823 H   0  0  0  0  0  0  0  0  0  0  0  0
    2.8373    8.3369   -7.9336 H   0  0  0  0  0  0  0  0  0  0  0  0
    3.6893    9.9241   -6.2053 H   0  0  0  0  0  0  0  0  0  0  0  0
    5.0361    8.8323   -5.8667 H   0  0  0  0  0  0  0  0  0  0  0  0
    4.9093    9.6142   -7.4457 H   0  0  0  0  0  0  0  0  0  0  0  0
   -7.2002    5.0867    1.5472 H   0  0  0  0  0  0  0  0  0  0  0  0
   -5.8480    3.9447    1.6629 H   0  0  0  0  0  0  0  0  0  0  0  0
   -6.1913    5.0392    3.8497 H   0  0  0  0  0  0  0  0  0  0  0  0
   -4.6427    5.5589    3.1664 H   0  0  0  0  0  0  0  0  0  0  0  0
   -6.0405    6.6343    3.1051 H   0  0  0  0  0  0  0  0  0  0  0  0
   -1.5858    6.7267    0.9494 H   0  0  0  0  0  0  0  0  0  0  0  0
   -1.2440    4.0846    4.6827 H   0  0  0  0  0  0  0  0  0  0  0  0
   -0.8263    5.5728    5.5050 H   0  0  0  0  0  0  0  0  0  0  0  0
    3.0218    2.2646    3.1453 H   0  0  0  0  0  0  0  0  0  0  0  0
    1.8992   -3.4229    1.7164 H   0  0  0  0  0  0  0  0  0  0  0  0
    3.1534   -4.1880    2.6933 H   0  0  0  0  0  0  0  0  0  0  0  0
    2.0258   -3.4004    4.7745 H   0  0  0  0  0  0  0  0  0  0  0  0
    0.7478   -2.6667    3.8025 H   0  0  0  0  0  0  0  0  0  0  0  0
    0.9619   -4.4199    3.8004 H   0  0  0  0  0  0  0  0  0  0  0  0
    9.1049    7.2633    7.9302 H   0  0  0  0  0  0  0  0  0  0  0  0
   10.6991    7.3021    7.1518 H   0  0  0  0  0  0  0  0  0  0  0  0
    8.1116    8.4059    5.9465 H   0  0  0  0  0  0  0  0  0  0  0  0
    9.4078    9.3746    6.6585 H   0  0  0  0  0  0  0  0  0  0  0  0
    9.7013    8.4561    5.1784 H   0  0  0  0  0  0  0  0  0  0  0  0
    9.4938    1.5416    6.0730 H   0  0  0  0  0  0  0  0  0  0  0  0
    9.4511   -1.0532    5.8741 H   0  0  0  0  0  0  0  0  0  0  0  0
  1  2  2  0  0  0  0
  2  3  1  0  0  0  0
  3  4  2  0  0  0  0
  4  5  1  0  0  0  0
  5  6  1  0  0  0  0
  6  7  1  0  0  0  0
  7  8  1  0  0  0  0
  8  9  1  0  0  0  0
  7 10  2  0  0  0  0
 10 11  1  0  0  0  0
 10 12  1  0  0  0  0
 12 13  1  0  0  0  0
  4 14  1  0  0  0  0
 14 15  2  0  0  0  0
 15 16  1  0  0  0  0
 16 17  1  0  0  0  0
 17 18  1  0  0  0  0
 18 19  1  0  0  0  0
 19 20  1  0  0  0  0
 20 21  1  0  0  0  0
 19 22  2  0  0  0  0
 22 23  1  0  0  0  0
 23 24  1  0  0  0  0
 22 25  1  0  0  0  0
 16 26  2  0  0  0  0
 26 27  1  0  0  0  0
 15 28  1  0  0  0  0
 28 29  2  0  0  0  0
 29 30  1  0  0  0  0
 29 31  1  0  0  0  0
 31 32  2  0  0  0  0
 32 33  1  0  0  0  0
 33 34  2  0  0  0  0
 34 35  1  0  0  0  0
 35 36  1  0  0  0  0
 36 37  1  0  0  0  0
 37 38  1  0  0  0  0
 38 39  1  0  0  0  0
 37 40  2  0  0  0  0
 40 41  1  0  0  0  0
 40 42  1  0  0  0  0
 42 43  1  0  0  0  0
 34 44  1  0  0  0  0
 44 45  2  0  0  0  0
 45 46  1  0  0  0  0
 46 47  1  0  0  0  0
 47 48  1  0  0  0  0
 48 49  1  0  0  0  0
 49 50  1  0  0  0  0
 50 51  1  0  0  0  0
 49 52  2  0  0  0  0
 52 53  1  0  0  0  0
 53 54  1  0  0  0  0
 52 55  1  0  0  0  0
 46 56  2  0  0  0  0
 56 57  1  0  0  0  0
 45 58  1  0  0  0  0
 58 59  2  0  0  0  0
 59 60  1  0  0  0  0
 59 61  1  0  0  0  0
 61 62  2  0  0  0  0
 62 63  1  0  0  0  0
 63 64  2  0  0  0  0
 64 65  1  0  0  0  0
 65 66  1  0  0  0  0
 66 67  1  0  0  0  0
 67 68  1  0  0  0  0
 68 69  1  0  0  0  0
 67 70  2  0  0  0  0
 70 71  1  0  0  0  0
 70 72  1  0  0  0  0
 72 73  1  0  0  0  0
 64 74  1  0  0  0  0
 74 75  2  0  0  0  0
 75 76  1  0  0  0  0
 76 77  1  0  0  0  0
 77 78  1  0  0  0  0
 78 79  1  0  0  0  0
 79 80  1  0  0  0  0
 80 81  1  0  0  0  0
 79 82  2  0  0  0  0
 82 83  1  0  0  0  0
 83 84  1  0  0  0  0
 82 85  1  0  0  0  0
 76 86  2  0  0  0  0
 86 87  1  0  0  0  0
 75 88  1  0  0  0  0
 88 89  2  0  0  0  0
 89 90  1  0  0  0  0
 89 91  1  0  0  0  0
 91 92  2  0  0  0  0
 92 93  1  0  0  0  0
 93 94  2  0  0  0  0
 94 95  1  0  0  0  0
 95 96  1  0  0  0  0
 96 97  1  0  0  0  0
 97 98  1  0  0  0  0
 98 99  1  0  0  0  0
 97100  2  0  0  0  0
100101  1  0  0  0  0
100102  1  0  0  0  0
102103  1  0  0  0  0
 94104  1  0  0  0  0
104105  2  0  0  0  0
105106  1  0  0  0  0
106107  1  0  0  0  0
107108  1  0  0  0  0
108109  1  0  0  0  0
109110  1  0  0  0  0
110111  1  0  0  0  0
109112  2  0  0  0  0
112113  1  0  0  0  0
113114  1  0  0  0  0
112115  1  0  0  0  0
106116  2  0  0  0  0
116117  1  0  0  0  0
105118  1  0  0  0  0
118119  2  0  0  0  0
119120  1  0  0  0  0
119121  1  0  0  0  0
121122  1  0  0  0  0
122123  1  0  0  0  0
123124  2  0  0  0  0
124125  1  0  0  0  0
125126  1  0  0  0  0
126127  2  0  0  0  0
126128  1  0  0  0  0
128129  1  0  0  0  0
129130  2  0  0  0  0
123131  1  0  0  0  0
131132  2  0  0  0  0
132133  1  0  0  0  0
133134  2  0  0  0  0
134135  1  0  0  0  0
135136  1  0  0  0  0
136137  1  0  0  0  0
137138  1  0  0  0  0
138139  1  0  0  0  0
137140  2  0  0  0  0
140141  1  0  0  0  0
140142  1  0  0  0  0
142143  1  0  0  0  0
134144  1  0  0  0  0
144145  2  0  0  0  0
145146  1  0  0  0  0
146147  1  0  0  0  0
147148  1  0  0  0  0
148149  1  0  0  0  0
149150  1  0  0  0  0
150151  1  0  0  0  0
149152  2  0  0  0  0
152153  1  0  0  0  0
153154  1  0  0  0  0
152155  1  0  0  0  0
146156  2  0  0  0  0
156157  1  0  0  0  0
145158  1  0  0  0  0
158159  2  0  0  0  0
159160  1  0  0  0  0
 27  1  1  0  0  0  0
 57 31  1  0  0  0  0
 87 61  1  0  0  0  0
117 91  1  0  0  0  0
125121  2  0  0  0  0
157131  1  0  0  0  0
 26  3  1  0  0  0  0
 56 33  1  0  0  0  0
 86 63  1  0  0  0  0
116 93  1  0  0  0  0
129124  1  0  0  0  0
156133  1  0  0  0  0
 12  5  2  0  0  0  0
 30 14  1  0  0  0  0
 42 35  2  0  0  0  0
 60 44  1  0  0  0  0
 72 65  2  0  0  0  0
 90 74  1  0  0  0  0
102 95  2  0  0  0  0
120104  1  0  0  0  0
142135  2  0  0  0  0
160144  1  0  0  0  0
 23 17  2  0  0  0  0
 53 47  2  0  0  0  0
 83 77  2  0  0  0  0
113107  2  0  0  0  0
153147  2  0  0  0  0
  1161  1  0  0  0  0
  2162  1  0  0  0  0
  8163  1  0  0  0  0
  8164  1  0  0  0  0
  9165  1  0  0  0  0
  9166  1  0  0  0  0
  9167  1  0  0  0  0
 20168  1  0  0  0  0
 20169  1  0  0  0  0
 21170  1  0  0  0  0
 21171  1  0  0  0  0
 21172  1  0  0  0  0
 28173  1  0  0  0  0
 32174  1  0  0  0  0
 38175  1  0  0  0  0
 38176  1  0  0  0  0
 39177  1  0  0  0  0
 39178  1  0  0  0  0
 39179  1  0  0  0  0
 50180  1  0  0  0  0
 50181  1  0  0  0  0
 51182  1  0  0  0  0
 51183  1  0  0  0  0
 51184  1  0  0  0  0
 58185  1  0  0  0  0
 62186  1  0  0  0  0
 68187  1  0  0  0  0
 68188  1  0  0  0  0
 69189  1  0  0  0  0
 69190  1  0  0  0  0
 69191  1  0  0  0  0
 80192  1  0  0  0  0
 80193  1  0  0  0  0
 81194  1  0  0  0  0
 81195  1  0  0  0  0
 81196  1  0  0  0  0
 88197  1  0  0  0  0
 92198  1  0  0  0  0
 98199  1  0  0  0  0
 98200  1  0  0  0  0
 99201  1  0  0  0  0
 99202  1  0  0  0  0
 99203  1  0  0  0  0
110204  1  0  0  0  0
110205  1  0  0  0  0
111206  1  0  0  0  0
111207  1  0  0  0  0
111208  1  0  0  0  0
118209  1  0  0  0  0
128210  1  0  0  0  0
128211  1  0  0  0  0
132212  1  0  0  0  0
138213  1  0  0  0  0
138214  1  0  0  0  0
139215  1  0  0  0  0
139216  1  0  0  0  0
139217  1  0  0  0  0
150218  1  0  0  0  0
150219  1  0  0  0  0
151220  1  0  0  0  0
151221  1  0  0  0  0
151222  1  0  0  0  0
158223  1  0  0  0  0
159224  1  0  0  0  0
M  END
