108

C         -2.45200       -4.71820       -3.40480
S         -2.36500       -5.76190       -2.04410
C         -0.66930       -6.03950       -2.33090
C         -0.23630       -5.36510       -3.43830
C         -1.26320       -4.59870       -4.05090
C         -1.01750       -3.78420       -5.27990
C          0.46320       -3.44430       -5.40230
C          1.31440       -4.71020       -5.28430
N          2.72330       -4.31380       -5.50260
O          3.27820       -4.73920       -6.48530
O          3.21520       -3.56350       -4.69250
C          1.18820       -5.33260       -3.89460
C          0.07060       -6.95520       -1.47310
C          0.39230       -6.67140       -0.19430
O          0.97880       -7.52490        0.70660
C          1.20880       -8.82340        0.37330
C          1.67920       -9.71600        1.28570
S          1.89540      -11.28120        0.60440
C          1.33950      -10.73140       -0.92850
C          1.01460       -9.41390       -0.90600
S          0.41110       -8.50570       -2.28430
C          0.19710       -5.35430        0.37970
S          0.30430       -3.94990       -0.62330
C          0.12570       -2.88260        0.73950
C         -0.01480       -3.61320        1.90640
C          0.03750       -5.00770        1.70400
C         -0.07370       -5.99230        2.82620
C         -0.64790       -5.34820        4.08550
C          0.05520       -4.02200        4.37220
N          1.51180       -4.29350        4.53550
O          1.81070       -5.08080        5.40070
O          2.28870       -3.71790        3.81730
C         -0.18820       -3.00820        3.26550
C          0.09670       -1.47140        0.53880
S         -0.52960       -0.40740        1.76340
C         -0.26230        1.00990        0.78510
C          0.27080        0.64120       -0.44120
C          0.48550       -0.74430       -0.57310
C          1.09030       -1.35280       -1.79730
C          1.74740       -0.30670       -2.69310
C          0.83250        0.89420       -2.87420
N         -0.46080        0.49130       -3.50130
O         -0.47730       -0.52710       -4.14910
O         -1.40300        1.23000       -3.35490
C          0.57090        1.60350       -1.54990
C         -0.57610        2.30990        1.28200
S         -0.12080        3.73040        0.38020
C         -0.83980        4.80310        1.54380
C         -1.40470        4.07390        2.57420
C         -1.23200        2.68110        2.44520
C         -1.72390        1.72210        3.48360
C         -2.16870        2.42920        4.75990
C         -3.03170        3.63730        4.40560
N         -3.57060        4.20160        5.66410
O         -4.74940        4.05100        5.87380
O         -2.79040        4.74640        6.40590
C         -2.17580        4.68380        3.70190
C         -0.74510        6.21910        1.37450
S         -1.05230        7.29820        2.71540
C         -0.65570        8.66560        1.76730
C         -0.31370        8.33240        0.49240
C         -0.36360        6.93670        0.25720
C         -0.01300        6.35650       -1.07630
C         -0.00540        7.42390       -2.16740
C          0.80160        8.63760       -1.70270
N          0.93060        9.56180       -2.85280
O          2.00360        9.60470       -3.40370
O         -0.05070       10.18280       -3.18050
C          0.07240        9.32870       -0.55640
H         -3.38500       -4.25180       -3.65010
H         -1.59560       -2.86070       -5.24190
H         -1.34330       -4.34990       -6.15800
H          0.64740       -2.95790       -6.36200
H          0.74320       -2.75220       -4.60810
H          1.05730       -5.42560       -6.07050
H          1.60950       -6.34090       -3.88760
H          1.76480       -4.72260       -3.18960
H          1.91540       -9.53050        2.31280
H          1.28820      -11.40350       -1.76000
H          0.91970       -6.39990        3.03630
H         -0.69990       -6.83250        2.52220
H         -1.71300       -5.15010        3.95610
H         -0.52140       -6.02330        4.93290
H         -0.27920       -3.62570        5.33730
H         -1.20480       -2.61650        3.36730
H          0.50080       -2.16730        3.38020
H          0.31160       -1.88380       -2.35450
H          1.83860       -2.09420       -1.51100
H          1.99820       -0.75530       -3.65430
H          2.67240        0.04470       -2.23460
H          1.27130        1.60700       -3.58330
H         -0.27290        2.28720       -1.67910
H          1.44470        2.20720       -1.29040
H         -2.55100        1.13610        3.07070
H         -0.92670        1.02080        3.73860
H         -2.72630        1.73030        5.38630
H         -1.29920        2.77680        5.32140
H         -3.88980        3.33490        3.79840
H         -1.48990        5.12170        4.43520
H         -2.80860        5.48990        3.32100
H         -0.70430        9.64270        2.20450
H          0.97470        5.88760       -1.01440
H         -0.72570        5.57450       -1.34630
H          0.42820        7.00700       -3.07850
H         -1.02560        7.74510       -2.38670
H          1.81540        8.33770       -1.42180
H          0.69590       10.10950       -0.11450
H         -0.82650        9.80860       -0.95760
