
  xtb     02282216063D
 energy: -200.148903050827 gnorm: 0.000575134965 xtb: 6.4.1 (unknown)
108119  0     0  0            999 V2000
   -2.4520   -4.7182   -3.4048 C   0  0  0  0  0  0  0  0  0  0  0  0
   -2.3650   -5.7619   -2.0441 S   0  0  0  0  0  0  0  0  0  0  0  0
   -0.6693   -6.0395   -2.3309 C   0  0  0  0  0  0  0  0  0  0  0  0
   -0.2363   -5.3651   -3.4383 C   0  0  0  0  0  0  0  0  0  0  0  0
   -1.2632   -4.5987   -4.0509 C   0  0  0  0  0  0  0  0  0  0  0  0
   -1.0175   -3.7842   -5.2799 C   0  0  0  0  0  0  0  0  0  0  0  0
    0.4632   -3.4443   -5.4023 C   0  0  0  0  0  0  0  0  0  0  0  0
    1.3144   -4.7102   -5.2843 C   0  0  0  0  0  0  0  0  0  0  0  0
    2.7233   -4.3138   -5.5026 N   0  0  0  0  0  4  0  0  0  0  0  0
    3.2782   -4.7392   -6.4853 O   0  0  0  0  0  1  0  0  0  0  0  0
    3.2152   -3.5635   -4.6925 O   0  0  0  0  0  0  0  0  0  0  0  0
    1.1882   -5.3326   -3.8946 C   0  0  0  0  0  0  0  0  0  0  0  0
    0.0706   -6.9552   -1.4731 C   0  0  0  0  0  0  0  0  0  0  0  0
    0.3923   -6.6714   -0.1943 C   0  0  0  0  0  0  0  0  0  0  0  0
    0.9788   -7.5249    0.7066 O   0  0  0  0  0  0  0  0  0  0  0  0
    1.2088   -8.8234    0.3733 C   0  0  0  0  0  0  0  0  0  0  0  0
    1.6792   -9.7160    1.2857 C   0  0  0  0  0  0  0  0  0  0  0  0
    1.8954  -11.2812    0.6044 S   0  0  0  0  0  0  0  0  0  0  0  0
    1.3395  -10.7314   -0.9285 C   0  0  0  0  0  0  0  0  0  0  0  0
    1.0146   -9.4139   -0.9060 C   0  0  0  0  0  0  0  0  0  0  0  0
    0.4111   -8.5057   -2.2843 S   0  0  0  0  0  0  0  0  0  0  0  0
    0.1971   -5.3543    0.3797 C   0  0  0  0  0  0  0  0  0  0  0  0
    0.3043   -3.9499   -0.6233 S   0  0  0  0  0  0  0  0  0  0  0  0
    0.1257   -2.8826    0.7395 C   0  0  0  0  0  0  0  0  0  0  0  0
   -0.0148   -3.6132    1.9064 C   0  0  0  0  0  0  0  0  0  0  0  0
    0.0375   -5.0077    1.7040 C   0  0  0  0  0  0  0  0  0  0  0  0
   -0.0737   -5.9923    2.8262 C   0  0  0  0  0  0  0  0  0  0  0  0
   -0.6479   -5.3482    4.0855 C   0  0  0  0  0  0  0  0  0  0  0  0
    0.0552   -4.0220    4.3722 C   0  0  0  0  0  0  0  0  0  0  0  0
    1.5118   -4.2935    4.5355 N   0  0  0  0  0  4  0  0  0  0  0  0
    1.8107   -5.0808    5.4007 O   0  0  0  0  0  1  0  0  0  0  0  0
    2.2887   -3.7179    3.8173 O   0  0  0  0  0  0  0  0  0  0  0  0
   -0.1882   -3.0082    3.2655 C   0  0  0  0  0  0  0  0  0  0  0  0
    0.0967   -1.4714    0.5388 C   0  0  0  0  0  0  0  0  0  0  0  0
   -0.5296   -0.4074    1.7634 S   0  0  0  0  0  0  0  0  0  0  0  0
   -0.2623    1.0099    0.7851 C   0  0  0  0  0  0  0  0  0  0  0  0
    0.2708    0.6412   -0.4412 C   0  0  0  0  0  0  0  0  0  0  0  0
    0.4855   -0.7443   -0.5731 C   0  0  0  0  0  0  0  0  0  0  0  0
    1.0903   -1.3528   -1.7973 C   0  0  0  0  0  0  0  0  0  0  0  0
    1.7474   -0.3067   -2.6931 C   0  0  0  0  0  0  0  0  0  0  0  0
    0.8325    0.8942   -2.8742 C   0  0  0  0  0  0  0  0  0  0  0  0
   -0.4608    0.4913   -3.5013 N   0  0  0  0  0  4  0  0  0  0  0  0
   -0.4773   -0.5271   -4.1491 O   0  0  0  0  0  1  0  0  0  0  0  0
   -1.4030    1.2300   -3.3549 O   0  0  0  0  0  0  0  0  0  0  0  0
    0.5709    1.6035   -1.5499 C   0  0  0  0  0  0  0  0  0  0  0  0
   -0.5761    2.3099    1.2820 C   0  0  0  0  0  0  0  0  0  0  0  0
   -0.1208    3.7304    0.3802 S   0  0  0  0  0  0  0  0  0  0  0  0
   -0.8398    4.8031    1.5438 C   0  0  0  0  0  0  0  0  0  0  0  0
   -1.4047    4.0739    2.5742 C   0  0  0  0  0  0  0  0  0  0  0  0
   -1.2320    2.6811    2.4452 C   0  0  0  0  0  0  0  0  0  0  0  0
   -1.7239    1.7221    3.4836 C   0  0  0  0  0  0  0  0  0  0  0  0
   -2.1687    2.4292    4.7599 C   0  0  0  0  0  0  0  0  0  0  0  0
   -3.0317    3.6373    4.4056 C   0  0  0  0  0  0  0  0  0  0  0  0
   -3.5706    4.2016    5.6641 N   0  0  0  0  0  4  0  0  0  0  0  0
   -4.7494    4.0510    5.8738 O   0  0  0  0  0  1  0  0  0  0  0  0
   -2.7904    4.7464    6.4059 O   0  0  0  0  0  0  0  0  0  0  0  0
   -2.1758    4.6838    3.7019 C   0  0  0  0  0  0  0  0  0  0  0  0
   -0.7451    6.2191    1.3745 C   0  0  0  0  0  0  0  0  0  0  0  0
   -1.0523    7.2982    2.7154 S   0  0  0  0  0  0  0  0  0  0  0  0
   -0.6557    8.6656    1.7673 C   0  0  0  0  0  0  0  0  0  0  0  0
   -0.3137    8.3324    0.4924 C   0  0  0  0  0  0  0  0  0  0  0  0
   -0.3636    6.9367    0.2572 C   0  0  0  0  0  0  0  0  0  0  0  0
   -0.0130    6.3565   -1.0763 C   0  0  0  0  0  0  0  0  0  0  0  0
   -0.0054    7.4239   -2.1674 C   0  0  0  0  0  0  0  0  0  0  0  0
    0.8016    8.6376   -1.7027 C   0  0  0  0  0  0  0  0  0  0  0  0
    0.9306    9.5618   -2.8528 N   0  0  0  0  0  4  0  0  0  0  0  0
    2.0036    9.6047   -3.4037 O   0  0  0  0  0  1  0  0  0  0  0  0
   -0.0507   10.1828   -3.1805 O   0  0  0  0  0  0  0  0  0  0  0  0
    0.0724    9.3287   -0.5564 C   0  0  0  0  0  0  0  0  0  0  0  0
   -3.3850   -4.2518   -3.6501 H   0  0  0  0  0  0  0  0  0  0  0  0
   -1.5956   -2.8607   -5.2419 H   0  0  0  0  0  0  0  0  0  0  0  0
   -1.3433   -4.3499   -6.1580 H   0  0  0  0  0  0  0  0  0  0  0  0
    0.6474   -2.9579   -6.3620 H   0  0  0  0  0  0  0  0  0  0  0  0
    0.7432   -2.7522   -4.6081 H   0  0  0  0  0  0  0  0  0  0  0  0
    1.0573   -5.4256   -6.0705 H   0  0  0  0  0  0  0  0  0  0  0  0
    1.6095   -6.3409   -3.8876 H   0  0  0  0  0  0  0  0  0  0  0  0
    1.7648   -4.7226   -3.1896 H   0  0  0  0  0  0  0  0  0  0  0  0
    1.9154   -9.5305    2.3128 H   0  0  0  0  0  0  0  0  0  0  0  0
    1.2882  -11.4035   -1.7600 H   0  0  0  0  0  0  0  0  0  0  0  0
    0.9197   -6.3999    3.0363 H   0  0  0  0  0  0  0  0  0  0  0  0
   -0.6999   -6.8325    2.5222 H   0  0  0  0  0  0  0  0  0  0  0  0
   -1.7130   -5.1501    3.9561 H   0  0  0  0  0  0  0  0  0  0  0  0
   -0.5214   -6.0233    4.9329 H   0  0  0  0  0  0  0  0  0  0  0  0
   -0.2792   -3.6257    5.3373 H   0  0  0  0  0  0  0  0  0  0  0  0
   -1.2048   -2.6165    3.3673 H   0  0  0  0  0  0  0  0  0  0  0  0
    0.5008   -2.1673    3.3802 H   0  0  0  0  0  0  0  0  0  0  0  0
    0.3116   -1.8838   -2.3545 H   0  0  0  0  0  0  0  0  0  0  0  0
    1.8386   -2.0942   -1.5110 H   0  0  0  0  0  0  0  0  0  0  0  0
    1.9982   -0.7553   -3.6543 H   0  0  0  0  0  0  0  0  0  0  0  0
    2.6724    0.0447   -2.2346 H   0  0  0  0  0  0  0  0  0  0  0  0
    1.2713    1.6070   -3.5833 H   0  0  0  0  0  0  0  0  0  0  0  0
   -0.2729    2.2872   -1.6791 H   0  0  0  0  0  0  0  0  0  0  0  0
    1.4447    2.2072   -1.2904 H   0  0  0  0  0  0  0  0  0  0  0  0
   -2.5510    1.1361    3.0707 H   0  0  0  0  0  0  0  0  0  0  0  0
   -0.9267    1.0208    3.7386 H   0  0  0  0  0  0  0  0  0  0  0  0
   -2.7263    1.7303    5.3863 H   0  0  0  0  0  0  0  0  0  0  0  0
   -1.2992    2.7768    5.3214 H   0  0  0  0  0  0  0  0  0  0  0  0
   -3.8898    3.3349    3.7984 H   0  0  0  0  0  0  0  0  0  0  0  0
   -1.4899    5.1217    4.4352 H   0  0  0  0  0  0  0  0  0  0  0  0
   -2.8086    5.4899    3.3210 H   0  0  0  0  0  0  0  0  0  0  0  0
   -0.7043    9.6427    2.2045 H   0  0  0  0  0  0  0  0  0  0  0  0
    0.9747    5.8876   -1.0144 H   0  0  0  0  0  0  0  0  0  0  0  0
   -0.7257    5.5745   -1.3463 H   0  0  0  0  0  0  0  0  0  0  0  0
    0.4282    7.0070   -3.0785 H   0  0  0  0  0  0  0  0  0  0  0  0
   -1.0256    7.7451   -2.3867 H   0  0  0  0  0  0  0  0  0  0  0  0
    1.8154    8.3377   -1.4218 H   0  0  0  0  0  0  0  0  0  0  0  0
    0.6959   10.1095   -0.1145 H   0  0  0  0  0  0  0  0  0  0  0  0
   -0.8265    9.8086   -0.9576 H   0  0  0  0  0  0  0  0  0  0  0  0
  1  2  1  0  0  0  0
  2  3  1  0  0  0  0
  3  4  2  0  0  0  0
  4  5  1  0  0  0  0
  5  6  1  0  0  0  0
  6  7  1  0  0  0  0
  7  8  1  0  0  0  0
  8  9  1  0  0  0  0
  9 10  1  0  0  0  0
  9 11  2  0  0  0  0
  8 12  1  0  0  0  0
  3 13  1  0  0  0  0
 13 14  2  0  0  0  0
 14 15  1  0  0  0  0
 15 16  1  0  0  0  0
 16 17  2  0  0  0  0
 17 18  1  0  0  0  0
 18 19  1  0  0  0  0
 19 20  2  0  0  0  0
 20 21  1  0  0  0  0
 14 22  1  0  0  0  0
 22 23  1  0  0  0  0
 23 24  1  0  0  0  0
 24 25  2  0  0  0  0
 25 26  1  0  0  0  0
 26 27  1  0  0  0  0
 27 28  1  0  0  0  0
 28 29  1  0  0  0  0
 29 30  1  0  0  0  0
 30 31  1  0  0  0  0
 30 32  2  0  0  0  0
 29 33  1  0  0  0  0
 24 34  1  0  0  0  0
 34 35  1  0  0  0  0
 35 36  1  0  0  0  0
 36 37  2  0  0  0  0
 37 38  1  0  0  0  0
 38 39  1  0  0  0  0
 39 40  1  0  0  0  0
 40 41  1  0  0  0  0
 41 42  1  0  0  0  0
 42 43  1  0  0  0  0
 42 44  2  0  0  0  0
 41 45  1  0  0  0  0
 36 46  1  0  0  0  0
 46 47  1  0  0  0  0
 47 48  1  0  0  0  0
 48 49  2  0  0  0  0
 49 50  1  0  0  0  0
 50 51  1  0  0  0  0
 51 52  1  0  0  0  0
 52 53  1  0  0  0  0
 53 54  1  0  0  0  0
 54 55  1  0  0  0  0
 54 56  2  0  0  0  0
 53 57  1  0  0  0  0
 48 58  1  0  0  0  0
 58 59  1  0  0  0  0
 59 60  1  0  0  0  0
 60 61  2  0  0  0  0
 61 62  1  0  0  0  0
 62 63  1  0  0  0  0
 63 64  1  0  0  0  0
 64 65  1  0  0  0  0
 65 66  1  0  0  0  0
 66 67  1  0  0  0  0
 66 68  2  0  0  0  0
 65 69  1  0  0  0  0
  5  1  2  0  0  0  0
 21 13  1  0  0  0  0
 26 22  2  0  0  0  0
 38 34  2  0  0  0  0
 50 46  2  0  0  0  0
 62 58  2  0  0  0  0
 12  4  1  0  0  0  0
 20 16  1  0  0  0  0
 33 25  1  0  0  0  0
 45 37  1  0  0  0  0
 57 49  1  0  0  0  0
 69 61  1  0  0  0  0
  1 70  1  0  0  0  0
  6 71  1  0  0  0  0
  6 72  1  0  0  0  0
  7 73  1  0  0  0  0
  7 74  1  0  0  0  0
  8 75  1  0  0  0  0
 12 76  1  0  0  0  0
 12 77  1  0  0  0  0
 17 78  1  0  0  0  0
 19 79  1  0  0  0  0
 27 80  1  0  0  0  0
 27 81  1  0  0  0  0
 28 82  1  0  0  0  0
 28 83  1  0  0  0  0
 29 84  1  0  0  0  0
 33 85  1  0  0  0  0
 33 86  1  0  0  0  0
 39 87  1  0  0  0  0
 39 88  1  0  0  0  0
 40 89  1  0  0  0  0
 40 90  1  0  0  0  0
 41 91  1  0  0  0  0
 45 92  1  0  0  0  0
 45 93  1  0  0  0  0
 51 94  1  0  0  0  0
 51 95  1  0  0  0  0
 52 96  1  0  0  0  0
 52 97  1  0  0  0  0
 53 98  1  0  0  0  0
 57 99  1  0  0  0  0
 57100  1  0  0  0  0
 60101  1  0  0  0  0
 63102  1  0  0  0  0
 63103  1  0  0  0  0
 64104  1  0  0  0  0
 64105  1  0  0  0  0
 65106  1  0  0  0  0
 69107  1  0  0  0  0
 69108  1  0  0  0  0
M  CHG  1   9   1
M  CHG  1  10  -1
M  CHG  1  30   1
M  CHG  1  31  -1
M  CHG  1  42   1
M  CHG  1  43  -1
M  CHG  1  54   1
M  CHG  1  55  -1
M  CHG  1  66   1
M  CHG  1  67  -1
M  END
