
  xtb     03012209523D
 energy: -297.065685357883 gnorm: 0.000341793715 xtb: 6.4.1 (unknown)
181201  0     0  0            999 V2000
   -7.9268    0.8499    1.4189 C   0  0  0  0  0  0  0  0  0  0  0  0
   -8.1788    1.5410    2.5486 C   0  0  0  0  0  0  0  0  0  0  0  0
   -9.3938    0.8259    3.5596 S   0  0  0  0  0  0  0  0  0  0  0  0
   -9.5642   -0.4841    2.4347 C   0  0  0  0  0  0  0  0  0  0  0  0
   -8.7069   -0.3409    1.3161 C   0  0  0  0  0  0  0  0  0  0  0  0
   -8.7347   -1.3161    0.3135 C   0  0  0  0  0  0  0  0  0  0  0  0
   -8.0423   -1.0469   -0.9873 C   0  0  0  0  0  0  0  0  0  0  0  0
   -8.8356   -0.0088   -1.7868 C   0  0  0  0  0  0  0  0  0  0  0  0
   -9.5341   -2.4405    0.5465 C   0  0  0  0  0  0  0  0  0  0  0  0
  -10.4008   -2.3972    1.6735 C   0  0  0  0  0  0  0  0  0  0  0  0
  -10.4379   -1.4556    2.5890 N   0  0  0  0  0  0  0  0  0  0  0  0
  -11.4979   -3.7451    1.7245 S   0  0  0  0  0  0  0  0  0  0  0  0
  -10.7447   -4.4035    0.3174 C   0  0  0  0  0  0  0  0  0  0  0  0
   -9.7144   -3.6719   -0.1859 C   0  0  0  0  0  0  0  0  0  0  0  0
   -8.8860   -4.2670   -1.2314 C   0  0  0  0  0  0  0  0  0  0  0  0
   -7.5504   -4.3488   -1.2615 C   0  0  0  0  0  0  0  0  0  0  0  0
   -6.6578   -3.7808   -0.2572 C   0  0  0  0  0  0  0  0  0  0  0  0
   -6.9713   -3.8322    1.0647 C   0  0  0  0  0  0  0  0  0  0  0  0
   -5.9071   -2.9732    2.1118 S   0  0  0  0  0  0  0  0  0  0  0  0
   -4.9679   -2.4855    0.7378 C   0  0  0  0  0  0  0  0  0  0  0  0
   -5.4476   -3.0248   -0.4884 C   0  0  0  0  0  0  0  0  0  0  0  0
   -4.7088   -2.7506   -1.6498 C   0  0  0  0  0  0  0  0  0  0  0  0
   -4.9846   -3.4091   -2.9711 C   0  0  0  0  0  0  0  0  0  0  0  0
   -6.0354   -2.6666   -3.7987 C   0  0  0  0  0  0  0  0  0  0  0  0
   -3.6202   -1.8751   -1.5269 C   0  0  0  0  0  0  0  0  0  0  0  0
   -3.2697   -1.4259   -0.2282 C   0  0  0  0  0  0  0  0  0  0  0  0
   -3.9028   -1.7287    0.8806 N   0  0  0  0  0  0  0  0  0  0  0  0
   -1.8261   -0.4610   -0.2163 S   0  0  0  0  0  0  0  0  0  0  0  0
   -1.7020   -0.6381   -1.9293 C   0  0  0  0  0  0  0  0  0  0  0  0
   -2.6804   -1.3852   -2.5066 C   0  0  0  0  0  0  0  0  0  0  0  0
   -2.6855   -1.6171   -3.9464 C   0  0  0  0  0  0  0  0  0  0  0  0
   -1.5414   -1.8811   -4.5834 C   0  0  0  0  0  0  0  0  0  0  0  0
   -1.3291   -2.1345   -5.9944 C   0  0  0  0  0  0  0  0  0  0  0  0
   -2.1381   -2.8334   -6.8320 C   0  0  0  0  0  0  0  0  0  0  0  0
   -1.4208   -3.2192   -8.3637 S   0  0  0  0  0  0  0  0  0  0  0  0
    0.0692   -2.4615   -7.8774 C   0  0  0  0  0  0  0  0  0  0  0  0
   -0.0529   -1.8630   -6.6019 C   0  0  0  0  0  0  0  0  0  0  0  0
    1.0007   -1.0802   -6.1224 C   0  0  0  0  0  0  0  0  0  0  0  0
    0.7447   -0.0101   -5.0975 C   0  0  0  0  0  0  0  0  0  0  0  0
    1.2386    1.3530   -5.5836 C   0  0  0  0  0  0  0  0  0  0  0  0
    2.2179   -1.2357   -6.7988 C   0  0  0  0  0  0  0  0  0  0  0  0
    2.1956   -1.8529   -8.0741 C   0  0  0  0  0  0  0  0  0  0  0  0
    1.1388   -2.3972   -8.6436 N   0  0  0  0  0  0  0  0  0  0  0  0
    3.7413   -1.7275   -8.8645 S   0  0  0  0  0  0  0  0  0  0  0  0
    4.4264   -0.9914   -7.4516 C   0  0  0  0  0  0  0  0  0  0  0  0
    3.5454   -0.8070   -6.4372 C   0  0  0  0  0  0  0  0  0  0  0  0
    3.8413   -0.4474   -5.0561 C   0  0  0  0  0  0  0  0  0  0  0  0
    3.3381   -1.2318   -4.0900 C   0  0  0  0  0  0  0  0  0  0  0  0
    3.2192   -0.9711   -2.6899 C   0  0  0  0  0  0  0  0  0  0  0  0
    2.7718   -1.8992   -1.7647 C   0  0  0  0  0  0  0  0  0  0  0  0
    2.6341   -3.2661   -2.0739 N   0  0  0  0  0  0  0  0  0  0  0  0
    3.7652   -4.0773   -2.1356 C   0  0  0  0  0  0  0  0  0  0  0  0
    3.6279   -5.4669   -2.1727 C   0  0  0  0  0  0  0  0  0  0  0  0
    4.7419   -6.2809   -2.2042 C   0  0  0  0  0  0  0  0  0  0  0  0
    6.0156   -5.7373   -2.1837 C   0  0  0  0  0  0  0  0  0  0  0  0
    6.1589   -4.3628   -2.1181 C   0  0  0  0  0  0  0  0  0  0  0  0
    5.0511   -3.5376   -2.0925 C   0  0  0  0  0  0  0  0  0  0  0  0
    1.3704   -3.7410   -2.4825 C   0  0  0  0  0  0  0  0  0  0  0  0
    0.2515   -3.5801   -1.6711 C   0  0  0  0  0  0  0  0  0  0  0  0
   -0.9696   -4.0984   -2.0622 C   0  0  0  0  0  0  0  0  0  0  0  0
   -1.0990   -4.7522   -3.2753 C   0  0  0  0  0  0  0  0  0  0  0  0
    0.0038   -4.8841   -4.1035 C   0  0  0  0  0  0  0  0  0  0  0  0
    1.2310   -4.3857   -3.7122 C   0  0  0  0  0  0  0  0  0  0  0  0
    2.5278   -1.2994   -0.5121 C   0  0  0  0  0  0  0  0  0  0  0  0
    1.8995   -1.8457    1.0029 S   0  0  0  0  0  0  0  0  0  0  0  0
    2.0116   -0.2276    1.6632 C   0  0  0  0  0  0  0  0  0  0  0  0
    2.4762    0.6893    0.7455 C   0  0  0  0  0  0  0  0  0  0  0  0
    2.6033    2.0556    0.9847 N   0  0  0  0  0  0  0  0  0  0  0  0
    1.5299    2.7379    1.5800 C   0  0  0  0  0  0  0  0  0  0  0  0
    1.7669    3.7855    2.4656 C   0  0  0  0  0  0  0  0  0  0  0  0
    0.7065    4.4595    3.0407 C   0  0  0  0  0  0  0  0  0  0  0  0
   -0.5974    4.0832    2.7618 C   0  0  0  0  0  0  0  0  0  0  0  0
   -0.8362    3.0392    1.8847 C   0  0  0  0  0  0  0  0  0  0  0  0
    0.2179    2.3767    1.2862 C   0  0  0  0  0  0  0  0  0  0  0  0
    3.6982    2.7496    0.4597 C   0  0  0  0  0  0  0  0  0  0  0  0
    4.9427    2.1294    0.3483 C   0  0  0  0  0  0  0  0  0  0  0  0
    6.0239    2.8173   -0.1681 C   0  0  0  0  0  0  0  0  0  0  0  0
    5.8895    4.1325   -0.5773 C   0  0  0  0  0  0  0  0  0  0  0  0
    4.6540    4.7516   -0.4775 C   0  0  0  0  0  0  0  0  0  0  0  0
    3.5654    4.0699    0.0284 C   0  0  0  0  0  0  0  0  0  0  0  0
    2.7853    0.0642   -0.4894 C   0  0  0  0  0  0  0  0  0  0  0  0
    3.3721    0.6371   -2.0126 S   0  0  0  0  0  0  0  0  0  0  0  0
    1.5116    0.0071    3.0172 C   0  0  0  0  0  0  0  0  0  0  0  0
    0.1752    0.0446    3.2547 C   0  0  0  0  0  0  0  0  0  0  0  0
   -0.2607    0.3663    4.8902 S   0  0  0  0  0  0  0  0  0  0  0  0
    1.4194    0.4071    5.3279 C   0  0  0  0  0  0  0  0  0  0  0  0
    2.2811    0.1873    4.2222 C   0  0  0  0  0  0  0  0  0  0  0  0
    3.6597    0.1228    4.4647 C   0  0  0  0  0  0  0  0  0  0  0  0
    4.6174   -0.2088    3.3626 C   0  0  0  0  0  0  0  0  0  0  0  0
    4.8280   -1.7229    3.2775 C   0  0  0  0  0  0  0  0  0  0  0  0
    4.0908    0.3124    5.7842 C   0  0  0  0  0  0  0  0  0  0  0  0
    3.1034    0.5602    6.7744 C   0  0  0  0  0  0  0  0  0  0  0  0
    1.8063    0.5969    6.5689 N   0  0  0  0  0  0  0  0  0  0  0  0
    3.7810    0.8042    8.3531 S   0  0  0  0  0  0  0  0  0  0  0  0
    5.3647    0.5981    7.6983 C   0  0  0  0  0  0  0  0  0  0  0  0
    5.4127    0.3562    6.3632 C   0  0  0  0  0  0  0  0  0  0  0  0
    6.6831    0.1983    5.6579 C   0  0  0  0  0  0  0  0  0  0  0  0
    7.7416    1.0088    5.7749 C   0  0  0  0  0  0  0  0  0  0  0  0
    7.8723    2.1556    6.6653 C   0  0  0  0  0  0  0  0  0  0  0  0
    9.0105    2.2866    7.4001 C   0  0  0  0  0  0  0  0  0  0  0  0
    8.9324    3.4515    8.6727 S   0  0  0  0  0  0  0  0  0  0  0  0
    7.2814    3.7953    8.2460 C   0  0  0  0  0  0  0  0  0  0  0  0
    6.8664    3.1027    7.0803 C   0  0  0  0  0  0  0  0  0  0  0  0
    5.6314    3.4573    6.5207 C   0  0  0  0  0  0  0  0  0  0  0  0
    5.3177    3.1648    5.0845 C   0  0  0  0  0  0  0  0  0  0  0  0
    5.5412    4.4319    4.2513 C   0  0  0  0  0  0  0  0  0  0  0  0
    4.7800    4.2361    7.3164 C   0  0  0  0  0  0  0  0  0  0  0  0
    5.3012    4.7564    8.5310 C   0  0  0  0  0  0  0  0  0  0  0  0
    6.5417    4.6224    8.9478 N   0  0  0  0  0  0  0  0  0  0  0  0
    4.1312    5.6686    9.4277 S   0  0  0  0  0  0  0  0  0  0  0  0
    2.9392    5.3012    8.2325 C   0  0  0  0  0  0  0  0  0  0  0  0
    3.3878    4.5775    7.1752 C   0  0  0  0  0  0  0  0  0  0  0  0
    2.4771    4.1632    6.1102 C   0  0  0  0  0  0  0  0  0  0  0  0
    1.2851    3.6357    6.3471 C   0  0  0  0  0  0  0  0  0  0  0  0
   -7.1932    1.1507    0.6930 H   0  0  0  0  0  0  0  0  0  0  0  0
   -7.7190    2.4543    2.8729 H   0  0  0  0  0  0  0  0  0  0  0  0
   -7.9771   -1.9580   -1.5737 H   0  0  0  0  0  0  0  0  0  0  0  0
   -7.0324   -0.6740   -0.8046 H   0  0  0  0  0  0  0  0  0  0  0  0
   -8.3382    0.1930   -2.7328 H   0  0  0  0  0  0  0  0  0  0  0  0
   -8.9260    0.9231   -1.2342 H   0  0  0  0  0  0  0  0  0  0  0  0
   -9.8364   -0.3813   -1.9952 H   0  0  0  0  0  0  0  0  0  0  0  0
  -11.0770   -5.3594   -0.0407 H   0  0  0  0  0  0  0  0  0  0  0  0
   -9.4454   -4.7782   -2.0053 H   0  0  0  0  0  0  0  0  0  0  0  0
   -7.0974   -4.8755   -2.0875 H   0  0  0  0  0  0  0  0  0  0  0  0
   -7.7948   -4.3628    1.5008 H   0  0  0  0  0  0  0  0  0  0  0  0
   -4.0472   -3.4512   -3.5287 H   0  0  0  0  0  0  0  0  0  0  0  0
   -5.3055   -4.4372   -2.8036 H   0  0  0  0  0  0  0  0  0  0  0  0
   -6.0788   -3.0794   -4.8042 H   0  0  0  0  0  0  0  0  0  0  0  0
   -7.0203   -2.7601   -3.3500 H   0  0  0  0  0  0  0  0  0  0  0  0
   -5.7954   -1.6076   -3.8661 H   0  0  0  0  0  0  0  0  0  0  0  0
   -0.8988   -0.1364   -2.4328 H   0  0  0  0  0  0  0  0  0  0  0  0
   -3.6148   -1.5180   -4.4858 H   0  0  0  0  0  0  0  0  0  0  0  0
   -0.6400   -1.9673   -3.9909 H   0  0  0  0  0  0  0  0  0  0  0  0
   -3.1209   -3.2079   -6.6217 H   0  0  0  0  0  0  0  0  0  0  0  0
    1.2094   -0.2451   -4.1393 H   0  0  0  0  0  0  0  0  0  0  0  0
   -0.3333    0.0595   -4.9437 H   0  0  0  0  0  0  0  0  0  0  0  0
    0.9331    2.1239   -4.8800 H   0  0  0  0  0  0  0  0  0  0  0  0
    0.8107    1.5829   -6.5571 H   0  0  0  0  0  0  0  0  0  0  0  0
    2.3204    1.3777   -5.6684 H   0  0  0  0  0  0  0  0  0  0  0  0
    5.4797   -0.7881   -7.4402 H   0  0  0  0  0  0  0  0  0  0  0  0
    4.4246    0.4349   -4.8351 H   0  0  0  0  0  0  0  0  0  0  0  0
    2.8678   -2.1617   -4.3900 H   0  0  0  0  0  0  0  0  0  0  0  0
    2.6426   -5.9079   -2.1653 H   0  0  0  0  0  0  0  0  0  0  0  0
    4.6112   -7.3526   -2.2364 H   0  0  0  0  0  0  0  0  0  0  0  0
    6.8839   -6.3774   -2.2094 H   0  0  0  0  0  0  0  0  0  0  0  0
    7.1448   -3.9220   -2.0889 H   0  0  0  0  0  0  0  0  0  0  0  0
    5.1908   -2.4688   -2.0381 H   0  0  0  0  0  0  0  0  0  0  0  0
    0.3448   -3.0789   -0.7205 H   0  0  0  0  0  0  0  0  0  0  0  0
   -1.8211   -4.0040   -1.4045 H   0  0  0  0  0  0  0  0  0  0  0  0
   -2.0516   -5.1629   -3.5737 H   0  0  0  0  0  0  0  0  0  0  0  0
   -0.0910   -5.3796   -5.0584 H   0  0  0  0  0  0  0  0  0  0  0  0
    2.0955   -4.5097   -4.3493 H   0  0  0  0  0  0  0  0  0  0  0  0
    2.7855    4.0699    2.6853 H   0  0  0  0  0  0  0  0  0  0  0  0
    0.8973    5.2798    3.7165 H   0  0  0  0  0  0  0  0  0  0  0  0
   -1.4213    4.6046    3.2241 H   0  0  0  0  0  0  0  0  0  0  0  0
   -1.8483    2.7422    1.6545 H   0  0  0  0  0  0  0  0  0  0  0  0
    0.0277    1.5788    0.5833 H   0  0  0  0  0  0  0  0  0  0  0  0
    5.0677    1.1054    0.6669 H   0  0  0  0  0  0  0  0  0  0  0  0
    6.9799    2.3207   -0.2446 H   0  0  0  0  0  0  0  0  0  0  0  0
    6.7373    4.6691   -0.9744 H   0  0  0  0  0  0  0  0  0  0  0  0
    4.5331    5.7732   -0.8061 H   0  0  0  0  0  0  0  0  0  0  0  0
    2.6022    4.5546    0.0849 H   0  0  0  0  0  0  0  0  0  0  0  0
   -0.6051   -0.0935    2.5311 H   0  0  0  0  0  0  0  0  0  0  0  0
    4.2117    0.1452    2.4189 H   0  0  0  0  0  0  0  0  0  0  0  0
    5.5687    0.2953    3.5314 H   0  0  0  0  0  0  0  0  0  0  0  0
    5.5409   -1.9616    2.4912 H   0  0  0  0  0  0  0  0  0  0  0  0
    5.2005   -2.1179    4.2201 H   0  0  0  0  0  0  0  0  0  0  0  0
    3.8885   -2.2231    3.0536 H   0  0  0  0  0  0  0  0  0  0  0  0
    6.2036    0.6517    8.3651 H   0  0  0  0  0  0  0  0  0  0  0  0
    6.7706   -0.6652    5.0141 H   0  0  0  0  0  0  0  0  0  0  0  0
    8.6506    0.7442    5.2491 H   0  0  0  0  0  0  0  0  0  0  0  0
    9.9005    1.6942    7.3041 H   0  0  0  0  0  0  0  0  0  0  0  0
    5.9818    2.3917    4.7059 H   0  0  0  0  0  0  0  0  0  0  0  0
    4.2877    2.8252    4.9759 H   0  0  0  0  0  0  0  0  0  0  0  0
    4.9033    5.2451    4.5910 H   0  0  0  0  0  0  0  0  0  0  0  0
    5.3309    4.2310    3.2021 H   0  0  0  0  0  0  0  0  0  0  0  0
    6.5760    4.7576    4.3353 H   0  0  0  0  0  0  0  0  0  0  0  0
    1.9403    5.6666    8.3718 H   0  0  0  0  0  0  0  0  0  0  0  0
    2.8022    4.3302    5.0940 H   0  0  0  0  0  0  0  0  0  0  0  0
    0.9435    3.4337    7.3476 H   0  0  0  0  0  0  0  0  0  0  0  0
    0.6208    3.3602    5.5458 H   0  0  0  0  0  0  0  0  0  0  0  0
  1  2  2  0  0  0  0
  2  3  1  0  0  0  0
  3  4  1  0  0  0  0
  4  5  2  0  0  0  0
  5  6  1  0  0  0  0
  6  7  1  0  0  0  0
  7  8  1  0  0  0  0
  6  9  2  0  0  0  0
  9 10  1  0  0  0  0
 10 11  2  0  0  0  0
 10 12  1  0  0  0  0
 12 13  1  0  0  0  0
 13 14  2  0  0  0  0
 14 15  1  0  0  0  0
 15 16  2  0  0  0  0
 16 17  1  0  0  0  0
 17 18  2  0  0  0  0
 18 19  1  0  0  0  0
 19 20  1  0  0  0  0
 20 21  2  0  0  0  0
 21 22  1  0  0  0  0
 22 23  1  0  0  0  0
 23 24  1  0  0  0  0
 22 25  2  0  0  0  0
 25 26  1  0  0  0  0
 26 27  2  0  0  0  0
 26 28  1  0  0  0  0
 28 29  1  0  0  0  0
 29 30  2  0  0  0  0
 30 31  1  0  0  0  0
 31 32  2  0  0  0  0
 32 33  1  0  0  0  0
 33 34  2  0  0  0  0
 34 35  1  0  0  0  0
 35 36  1  0  0  0  0
 36 37  2  0  0  0  0
 37 38  1  0  0  0  0
 38 39  1  0  0  0  0
 39 40  1  0  0  0  0
 38 41  2  0  0  0  0
 41 42  1  0  0  0  0
 42 43  2  0  0  0  0
 42 44  1  0  0  0  0
 44 45  1  0  0  0  0
 45 46  2  0  0  0  0
 46 47  1  0  0  0  0
 47 48  2  0  0  0  0
 48 49  1  0  0  0  0
 49 50  2  0  0  0  0
 50 51  1  0  0  0  0
 51 52  1  0  0  0  0
 52 53  2  0  0  0  0
 53 54  1  0  0  0  0
 54 55  2  0  0  0  0
 55 56  1  0  0  0  0
 56 57  2  0  0  0  0
 51 58  1  0  0  0  0
 58 59  2  0  0  0  0
 59 60  1  0  0  0  0
 60 61  2  0  0  0  0
 61 62  1  0  0  0  0
 62 63  2  0  0  0  0
 50 64  1  0  0  0  0
 64 65  1  0  0  0  0
 65 66  1  0  0  0  0
 66 67  2  0  0  0  0
 67 68  1  0  0  0  0
 68 69  1  0  0  0  0
 69 70  2  0  0  0  0
 70 71  1  0  0  0  0
 71 72  2  0  0  0  0
 72 73  1  0  0  0  0
 73 74  2  0  0  0  0
 68 75  1  0  0  0  0
 75 76  2  0  0  0  0
 76 77  1  0  0  0  0
 77 78  2  0  0  0  0
 78 79  1  0  0  0  0
 79 80  2  0  0  0  0
 67 81  1  0  0  0  0
 81 82  1  0  0  0  0
 66 83  1  0  0  0  0
 83 84  2  0  0  0  0
 84 85  1  0  0  0  0
 85 86  1  0  0  0  0
 86 87  2  0  0  0  0
 87 88  1  0  0  0  0
 88 89  1  0  0  0  0
 89 90  1  0  0  0  0
 88 91  2  0  0  0  0
 91 92  1  0  0  0  0
 92 93  2  0  0  0  0
 92 94  1  0  0  0  0
 94 95  1  0  0  0  0
 95 96  2  0  0  0  0
 96 97  1  0  0  0  0
 97 98  2  0  0  0  0
 98 99  1  0  0  0  0
 99100  2  0  0  0  0
100101  1  0  0  0  0
101102  1  0  0  0  0
102103  2  0  0  0  0
103104  1  0  0  0  0
104105  1  0  0  0  0
105106  1  0  0  0  0
104107  2  0  0  0  0
107108  1  0  0  0  0
108109  2  0  0  0  0
108110  1  0  0  0  0
110111  1  0  0  0  0
111112  2  0  0  0  0
112113  1  0  0  0  0
113114  2  0  0  0  0
  5  1  1  0  0  0  0
 14  9  1  0  0  0  0
 21 17  1  0  0  0  0
 30 25  1  0  0  0  0
 37 33  1  0  0  0  0
 46 41  1  0  0  0  0
 82 49  1  0  0  0  0
 87 83  1  0  0  0  0
 96 91  1  0  0  0  0
103 99  1  0  0  0  0
112107  1  0  0  0  0
 11  4  1  0  0  0  0
 27 20  1  0  0  0  0
 43 36  1  0  0  0  0
 57 52  1  0  0  0  0
 63 58  1  0  0  0  0
 81 64  2  0  0  0  0
 93 86  1  0  0  0  0
109102  1  0  0  0  0
 74 69  1  0  0  0  0
 80 75  1  0  0  0  0
  1115  1  0  0  0  0
  2116  1  0  0  0  0
  7117  1  0  0  0  0
  7118  1  0  0  0  0
  8119  1  0  0  0  0
  8120  1  0  0  0  0
  8121  1  0  0  0  0
 13122  1  0  0  0  0
 15123  1  0  0  0  0
 16124  1  0  0  0  0
 18125  1  0  0  0  0
 23126  1  0  0  0  0
 23127  1  0  0  0  0
 24128  1  0  0  0  0
 24129  1  0  0  0  0
 24130  1  0  0  0  0
 29131  1  0  0  0  0
 31132  1  0  0  0  0
 32133  1  0  0  0  0
 34134  1  0  0  0  0
 39135  1  0  0  0  0
 39136  1  0  0  0  0
 40137  1  0  0  0  0
 40138  1  0  0  0  0
 40139  1  0  0  0  0
 45140  1  0  0  0  0
 47141  1  0  0  0  0
 48142  1  0  0  0  0
 53143  1  0  0  0  0
 54144  1  0  0  0  0
 55145  1  0  0  0  0
 56146  1  0  0  0  0
 57147  1  0  0  0  0
 59148  1  0  0  0  0
 60149  1  0  0  0  0
 61150  1  0  0  0  0
 62151  1  0  0  0  0
 63152  1  0  0  0  0
 70153  1  0  0  0  0
 71154  1  0  0  0  0
 72155  1  0  0  0  0
 73156  1  0  0  0  0
 74157  1  0  0  0  0
 76158  1  0  0  0  0
 77159  1  0  0  0  0
 78160  1  0  0  0  0
 79161  1  0  0  0  0
 80162  1  0  0  0  0
 84163  1  0  0  0  0
 89164  1  0  0  0  0
 89165  1  0  0  0  0
 90166  1  0  0  0  0
 90167  1  0  0  0  0
 90168  1  0  0  0  0
 95169  1  0  0  0  0
 97170  1  0  0  0  0
 98171  1  0  0  0  0
100172  1  0  0  0  0
105173  1  0  0  0  0
105174  1  0  0  0  0
106175  1  0  0  0  0
106176  1  0  0  0  0
106177  1  0  0  0  0
111178  1  0  0  0  0
113179  1  0  0  0  0
114180  1  0  0  0  0
114181  1  0  0  0  0
M  END
