181

C         -7.92680        0.84990        1.41890
C         -8.17880        1.54100        2.54860
S         -9.39380        0.82590        3.55960
C         -9.56420       -0.48410        2.43470
C         -8.70690       -0.34090        1.31610
C         -8.73470       -1.31610        0.31350
C         -8.04230       -1.04690       -0.98730
C         -8.83560       -0.00880       -1.78680
C         -9.53410       -2.44050        0.54650
C        -10.40080       -2.39720        1.67350
N        -10.43790       -1.45560        2.58900
S        -11.49790       -3.74510        1.72450
C        -10.74470       -4.40350        0.31740
C         -9.71440       -3.67190       -0.18590
C         -8.88600       -4.26700       -1.23140
C         -7.55040       -4.34880       -1.26150
C         -6.65780       -3.78080       -0.25720
C         -6.97130       -3.83220        1.06470
S         -5.90710       -2.97320        2.11180
C         -4.96790       -2.48550        0.73780
C         -5.44760       -3.02480       -0.48840
C         -4.70880       -2.75060       -1.64980
C         -4.98460       -3.40910       -2.97110
C         -6.03540       -2.66660       -3.79870
C         -3.62020       -1.87510       -1.52690
C         -3.26970       -1.42590       -0.22820
N         -3.90280       -1.72870        0.88060
S         -1.82610       -0.46100       -0.21630
C         -1.70200       -0.63810       -1.92930
C         -2.68040       -1.38520       -2.50660
C         -2.68550       -1.61710       -3.94640
C         -1.54140       -1.88110       -4.58340
C         -1.32910       -2.13450       -5.99440
C         -2.13810       -2.83340       -6.83200
S         -1.42080       -3.21920       -8.36370
C          0.06920       -2.46150       -7.87740
C         -0.05290       -1.86300       -6.60190
C          1.00070       -1.08020       -6.12240
C          0.74470       -0.01010       -5.09750
C          1.23860        1.35300       -5.58360
C          2.21790       -1.23570       -6.79880
C          2.19560       -1.85290       -8.07410
N          1.13880       -2.39720       -8.64360
S          3.74130       -1.72750       -8.86450
C          4.42640       -0.99140       -7.45160
C          3.54540       -0.80700       -6.43720
C          3.84130       -0.44740       -5.05610
C          3.33810       -1.23180       -4.09000
C          3.21920       -0.97110       -2.68990
C          2.77180       -1.89920       -1.76470
N          2.63410       -3.26610       -2.07390
C          3.76520       -4.07730       -2.13560
C          3.62790       -5.46690       -2.17270
C          4.74190       -6.28090       -2.20420
C          6.01560       -5.73730       -2.18370
C          6.15890       -4.36280       -2.11810
C          5.05110       -3.53760       -2.09250
C          1.37040       -3.74100       -2.48250
C          0.25150       -3.58010       -1.67110
C         -0.96960       -4.09840       -2.06220
C         -1.09900       -4.75220       -3.27530
C          0.00380       -4.88410       -4.10350
C          1.23100       -4.38570       -3.71220
C          2.52780       -1.29940       -0.51210
S          1.89950       -1.84570        1.00290
C          2.01160       -0.22760        1.66320
C          2.47620        0.68930        0.74550
N          2.60330        2.05560        0.98470
C          1.52990        2.73790        1.58000
C          1.76690        3.78550        2.46560
C          0.70650        4.45950        3.04070
C         -0.59740        4.08320        2.76180
C         -0.83620        3.03920        1.88470
C          0.21790        2.37670        1.28620
C          3.69820        2.74960        0.45970
C          4.94270        2.12940        0.34830
C          6.02390        2.81730       -0.16810
C          5.88950        4.13250       -0.57730
C          4.65400        4.75160       -0.47750
C          3.56540        4.06990        0.02840
C          2.78530        0.06420       -0.48940
S          3.37210        0.63710       -2.01260
C          1.51160        0.00710        3.01720
C          0.17520        0.04460        3.25470
S         -0.26070        0.36630        4.89020
C          1.41940        0.40710        5.32790
C          2.28110        0.18730        4.22220
C          3.65970        0.12280        4.46470
C          4.61740       -0.20880        3.36260
C          4.82800       -1.72290        3.27750
C          4.09080        0.31240        5.78420
C          3.10340        0.56020        6.77440
N          1.80630        0.59690        6.56890
S          3.78100        0.80420        8.35310
C          5.36470        0.59810        7.69830
C          5.41270        0.35620        6.36320
C          6.68310        0.19830        5.65790
C          7.74160        1.00880        5.77490
C          7.87230        2.15560        6.66530
C          9.01050        2.28660        7.40010
S          8.93240        3.45150        8.67270
C          7.28140        3.79530        8.24600
C          6.86640        3.10270        7.08030
C          5.63140        3.45730        6.52070
C          5.31770        3.16480        5.08450
C          5.54120        4.43190        4.25130
C          4.78000        4.23610        7.31640
C          5.30120        4.75640        8.53100
N          6.54170        4.62240        8.94780
S          4.13120        5.66860        9.42770
C          2.93920        5.30120        8.23250
C          3.38780        4.57750        7.17520
C          2.47710        4.16320        6.11020
C          1.28510        3.63570        6.34710
H         -7.19320        1.15070        0.69300
H         -7.71900        2.45430        2.87290
H         -7.97710       -1.95800       -1.57370
H         -7.03240       -0.67400       -0.80460
H         -8.33820        0.19300       -2.73280
H         -8.92600        0.92310       -1.23420
H         -9.83640       -0.38130       -1.99520
H        -11.07700       -5.35940       -0.04070
H         -9.44540       -4.77820       -2.00530
H         -7.09740       -4.87550       -2.08750
H         -7.79480       -4.36280        1.50080
H         -4.04720       -3.45120       -3.52870
H         -5.30550       -4.43720       -2.80360
H         -6.07880       -3.07940       -4.80420
H         -7.02030       -2.76010       -3.35000
H         -5.79540       -1.60760       -3.86610
H         -0.89880       -0.13640       -2.43280
H         -3.61480       -1.51800       -4.48580
H         -0.64000       -1.96730       -3.99090
H         -3.12090       -3.20790       -6.62170
H          1.20940       -0.24510       -4.13930
H         -0.33330        0.05950       -4.94370
H          0.93310        2.12390       -4.88000
H          0.81070        1.58290       -6.55710
H          2.32040        1.37770       -5.66840
H          5.47970       -0.78810       -7.44020
H          4.42460        0.43490       -4.83510
H          2.86780       -2.16170       -4.39000
H          2.64260       -5.90790       -2.16530
H          4.61120       -7.35260       -2.23640
H          6.88390       -6.37740       -2.20940
H          7.14480       -3.92200       -2.08890
H          5.19080       -2.46880       -2.03810
H          0.34480       -3.07890       -0.72050
H         -1.82110       -4.00400       -1.40450
H         -2.05160       -5.16290       -3.57370
H         -0.09100       -5.37960       -5.05840
H          2.09550       -4.50970       -4.34930
H          2.78550        4.06990        2.68530
H          0.89730        5.27980        3.71650
H         -1.42130        4.60460        3.22410
H         -1.84830        2.74220        1.65450
H          0.02770        1.57880        0.58330
H          5.06770        1.10540        0.66690
H          6.97990        2.32070       -0.24460
H          6.73730        4.66910       -0.97440
H          4.53310        5.77320       -0.80610
H          2.60220        4.55460        0.08490
H         -0.60510       -0.09350        2.53110
H          4.21170        0.14520        2.41890
H          5.56870        0.29530        3.53140
H          5.54090       -1.96160        2.49120
H          5.20050       -2.11790        4.22010
H          3.88850       -2.22310        3.05360
H          6.20360        0.65170        8.36510
H          6.77060       -0.66520        5.01410
H          8.65060        0.74420        5.24910
H          9.90050        1.69420        7.30410
H          5.98180        2.39170        4.70590
H          4.28770        2.82520        4.97590
H          4.90330        5.24510        4.59100
H          5.33090        4.23100        3.20210
H          6.57600        4.75760        4.33530
H          1.94030        5.66660        8.37180
H          2.80220        4.33020        5.09400
H          0.94350        3.43370        7.34760
H          0.62080        3.36020        5.54580
