266

C         -4.54580       -2.85150       12.08340
C         -3.73800       -1.84930       11.68200
C         -4.17970       -1.23520       10.47410
C         -3.60200       -0.15660        9.78910
C         -2.32770        0.42070       10.19220
S         -0.89160       -0.55860       10.20960
C          0.11550        0.79110       10.60870
C          1.59270        0.65400       10.74990
C          2.15860       -0.44080        9.85280
C         -0.63860        1.91970       10.73860
Cl         0.00980        3.46040       11.14010
C         -2.02260        1.71750       10.48690
Cl        -3.18310        2.97600       10.58000
C         -4.23990        0.27130        8.63390
C         -5.38540       -0.37120        8.10680
C         -5.98270       -1.43280        8.80780
C         -7.15570       -2.09560        8.26660
S         -7.20010       -3.81830        8.03450
C         -8.76810       -3.75810        7.30700
C         -9.41280       -4.98250        6.75840
C         -8.99300       -5.20820        5.30330
C         -9.22150       -2.47320        7.26120
C         -8.31190       -1.52780        7.80580
Cl        -8.67630        0.14510        7.92440
Cl       -10.74220       -2.01900        6.60850
C         -5.36240       -1.83720        9.98380
S         -5.89030       -3.12510       11.02880
C         -5.68660        0.08740        6.80120
C         -4.83560        1.05140        6.34940
S         -3.66230        1.51590        7.56120
C         -4.74520        1.53810        5.01250
C         -3.90220        2.46740        4.47770
C         -3.97990        2.54850        3.06310
C         -3.21850        3.33900        2.18200
C         -2.17050        4.22660        2.66620
S         -2.15720        5.92590        2.30560
C         -0.66140        6.17050        3.14410
C         -0.06260        7.52740        3.27240
C         -0.67730        8.28830        4.44950
C         -0.21490        4.99530        3.67030
Cl         1.24370        4.82320        4.55900
C         -1.06720        3.89210        3.39810
Cl        -0.68960        2.29070        3.88110
C         -3.45520        3.18320        0.82370
C         -4.38270        2.24500        0.30770
C         -5.11180        1.42400        1.18110
C         -5.91640        0.31580        0.69510
S         -7.54880        0.05770        1.22880
C         -7.68690       -1.42160        0.33950
C         -8.92170       -2.24910        0.42240
C         -9.00680       -2.96100        1.77470
C         -6.52580       -1.68530       -0.32260
C         -5.51690       -0.70450       -0.12440
Cl        -3.93740       -0.86600       -0.77340
Cl        -6.28020       -3.06180       -1.31370
C         -4.92570        1.63320        2.53940
S         -5.71770        0.73810        3.79630
C         -4.37210        2.20910       -1.10460
C         -3.43330        3.02440       -1.66680
S         -2.57490        3.96900       -0.46200
C         -2.98960        2.95700       -3.01980
C         -1.88030        3.51180       -3.58970
C         -1.51120        2.90020       -4.81400
C         -0.33450        3.10790       -5.55720
C          0.53750        4.23910       -5.27850
S         -0.10140        5.85560       -5.37350
C          1.43570        6.57080       -5.02780
C          1.62050        8.04820       -5.01710
C          1.98100        8.56160       -6.41320
C          2.37570        5.60090       -4.85140
Cl         4.02510        5.91860       -4.49960
C          1.87100        4.27860       -4.98240
Cl         2.85520        2.90350       -4.69220
C         -0.04110        2.17380       -6.53960
C         -0.90290        1.09460       -6.86330
C         -2.12970        0.94730       -6.19050
C         -3.02410       -0.15830       -6.49800
S         -3.63800       -0.38270       -8.11020
C         -4.56100       -1.77350       -7.65240
C         -5.43990       -2.47510       -8.62780
C         -6.82180       -1.81960       -8.68740
C         -4.39220       -2.03500       -6.32650
C         -3.51300       -1.13120       -5.67120
Cl        -3.07140       -1.33090       -4.02960
Cl        -5.15670       -3.33220       -5.49840
C         -2.38890        1.84310       -5.16390
S         -3.72520        1.74690       -4.05730
C         -0.28600        0.16220       -7.72230
C          1.02160        0.46470       -8.01330
S          1.46600        2.05050       -7.40360
C          2.01630       -0.49010       -8.35280
C          3.38400       -0.38830       -8.08720
N          4.07740        0.79800       -7.94140
C          3.98490        1.81600       -8.89680
C          3.65800        1.51860      -10.21780
C          3.55780        2.53090      -11.15240
C          3.78660        3.84720      -10.78900
C          4.11330        4.14630       -9.47620
C          4.20970        3.14380       -8.53260
C          4.95650        0.90220       -6.84540
C          4.55100        0.43350       -5.59710
C          5.41550        0.48120       -4.52070
C          6.68840        1.00380       -4.67510
C          7.09000        1.48250       -5.91110
C          6.23420        1.43120       -6.99530
C          3.92690       -1.65840       -7.77940
S          5.38820       -2.15840       -6.98400
C          4.60660       -3.65150       -6.46940
C          3.39930       -3.86390       -7.14130
N          2.58400       -4.96640       -6.95620
C          1.23230       -4.73950       -6.63630
C          0.90250       -3.73130       -5.73270
C         -0.41800       -3.48960       -5.41110
C         -1.42330       -4.25330       -5.97950
C         -1.09950       -5.25750       -6.87640
C          0.21920       -5.50050       -7.21070
C          3.09640       -6.26340       -7.09350
C          2.51930       -7.33000       -6.40510
C          3.03840       -8.60210       -6.53740
C          4.13910       -8.83140       -7.34670
C          4.71630       -7.77400       -8.02910
C          4.20040       -6.49790       -7.90940
C          3.01650       -2.70470       -7.85180
S          1.49500       -2.17140       -8.48320
C          4.86960       -4.12000       -5.15530
C          5.66590       -3.50770       -4.21950
C          5.22770       -3.71030       -2.88970
C          5.61420       -2.99300       -1.73920
C          6.78180       -2.13460       -1.75090
S          6.71990       -0.51240       -1.12140
C          8.37730       -0.20810       -1.51530
C          9.01330        1.09200       -1.16440
C          9.08850        1.27380        0.35240
C          8.93370       -1.30770       -2.09750
Cl        10.56600       -1.39520       -2.62250
C          8.03320       -2.39760       -2.23890
Cl         8.52000       -3.91300       -2.88030
C          4.75080       -3.05010       -0.64960
C          3.53880       -3.78480       -0.64440
C          3.20390       -4.57610       -1.75860
C          1.90990       -5.21440       -1.92220
S          0.44630       -4.30050       -1.68210
C         -0.54410       -5.55420       -2.33900
C         -2.02240       -5.41590       -2.46460
C         -2.56610       -4.20700       -1.71850
C          0.22760       -6.61470       -2.71200
C          1.61470       -6.42910       -2.47970
Cl         2.77090       -7.65500       -2.79720
Cl        -0.40880       -8.03630       -3.43170
C          4.07780       -4.53760       -2.83720
S          3.69500       -5.18810       -4.40300
C          2.76140       -3.52340        0.51080
C          3.33910       -2.62940        1.36260
S          4.92500       -2.12070        0.81090
C          2.77980       -1.97760        2.50000
C          3.39990       -1.04390        3.27550
C          2.54190       -0.42290        4.21320
C          2.86170        0.60020        5.11960
C          4.17070        1.22820        5.11250
S          5.10740        1.39330        6.56710
C          6.40710        2.17460        5.73420
C          7.60850        2.66580        6.46340
C          7.37010        4.07370        7.01500
C          6.10950        2.30650        4.41080
Cl         7.15530        3.03900        3.26560
C          4.84440        1.76950        4.05180
Cl         4.21640        1.87950        2.45720
C          1.85590        1.00540        5.98610
C          0.55040        0.46210        5.95370
C          0.20780       -0.51060        4.99810
C         -1.14720       -1.03070        4.88130
S         -1.96300       -1.72890        6.25410
C         -3.33970       -2.18480        5.31050
C         -4.46130       -2.96510        5.90070
C         -4.29230       -4.46210        5.63270
C         -3.17080       -1.79760        4.01580
C         -1.93930       -1.13190        3.76960
Cl        -1.57170       -0.47430        2.22860
Cl        -4.30940       -2.10730        2.77020
C          1.22480       -0.94270        4.15370
S          1.09210       -2.17590        2.92850
C         -0.30450        1.11640        6.88550
C          0.31020        2.10590        7.56260
S          1.97840        2.29370        7.15120
H         -4.44710       -3.46940       12.95430
H         -2.85920       -1.53580       12.21500
H          1.83890        0.43230       11.79330
H          2.04800        1.61560       10.50150
H          1.90970       -0.24790        8.81250
H          1.74760       -1.40930       10.12900
H          3.24030       -0.48000        9.94680
H        -10.49660       -4.86400        6.81060
H         -9.12430       -5.84550        7.36020
H         -9.47050       -6.10230        4.91180
H         -9.28580       -4.35950        4.69050
H         -7.91460       -5.32960        5.23510
H         -6.47170       -0.31840        6.18990
H         -3.23440        3.06100        5.07610
H          1.01270        7.42090        3.42710
H         -0.23110        8.08650        2.35050
H         -0.22990        9.27520        4.53080
H         -1.74940        8.40100        4.30650
H         -0.50460        7.74940        5.37750
H         -8.90530       -2.98480       -0.38350
H         -9.79840       -1.61080        0.29500
H         -9.90710       -3.56790        1.82140
H         -9.03200       -2.23110        2.58080
H         -8.14250       -3.60550        1.91690
H         -5.01020        1.57100       -1.68870
H         -1.29390        4.27100       -3.10300
H          0.69960        8.52590       -4.67910
H          2.42250        8.29690       -4.31930
H          1.19070        8.31990       -7.11990
H          2.11360        9.63980       -6.39190
H          2.90520        8.10260       -6.75460
H         -5.54270       -3.51780       -8.32100
H         -4.97970       -2.44450       -9.61680
H         -6.73290       -0.77980       -8.99310
H         -7.45260       -2.34140       -9.40200
H         -7.29820       -1.85480       -7.71090
H         -0.74360       -0.76700       -8.01100
H          3.48790        0.49250      -10.50960
H          3.30560        2.28660      -12.17370
H          3.70940        4.63450      -11.52320
H          4.28590        5.17080       -9.18130
H          4.44340        3.38150       -7.50620
H          3.55550        0.02830       -5.47920
H          5.09200        0.11370       -3.55780
H          7.36580        1.03470       -3.83560
H          8.08280        1.88840       -6.03630
H          6.55310        1.78840       -7.96320
H          1.68790       -3.14340       -5.27920
H         -0.66030       -2.70730       -4.70810
H         -2.45480       -4.06500       -5.72730
H         -1.88050       -5.85260       -7.32610
H          0.47110       -6.27570       -7.91890
H          1.67450       -7.15230       -5.75770
H          2.58570       -9.41750       -5.99330
H          4.54570       -9.82650       -7.44290
H          5.57320       -7.94210       -8.66470
H          4.65030       -5.67810       -8.45060
H          6.43890       -2.81040       -4.48870
H         10.01560        1.11660       -1.59530
H          8.43100        1.91270       -1.59140
H          9.67230        0.47430        0.80200
H          8.08970        1.25810        0.78210
H          9.55630        2.22480        0.59290
H         -2.26990       -5.33510       -3.52830
H         -2.49140       -6.33200       -2.09330
H         -3.64150       -4.13440       -1.85450
H         -2.35510       -4.28230       -0.65400
H         -2.10960       -3.29390       -2.09330
H          1.79240       -3.95300        0.69070
H          4.44300       -0.80770        3.16990
H          7.83610        1.98640        7.28630
H          8.45580        2.68090        5.77520
H          7.15840        4.76490        6.20310
H          8.25140        4.42080        7.54750
H          6.52470        4.07210        7.69890
H         -5.40110       -2.62300        5.46200
H         -4.49080       -2.79310        6.97700
H         -3.35350       -4.81630        6.05090
H         -5.10810       -5.01170        6.09460
H         -4.29320       -4.65730        4.56370
H         -1.33740        0.86000        7.01360
H         -0.11580        2.76770        8.28910
