278

C         -9.01990       -1.85410       10.78000
C         -8.43120       -0.64690       10.90110
C         -7.76840       -0.23380        9.70900
C         -7.02440        0.93520        9.48690
C         -6.77730        1.89390       10.55230
S         -7.14580        3.58110       10.36000
C         -6.56380        3.96780       11.94350
C         -6.54300        5.37420       12.43140
C         -5.33450        6.12580       11.86810
C         -6.10420        2.84650       12.56700
Cl        -5.43750        2.83310       14.14850
C         -6.22840        1.66750       11.78350
Cl        -5.66210        0.13790       12.31870
C         -6.50740        1.12210        8.21220
C         -6.67170        0.17920        7.16960
C         -7.39740       -1.00210        7.39660
C         -7.56340       -1.98800        6.34100
S         -6.18670       -2.63670        5.49870
C         -7.17430       -3.63460        4.48700
C         -6.57040       -4.45690        3.40320
C         -6.24480       -3.58560        2.18740
C         -8.49030       -3.46230        4.79400
C         -8.71510       -2.53520        5.84820
Cl       -10.28960       -2.09560        6.36060
Cl        -9.77430       -4.27370        3.99590
C         -7.93100       -1.17980        8.66760
S         -8.83090       -2.56460        9.21560
C         -6.04300        0.60320        5.97300
C         -5.40330        1.80080        6.08770
S         -5.55370        2.48460        7.69420
C         -4.66850        2.48420        5.07650
C         -4.03650        3.68890        5.16350
C         -3.38540        4.07310        3.96660
C         -2.60630        5.21750        3.72530
C         -2.35810        6.22800        4.74210
S         -3.65910        7.08030        5.51750
C         -2.57250        8.09300        6.40570
C         -3.07250        9.18320        7.28750
C         -3.20440       10.49270        6.50570
C         -1.28100        7.77690        6.10820
Cl         0.07990        8.56790        6.79010
C         -1.15620        6.71720        5.17220
Cl         0.36210        6.07770        4.72140
C         -2.05830        5.35150        2.45890
C         -2.25390        4.40730        1.42150
C         -2.99320        3.23820        1.67700
C         -3.11290        2.19660        0.66820
S         -2.53370        0.58570        0.98060
C         -2.94330        0.04190       -0.61290
C         -2.69210       -1.36390       -1.03670
C         -3.58250       -2.34780       -0.27660
C         -3.50990        1.05750       -1.32260
C         -3.59200        2.28390       -0.60700
Cl        -4.27650        3.70720       -1.27880
Cl        -4.09610        0.89720       -2.92600
C         -3.53440        3.10070        2.94660
S         -4.48560        1.74960        3.49420
C         -1.53810        4.75420        0.25730
C         -0.79120        5.89790        0.38510
S         -1.02030        6.64910        1.94690
C          0.23620        6.26620       -0.52870
C          1.53320        6.69320       -0.22490
N          1.88410        7.42680        0.88210
C          3.22380        7.33750        1.37050
C          4.23590        8.06900        0.76410
C          5.53100        7.97950        1.24460
C          5.81410        7.17510        2.33440
C          4.79910        6.46900        2.95680
C          3.50240        6.54890        2.47890
C          1.09800        8.47550        1.38080
C          0.11960        9.08980        0.59810
C         -0.65220       10.11050        1.11850
C         -0.46510       10.54180        2.42000
C          0.52660        9.95820        3.19060
C          1.30930        8.94300        2.67890
C          2.43850        6.17910       -1.19140
S          4.13730        5.82760       -1.18260
C          3.96290        4.81040       -2.60260
C          2.70110        4.92800       -3.17770
N          2.35340        4.40440       -4.41460
C          1.16250        3.67560       -4.53150
C          0.33950        3.79990       -5.64840
C         -0.82570        3.06320       -5.73180
C         -1.19500        2.21020       -4.70450
C         -0.38970        2.10050       -3.58360
C          0.78550        2.82170       -3.49680
C          3.09200        4.80550       -5.53880
C          3.18480        3.97510       -6.65430
C          3.92050        4.36690       -7.75370
C          4.57830        5.58640       -7.76210
C          4.49200        6.41290       -6.65530
C          3.75280        6.03210       -5.55140
C          1.82670        5.60410       -2.29890
S          0.10860        5.60020       -2.15490
C          4.80590        3.66690       -2.77160
C          5.14310        2.83970       -1.70920
N          4.82420        3.09820       -0.36270
C          3.50500        2.85390        0.03800
C          2.73010        1.86690       -0.57040
C          1.42490        1.65350       -0.16410
C          0.86000        2.42740        0.83370
C          1.61590        3.42770        1.42280
C          2.92250        3.63870        1.03300
C          5.83050        3.51370        0.50800
C          5.80080        3.17620        1.86050
C          6.81880        3.58390        2.69900
C          7.88490        4.32020        2.20900
C          7.92770        4.64070        0.86310
C          6.91250        4.24210        0.01620
C          5.56900        1.57890       -2.15670
S          5.76400        0.07530       -1.32980
C          5.61440       -0.78850       -2.85250
C          5.61560        0.06530       -3.94960
N          5.56100       -0.35230       -5.27770
C          4.44470        0.03000       -6.03490
C          4.55320        0.31640       -7.39390
C          3.42580        0.63820       -8.12450
C          2.18490        0.70690       -7.51140
C          2.07880        0.46340       -6.15150
C          3.19830        0.12520       -5.41670
C          6.58710       -1.15810       -5.77650
C          7.84780       -1.12070       -5.17930
C          8.86160       -1.94160       -5.63270
C          8.64470       -2.80890       -6.69020
C          7.39900       -2.84340       -7.29420
C          6.37720       -2.02980       -6.84600
C          5.54890        1.41820       -3.53610
S          5.08760        2.89520       -4.32190
C          5.09430       -2.11700       -2.80150
C          5.00410       -3.09740       -3.74450
C          4.10410       -4.13590       -3.39040
C          3.74650       -5.26490       -4.14520
C          4.21860       -5.40840       -5.51480
S          5.15470       -6.75600       -6.07200
C          5.22310       -6.13420       -7.68720
C          5.90170       -6.89350       -8.77320
C          5.02120       -8.04300       -9.26830
C          4.54190       -4.95700       -7.77240
Cl         4.36800       -4.04800       -9.21840
C          3.97720       -4.53720       -6.53920
Cl         3.02870       -3.11080       -6.37180
C          2.84410       -6.15170       -3.57570
C          2.21060       -5.90630       -2.33190
C          2.53510       -4.75660       -1.59090
C          1.83430       -4.41550       -0.36280
S          1.05820       -2.86540       -0.19660
C          0.46600       -3.23800        1.38780
C         -0.30110       -2.23550        2.17620
C          0.59230       -1.07530        2.61830
C          0.85930       -4.49060        1.75160
C          1.62940       -5.16230        0.76230
Cl         2.29090       -6.72740        1.01640
Cl         0.47210       -5.22000        3.25650
C          3.49950       -3.91860       -2.12900
S          4.09030       -2.46410       -1.39290
C          1.22670       -6.87770       -2.04150
C          1.12530       -7.85590       -2.98850
S          2.23850       -7.60680       -4.31680
C          0.21180       -8.95280       -2.96050
C         -0.76220       -9.15500       -2.02640
C         -1.55040      -10.30450       -2.26660
C         -2.61990      -10.79150       -1.49550
C         -3.06010      -10.08450       -0.30410
S         -3.44050       -8.38710       -0.35830
C         -3.80420       -8.32900        1.33400
C         -4.18460       -7.04740        1.98980
C         -3.04850       -6.02560        1.91620
C         -3.64380       -9.56160        1.89090
Cl        -3.90690       -9.90760        3.55100
C         -3.22740      -10.55950        0.96650
Cl        -2.88510      -12.16750        1.44760
C         -3.23300      -11.95680       -1.93940
C         -2.80540      -12.65790       -3.09340
C         -1.70810      -12.19310       -3.83630
C         -1.20070      -12.93420       -4.97900
S         -0.94900      -12.17860       -6.52360
C         -0.35080      -13.64110       -7.22810
C          0.03220      -13.70810       -8.66530
C         -1.17630      -14.05260       -9.53920
C         -0.35640      -14.64790       -6.30920
C         -0.83310      -14.25060       -5.03170
Cl        -0.85670      -15.31210       -3.68270
Cl         0.17130      -16.24720       -6.63940
C         -1.12290      -11.00410       -3.42040
S          0.22320      -10.20400       -4.18340
C         -3.65030      -13.77170       -3.37160
C         -4.65010      -13.90700       -2.47680
S         -4.63920      -12.70280       -1.23670
H         -9.57670       -2.39230       11.52210
H         -8.46510       -0.05390       11.79620
H         -7.45990        5.87960       12.12290
H         -6.49640        5.36650       13.52170
H         -5.33170        7.15130       12.22750
H         -4.41190        5.64380       12.18140
H         -5.37020        6.13420       10.78120
H         -7.27710       -5.23860        3.12070
H         -5.65610       -4.92610        3.77030
H         -5.79810       -4.18560        1.39940
H         -7.15100       -3.12490        1.80300
H         -5.54760       -2.79840        2.46510
H         -6.06220        0.04730        5.05330
H         -4.03900        4.28150        6.06080
H         -4.04370        8.90190        7.69730
H         -2.36990        9.32070        8.11210
H         -3.90580       10.37220        5.68360
H         -2.24010       10.78580        6.09860
H         -3.56330       11.28340        7.15900
H         -1.64210       -1.61640       -0.86280
H         -2.88830       -1.43990       -2.10740
H         -4.63090       -2.13630       -0.47080
H         -3.36690       -3.36480       -0.59280
H         -3.40770       -2.26960        0.79390
H         -1.50080        4.13840       -0.62240
H          4.00370        8.70420       -0.07810
H          6.31850        8.54180        0.76650
H          6.82470        7.10230        2.70490
H          5.01590        5.85150        3.81510
H          2.69950        6.01680        2.96750
H         -0.03600        8.76890       -0.42100
H         -1.40650       10.57090        0.49760
H         -1.08000       11.33010        2.82660
H          0.69290       10.29280        4.20380
H          2.07740        8.50030        3.29300
H          0.61160        4.47980       -6.44160
H         -1.45700        3.16490       -6.60210
H         -2.10710        1.63880       -4.77660
H         -0.67450        1.44390       -2.77390
H          1.41900        2.72870       -2.62670
H          2.69450        3.01480       -6.64340
H          3.98720        3.70650       -8.60520
H          5.15490        5.88900       -8.62280
H          4.99770        7.36720       -6.65080
H          3.68230        6.69010       -4.69760
H          3.14640        1.24990       -1.35170
H          0.84930        0.86800       -0.63290
H         -0.15540        2.25240        1.15270
H          1.17980        4.04940        2.19150
H          3.51050        4.42120        1.48480
H          4.98610        2.58130        2.24480
H          6.78560        3.31130        3.74390
H          8.68030        4.63190        2.86920
H          8.75730        5.20790        0.46700
H          6.95070        4.49710       -1.03270
H          5.52090        0.28350       -7.87140
H          3.51800        0.84120       -9.18140
H          1.30580        0.95650       -8.08630
H          1.11880        0.52980       -5.66100
H          3.10610       -0.08890       -4.36150
H          8.03030       -0.44220       -4.35910
H          9.83040       -1.89840       -5.15760
H          9.43870       -3.44970       -7.04160
H          7.21460       -3.51640       -8.11850
H          5.40800       -2.07630       -7.31500
H          5.56600       -3.10000       -4.65920
H          6.84550       -7.29570       -8.40000
H          6.11370       -6.21080       -9.59800
H          4.08480       -7.65720       -9.66330
H          4.79840       -8.72470       -8.45100
H          5.53150       -8.59270      -10.05450
H         -1.11810       -1.83590        1.57260
H         -0.72530       -2.73270        3.04960
H          1.02720       -0.57940        1.75390
H          0.00550       -0.34960        3.17410
H          1.39770       -1.43620        3.25290
H          0.61250       -6.84520       -1.16250
H         -0.91520       -8.50110       -1.18960
H         -5.07130       -6.63870        1.49870
H         -4.43300       -7.25740        3.03120
H         -2.80050       -5.81060        0.87910
H         -2.16080       -6.41080        2.41070
H         -3.34060       -5.09900        2.40290
H          0.80020      -14.47420       -8.78770
H          0.44330      -12.74590       -8.97440
H         -1.94950      -13.29620       -9.42860
H         -0.88010      -14.10000      -10.58360
H         -1.58760      -15.01620       -9.24970
H         -3.51530      -14.42130       -4.21640
H         -5.41920      -14.65420       -2.45720
