278

C         15.14160        2.40780       11.10430
C         15.65620        1.58380       10.13930
N         16.87990        0.93620       10.20980
C         17.01310       -0.33410        9.63060
C         18.19030       -0.68570        8.97280
C         18.31220       -1.93150        8.39020
C         17.26520       -2.83770        8.44470
C         16.09440       -2.49240        9.09710
C         15.96680       -1.25220        9.69340
C         17.95630        1.52500       10.88670
C         18.83330        0.73460       11.62750
C         19.89940        1.31200       12.28950
C         20.10390        2.68070       12.23090
C         19.23370        3.46990       11.49710
C         18.16900        2.90100       10.82570
C         14.76030        1.49200        9.03760
S         14.76630        0.63930        7.53020
C         13.22730        1.35050        7.11260
C         12.71200        2.15340        8.11350
N         11.42560        2.70620        8.07180
C         10.38810        1.83450        7.69740
C          9.39130        2.21250        6.80080
C          8.44220        1.29740        6.38880
C          8.46460       -0.00270        6.86360
C          9.43830       -0.37770        7.77370
C         10.39130        0.53060        8.19090
C         11.27430        4.09330        8.04740
C         10.06160        4.67930        8.41080
C          9.90510        6.04920        8.34810
C         10.95360        6.86020        7.94450
C         12.16950        6.28690        7.61620
C         12.33300        4.91570        7.66300
C         13.60800        2.24640        9.20170
S         13.60580        3.09920       10.70290
C         12.53800        1.18170        5.86290
C         11.96810        2.22320        5.20110
C         11.08810        1.83240        4.16490
C         10.21500        2.66230        3.44210
C         10.18910        4.09430        3.70250
S         11.63090        5.06290        3.61270
C         10.81280        6.48340        4.16210
C         11.51570        7.79000        4.27930
C         11.39820        8.59410        2.98220
C          9.49690        6.21140        4.38560
Cl         8.37110        7.36740        4.96340
C          9.13840        4.86170        4.12480
Cl         7.55250        4.27410        4.39800
C          9.33890        2.03570        2.56820
C          9.29550        0.62700        2.41450
C         10.12700       -0.20290        3.18820
C          9.98360       -1.64760        3.14770
S         11.35370       -2.69170        2.92010
C         10.37870       -4.11940        2.99890
C         10.97180       -5.47150        2.80670
C         11.09880       -5.80860        1.31910
C          9.07030       -3.78840        3.19000
C          8.84170       -2.39020        3.28440
Cl         7.28910       -1.73710        3.62230
Cl         7.80310       -4.93620        3.31570
C         11.02780        0.42560        4.03640
S         12.08400       -0.36480        5.17680
C          8.32140        0.23300        1.46820
C          7.60980        1.27570        0.94840
S          8.16590        2.82010        1.55140
C          6.44460        1.17320        0.12980
C          5.71100        0.03810       -0.06020
C          4.50580        0.25260       -0.76640
C          3.49740       -0.68640       -1.05590
C          3.60940       -2.07090       -0.63150
S          4.04410       -2.47830        1.00490
C          3.94330       -4.17670        0.69990
C          4.25520       -5.18510        1.75200
C          4.10540       -4.62610        3.16080
C          3.58860       -4.39930       -0.59770
Cl         3.39570       -5.96530       -1.27330
C          3.39580       -3.21300       -1.35430
Cl         3.02650       -3.24960       -3.02680
C          2.37260       -0.20750       -1.71340
C          2.23830        1.13830       -2.13820
C          3.26210        2.06750       -1.87710
C          3.14040        3.45640       -2.28020
S          3.43260        4.74200       -1.14700
C          3.08310        5.96470       -2.31880
C          3.20530        7.40990       -1.98220
C          4.66790        7.85750       -2.03110
C          2.76750        5.39540       -3.51580
C          2.79680        3.97580       -3.49820
Cl         2.51900        3.04300       -4.91210
Cl         2.34890        6.28680       -4.92170
C          4.35860        1.60480       -1.15960
S          5.70600        2.56920       -0.62130
C          0.96650        1.39300       -2.70260
C          0.12940        0.31450       -2.68090
S          0.91400       -1.10390       -2.00780
C         -1.22800        0.19950       -3.09680
C         -2.15640        1.17640       -3.43960
N         -1.98150        2.55340       -3.44070
C         -2.61080        3.26700       -4.47950
C         -3.35050        4.41650       -4.21530
C         -3.96970        5.09060       -5.25000
C         -3.86780        4.62520       -6.55080
C         -3.13780        3.47860       -6.81500
C         -2.50810        2.80190       -5.78810
C         -1.36230        3.23350       -2.39120
C         -0.76560        4.47510       -2.62200
C         -0.12930        5.14210       -1.59510
C         -0.05050        4.57840       -0.33200
C         -0.63740        3.34670       -0.09900
C         -1.29740        2.68000       -1.11330
C         -3.39450        0.58420       -3.79820
S         -4.94050        1.22240       -4.24730
C         -5.60300       -0.39920       -4.31550
C         -4.68920       -1.37180       -3.94990
N         -4.97610       -2.71680       -3.77110
C         -6.19800       -3.11040       -3.20920
C         -6.81470       -2.33110       -2.23140
C         -8.06560       -2.67330       -1.75570
C         -8.71350       -3.80100       -2.23100
C         -8.08060       -4.60770       -3.16150
C         -6.83110       -4.27210       -3.64480
C         -4.02390       -3.66060       -4.18060
C         -3.79720       -4.81260       -3.43090
C         -2.84290       -5.72430       -3.83730
C         -2.10060       -5.50020       -4.98580
C         -2.32340       -4.35620       -5.73290
C         -3.28100       -3.44150       -5.33890
C         -3.42250       -0.79560       -3.68920
S         -1.90450       -1.42440       -3.16830
C         -6.97640       -0.65810       -4.63960
C         -7.43410       -1.63150       -5.47180
C         -8.83830       -1.81770       -5.41170
C         -9.62410       -2.76510       -6.09030
C         -9.05740       -3.64820       -7.09760
S         -7.66590       -4.63810       -6.77850
C         -7.65420       -5.29180       -8.38160
C         -6.61490       -6.27360       -8.79960
C         -5.20580       -5.78170       -8.47170
C         -8.67900       -4.76590       -9.10880
Cl        -8.99950       -5.16290      -10.74750
C         -9.47650       -3.83670       -8.38580
Cl       -10.76940       -2.98230       -9.11730
C        -10.97350       -2.81360       -5.76180
C        -11.56870       -1.93980       -4.81820
C        -10.78770       -0.97200       -4.16610
C        -11.34690       -0.11250       -3.13560
S        -11.17710        1.61520       -3.19460
C        -12.01430        1.82590       -1.69490
C        -12.18760        3.17540       -1.09050
C        -10.96100        3.55880       -0.25870
C        -12.38500        0.61750       -1.18450
C        -12.01390       -0.48380       -2.00090
Cl       -12.31340       -2.11240       -1.54710
Cl       -13.21520        0.42160        0.30460
C         -9.44160       -0.92350       -4.49560
S         -8.27460        0.14890       -3.78180
C        -12.95060       -2.19550       -4.65620
C        -13.39910       -3.25240       -5.39450
S        -12.12980       -3.96420       -6.36490
C        -14.72290       -3.78840       -5.40590
C        -15.79150       -3.33860       -4.68660
C        -16.96340       -4.11220       -4.86790
C        -18.23030       -3.91400       -4.29180
C        -18.47730       -2.81470       -3.37390
S        -17.46130       -2.55060       -1.98550
C        -18.37340       -1.17000       -1.47800
C        -17.95940       -0.37270       -0.29120
C        -16.77050        0.52930       -0.63070
C        -19.39790       -0.93760       -2.34550
Cl       -20.51750        0.35280       -2.18290
C        -19.46480       -1.86980       -3.41650
Cl       -20.62120       -1.73610       -4.67380
C        -19.22340       -4.82710       -4.62800
C        -19.01070       -5.89830       -5.52900
C        -17.76030       -6.06210       -6.14540
C        -17.53440       -7.10930       -7.12740
S        -16.20460       -8.21950       -6.98920
C        -16.64070       -9.04350       -8.44720
C        -15.81230      -10.16240       -8.97410
C        -14.58510       -9.62600       -9.71490
C        -17.74570       -8.47150       -9.00340
C        -18.25900       -7.37820       -8.25540
Cl       -19.60530       -6.45080       -8.77930
Cl       -18.47090       -9.00700      -10.46400
C        -16.75500       -5.17720       -5.77740
S        -15.12050       -5.19010       -6.37500
C        -20.16160       -6.73280       -5.63340
C        -21.18470       -6.31130       -4.86270
S        -20.83050       -4.87920       -3.96210
H         15.60010        2.67120       12.03630
H         19.00170        0.02540        8.92120
H         19.22800       -2.19320        7.88130
H         17.36310       -3.80800        7.98230
H         15.27580       -3.19470        9.15010
H         15.05960       -0.99240       10.21940
H         18.67050       -0.33180       11.68140
H         20.57010        0.68870       12.86210
H         20.93560        3.12900       12.75240
H         19.38910        4.53720       11.43960
H         17.50070        3.51890       10.24460
H          9.37620        3.21750        6.40900
H          7.69030        1.60050        5.67560
H          7.72920       -0.71740        6.52790
H          9.46030       -1.38620        8.15930
H         11.15410        0.23120        8.89480
H          9.24760        4.05280        8.74270
H          8.95750        6.48840        8.62250
H         10.82500        7.93090        7.89740
H         12.99850        6.90940        7.31240
H         13.28270        4.47600        7.39300
H         12.14280        3.24660        5.47590
H         12.56780        7.61380        4.50690
H         11.06830        8.35360        5.10010
H         11.91120        9.54650        3.08570
H         10.35330        8.78390        2.75070
H         11.84320        8.04520        2.15570
H         11.95900       -5.50140        3.27060
H         10.33220       -6.20890        3.29540
H         11.73510       -5.08090        0.82130
H         11.53480       -6.79620        1.19630
H         10.12080       -5.79810        0.84450
H          8.16010       -0.78700        1.17590
H          6.00780       -0.91660        0.32920
H          3.59730       -6.04630        1.61010
H          5.28340       -5.53510        1.61010
H          4.33320       -5.39480        3.89460
H          3.09010       -4.27440        3.32680
H          4.78770       -3.79250        3.31120
H          2.61960        7.98870       -2.69900
H          2.80840        7.58460       -0.98030
H          5.07600        7.70280       -3.02670
H          4.74450        8.91280       -1.78310
H          5.25950        7.28580       -1.32020
H          0.69000        2.34760       -3.09950
H         -3.44070        4.76990       -3.19880
H         -4.54390        5.97980       -5.03700
H         -4.35660        5.15350       -7.35510
H         -3.05200        3.11170       -7.82690
H         -1.92960        1.91190       -5.99040
H         -0.79480        4.90630       -3.61180
H          0.31940        6.10490       -1.78820
H          0.46560        5.09470        0.46250
H         -0.58730        2.90070        0.88310
H         -1.76880        1.72880       -0.91780
H         -6.31530       -1.45030       -1.85500
H         -8.53940       -2.04970       -1.01190
H         -9.69980       -4.05250       -1.87260
H         -8.56800       -5.49860       -3.52810
H         -6.34460       -4.89900       -4.37550
H         -4.36700       -4.97940       -2.52890
H         -2.66890       -6.61120       -3.24640
H         -1.35090       -6.21230       -5.29470
H         -1.75270       -4.17620       -6.63180
H         -3.46310       -2.55390       -5.92780
H         -6.78030       -2.21360       -6.09450
H         -6.71530       -6.44160       -9.87330
H         -6.79000       -7.22540       -8.28980
H         -4.46970       -6.50980       -8.80150
H         -5.00800       -4.83710       -8.97220
H         -5.09140       -5.63490       -7.39960
H        -12.33310        3.91100       -1.88300
H        -13.07410        3.16510       -0.45360
H        -10.07040        3.56570       -0.88240
H        -11.09560        4.54760        0.17100
H        -10.81470        2.84510        0.54810
H        -13.58570       -1.61170       -4.01730
H        -15.74420       -2.48130       -4.04260
H        -18.80480        0.23640        0.03280
H        -17.68020       -1.04590        0.52160
H        -15.92240       -0.07120       -0.95070
H        -16.47730        1.10590        0.24240
H        -17.03290        1.21680       -1.43110
H        -15.48800      -10.79590       -8.14650
H        -16.42180      -10.75930       -9.65480
H        -13.98490      -10.45060      -10.08980
H        -13.97510       -9.02360       -9.04600
H        -14.89240       -9.00830      -10.55490
H        -20.20060       -7.61470       -6.24530
H        -22.15490       -6.75580       -4.75610
