
  xtb     03032222433D
 energy: -524.013933291016 gnorm: 0.000239534740 xtb: 6.4.1 (unknown)
310341  0     0  0            999 V2000
   -3.2113  -17.8082   -2.2274 C   0  0  0  0  0  0  0  0  0  0  0  0
   -2.0409  -17.2396   -2.6510 C   0  0  0  0  0  0  0  0  0  0  0  0
   -0.7800  -17.8064   -2.5413 N   0  0  0  0  0  0  0  0  0  0  0  0
    0.1570  -17.5692   -3.5576 C   0  0  0  0  0  0  0  0  0  0  0  0
    1.5002  -17.3709   -3.2427 C   0  0  0  0  0  0  0  0  0  0  0  0
    2.4177  -17.1250   -4.2446 C   0  0  0  0  0  0  0  0  0  0  0  0
    2.0130  -17.0670   -5.5686 C   0  0  0  0  0  0  0  0  0  0  0  0
    0.6797  -17.2624   -5.8849 C   0  0  0  0  0  0  0  0  0  0  0  0
   -0.2460  -17.5148   -4.8906 C   0  0  0  0  0  0  0  0  0  0  0  0
   -0.4576  -18.6177   -1.4465 C   0  0  0  0  0  0  0  0  0  0  0  0
   -0.9546  -18.3298   -0.1766 C   0  0  0  0  0  0  0  0  0  0  0  0
   -0.6304  -19.1375    0.8959 C   0  0  0  0  0  0  0  0  0  0  0  0
    0.1956  -20.2360    0.7237 C   0  0  0  0  0  0  0  0  0  0  0  0
    0.6959  -20.5227   -0.5356 C   0  0  0  0  0  0  0  0  0  0  0  0
    0.3718  -19.7253   -1.6160 C   0  0  0  0  0  0  0  0  0  0  0  0
   -2.2912  -15.9644   -3.2285 C   0  0  0  0  0  0  0  0  0  0  0  0
   -1.3008  -14.7115   -3.8804 S   0  0  0  0  0  0  0  0  0  0  0  0
   -2.7135  -13.7100   -4.1614 C   0  0  0  0  0  0  0  0  0  0  0  0
   -3.8848  -14.3232   -3.7780 C   0  0  0  0  0  0  0  0  0  0  0  0
   -5.1674  -13.7373   -3.8394 N   0  0  0  0  0  0  0  0  0  0  0  0
   -5.5740  -13.0175   -2.6955 C   0  0  0  0  0  0  0  0  0  0  0  0
   -6.7699  -13.3240   -2.0468 C   0  0  0  0  0  0  0  0  0  0  0  0
   -7.1624  -12.6103   -0.9317 C   0  0  0  0  0  0  0  0  0  0  0  0
   -6.3679  -11.5906   -0.4335 C   0  0  0  0  0  0  0  0  0  0  0  0
   -5.1665  -11.3012   -1.0558 C   0  0  0  0  0  0  0  0  0  0  0  0
   -4.7684  -12.0084   -2.1753 C   0  0  0  0  0  0  0  0  0  0  0  0
   -6.1288  -14.2740   -4.7013 C   0  0  0  0  0  0  0  0  0  0  0  0
   -5.9574  -15.4961   -5.3481 C   0  0  0  0  0  0  0  0  0  0  0  0
   -6.9426  -15.9902   -6.1833 C   0  0  0  0  0  0  0  0  0  0  0  0
   -8.0954  -15.2658   -6.4239 C   0  0  0  0  0  0  0  0  0  0  0  0
   -8.2500  -14.0257   -5.8242 C   0  0  0  0  0  0  0  0  0  0  0  0
   -7.2839  -13.5351   -4.9713 C   0  0  0  0  0  0  0  0  0  0  0  0
   -3.6281  -15.6066   -3.2328 C   0  0  0  0  0  0  0  0  0  0  0  0
   -4.6103  -16.8216   -2.4895 S   0  0  0  0  0  0  0  0  0  0  0  0
   -2.5160  -12.3591   -4.6129 C   0  0  0  0  0  0  0  0  0  0  0  0
   -3.1871  -11.6587   -5.5938 C   0  0  0  0  0  0  0  0  0  0  0  0
   -4.0930  -12.1974   -6.4975 N   0  0  0  0  0  0  0  0  0  0  0  0
   -5.2038  -11.4000   -6.8167 C   0  0  0  0  0  0  0  0  0  0  0  0
   -5.8481  -10.7010   -5.7973 C   0  0  0  0  0  0  0  0  0  0  0  0
   -6.9272   -9.8886   -6.0853 C   0  0  0  0  0  0  0  0  0  0  0  0
   -7.3806   -9.7652   -7.3875 C   0  0  0  0  0  0  0  0  0  0  0  0
   -6.7354  -10.4492   -8.4045 C   0  0  0  0  0  0  0  0  0  0  0  0
   -5.6485  -11.2559   -8.1283 C   0  0  0  0  0  0  0  0  0  0  0  0
   -3.8137  -13.3976   -7.1565 C   0  0  0  0  0  0  0  0  0  0  0  0
   -2.5081  -13.8834   -7.2394 C   0  0  0  0  0  0  0  0  0  0  0  0
   -2.2447  -15.0827   -7.8707 C   0  0  0  0  0  0  0  0  0  0  0  0
   -3.2678  -15.8113   -8.4527 C   0  0  0  0  0  0  0  0  0  0  0  0
   -4.5612  -15.3208   -8.3980 C   0  0  0  0  0  0  0  0  0  0  0  0
   -4.8386  -14.1328   -7.7505 C   0  0  0  0  0  0  0  0  0  0  0  0
   -2.7749  -10.3000   -5.6158 C   0  0  0  0  0  0  0  0  0  0  0  0
   -3.2572   -8.9053   -6.5212 S   0  0  0  0  0  0  0  0  0  0  0  0
   -2.0787   -7.9344   -5.6714 C   0  0  0  0  0  0  0  0  0  0  0  0
   -1.3925   -8.6437   -4.7010 C   0  0  0  0  0  0  0  0  0  0  0  0
   -0.5067   -8.0692   -3.7834 N   0  0  0  0  0  0  0  0  0  0  0  0
    0.8263   -8.4976   -3.7738 C   0  0  0  0  0  0  0  0  0  0  0  0
    1.3994   -9.0452   -4.9202 C   0  0  0  0  0  0  0  0  0  0  0  0
    2.7247   -9.4366   -4.9171 C   0  0  0  0  0  0  0  0  0  0  0  0
    3.4968   -9.2876   -3.7785 C   0  0  0  0  0  0  0  0  0  0  0  0
    2.9244   -8.7659   -2.6297 C   0  0  0  0  0  0  0  0  0  0  0  0
    1.5981   -8.3819   -2.6189 C   0  0  0  0  0  0  0  0  0  0  0  0
   -0.9121   -6.8898   -3.1440 C   0  0  0  0  0  0  0  0  0  0  0  0
   -0.0211   -5.8486   -2.8892 C   0  0  0  0  0  0  0  0  0  0  0  0
   -0.4693   -4.6713   -2.3230 C   0  0  0  0  0  0  0  0  0  0  0  0
   -1.8060   -4.5061   -2.0036 C   0  0  0  0  0  0  0  0  0  0  0  0
   -2.6922   -5.5448   -2.2336 C   0  0  0  0  0  0  0  0  0  0  0  0
   -2.2523   -6.7286   -2.7914 C   0  0  0  0  0  0  0  0  0  0  0  0
   -1.7824  -10.0000   -4.6961 C   0  0  0  0  0  0  0  0  0  0  0  0
   -1.3032  -11.3836   -3.7853 S   0  0  0  0  0  0  0  0  0  0  0  0
   -1.8191   -6.5411   -5.9014 C   0  0  0  0  0  0  0  0  0  0  0  0
   -0.5627   -6.0217   -5.9081 C   0  0  0  0  0  0  0  0  0  0  0  0
   -0.5235   -4.6108   -5.7961 C   0  0  0  0  0  0  0  0  0  0  0  0
    0.6137   -3.8260   -5.5450 C   0  0  0  0  0  0  0  0  0  0  0  0
    1.9337   -4.4675   -5.5054 C   0  0  0  0  0  0  0  0  0  0  0  0
    2.3545   -5.3035   -6.5395 C   0  0  0  0  0  0  0  0  0  0  0  0
    3.5409   -5.9977   -6.4456 C   0  0  0  0  0  0  0  0  0  0  0  0
    4.3508   -5.9035   -5.3150 C   0  0  0  0  0  0  0  0  0  0  0  0
    5.7937   -6.9214   -5.2759 S   0  0  0  0  0  0  0  0  0  0  0  0
    7.0626   -5.8911   -4.4493 C   0  0  0  0  0  0  0  0  0  0  0  0
    7.2914   -4.5797   -5.1730 C   0  0  0  0  0  0  0  0  0  0  0  0
    3.9229   -5.0607   -4.2944 C   0  0  0  0  0  0  0  0  0  0  0  0
    4.6342   -4.9361   -3.1517 F   0  0  0  0  0  0  0  0  0  0  0  0
    2.7514   -4.3366   -4.3881 C   0  0  0  0  0  0  0  0  0  0  0  0
    0.3842   -2.4983   -5.2249 C   0  0  0  0  0  0  0  0  0  0  0  0
   -0.9158   -1.9335   -5.1911 C   0  0  0  0  0  0  0  0  0  0  0  0
   -2.0529   -2.7245   -5.4348 C   0  0  0  0  0  0  0  0  0  0  0  0
   -3.4037   -2.1776   -5.2727 C   0  0  0  0  0  0  0  0  0  0  0  0
   -4.3947   -2.3787   -6.2322 C   0  0  0  0  0  0  0  0  0  0  0  0
   -5.6467   -1.8265   -6.0733 C   0  0  0  0  0  0  0  0  0  0  0  0
   -5.9749   -1.0619   -4.9517 C   0  0  0  0  0  0  0  0  0  0  0  0
   -7.6184   -0.4317   -4.8741 S   0  0  0  0  0  0  0  0  0  0  0  0
   -7.5023    1.0755   -3.8291 C   0  0  0  0  0  0  0  0  0  0  0  0
   -8.7236    1.9347   -4.0860 C   0  0  0  0  0  0  0  0  0  0  0  0
   -4.9898   -0.9114   -3.9799 C   0  0  0  0  0  0  0  0  0  0  0  0
   -3.7285   -1.4482   -4.1325 C   0  0  0  0  0  0  0  0  0  0  0  0
   -5.2310   -0.2328   -2.8320 F   0  0  0  0  0  0  0  0  0  0  0  0
   -1.8245   -4.0575   -5.7355 C   0  0  0  0  0  0  0  0  0  0  0  0
   -3.0507   -5.2940   -5.8793 S   0  0  0  0  0  0  0  0  0  0  0  0
   -0.8836   -0.5674   -4.8238 C   0  0  0  0  0  0  0  0  0  0  0  0
    0.3651   -0.1044   -4.5240 C   0  0  0  0  0  0  0  0  0  0  0  0
    1.5943   -1.3274   -4.7675 S   0  0  0  0  0  0  0  0  0  0  0  0
    0.6636    1.1566   -3.9240 C   0  0  0  0  0  0  0  0  0  0  0  0
   -0.2535    2.0967   -3.5507 C   0  0  0  0  0  0  0  0  0  0  0  0
    0.2926    3.1505   -2.7813 C   0  0  0  0  0  0  0  0  0  0  0  0
   -0.3981    4.1998   -2.1527 C   0  0  0  0  0  0  0  0  0  0  0  0
   -1.8593    4.3078   -2.2507 C   0  0  0  0  0  0  0  0  0  0  0  0
   -2.6773    3.2121   -1.9745 C   0  0  0  0  0  0  0  0  0  0  0  0
   -4.0479    3.3106   -2.0828 C   0  0  0  0  0  0  0  0  0  0  0  0
   -4.6556    4.5012   -2.4750 C   0  0  0  0  0  0  0  0  0  0  0  0
   -6.4174    4.5042   -2.6420 S   0  0  0  0  0  0  0  0  0  0  0  0
   -6.9225    6.1014   -1.9033 C   0  0  0  0  0  0  0  0  0  0  0  0
   -6.4517    6.2347   -0.4694 C   0  0  0  0  0  0  0  0  0  0  0  0
   -3.8284    5.5845   -2.7545 C   0  0  0  0  0  0  0  0  0  0  0  0
   -4.3474    6.7585   -3.1741 F   0  0  0  0  0  0  0  0  0  0  0  0
   -2.4558    5.5046   -2.6309 C   0  0  0  0  0  0  0  0  0  0  0  0
    0.3643    5.0831   -1.4059 C   0  0  0  0  0  0  0  0  0  0  0  0
    1.7681    4.9543   -1.2493 C   0  0  0  0  0  0  0  0  0  0  0  0
    2.4566    3.9004   -1.8750 C   0  0  0  0  0  0  0  0  0  0  0  0
    3.9022    3.7132   -1.7030 C   0  0  0  0  0  0  0  0  0  0  0  0
    4.7376    3.5457   -2.8061 C   0  0  0  0  0  0  0  0  0  0  0  0
    6.0932    3.3656   -2.6380 C   0  0  0  0  0  0  0  0  0  0  0  0
    6.6753    3.3487   -1.3708 C   0  0  0  0  0  0  0  0  0  0  0  0
    8.4320    3.1724   -1.3020 S   0  0  0  0  0  0  0  0  0  0  0  0
    8.7479    2.1818    0.2050 C   0  0  0  0  0  0  0  0  0  0  0  0
    8.0473    0.8391    0.1582 C   0  0  0  0  0  0  0  0  0  0  0  0
    5.8302    3.5295   -0.2796 C   0  0  0  0  0  0  0  0  0  0  0  0
    4.4682    3.6940   -0.4327 C   0  0  0  0  0  0  0  0  0  0  0  0
    6.3129    3.5547    0.9812 F   0  0  0  0  0  0  0  0  0  0  0  0
    1.6957    3.0227   -2.6310 C   0  0  0  0  0  0  0  0  0  0  0  0
    2.2845    1.5762   -3.4108 S   0  0  0  0  0  0  0  0  0  0  0  0
    2.2952    5.9531   -0.3935 C   0  0  0  0  0  0  0  0  0  0  0  0
    1.3469    6.7842    0.1286 C   0  0  0  0  0  0  0  0  0  0  0  0
   -0.2587    6.4116   -0.4647 S   0  0  0  0  0  0  0  0  0  0  0  0
    1.5363    7.8028    1.1118 C   0  0  0  0  0  0  0  0  0  0  0  0
    2.6810    8.0807    1.8020 C   0  0  0  0  0  0  0  0  0  0  0  0
    2.5152    9.0735    2.7979 C   0  0  0  0  0  0  0  0  0  0  0  0
    3.4790    9.5691    3.6899 C   0  0  0  0  0  0  0  0  0  0  0  0
    4.8512    9.0564    3.7807 C   0  0  0  0  0  0  0  0  0  0  0  0
    5.9282    9.9387    3.8278 C   0  0  0  0  0  0  0  0  0  0  0  0
    7.2090    9.4882    4.0723 C   0  0  0  0  0  0  0  0  0  0  0  0
    7.4588    8.1384    4.2936 C   0  0  0  0  0  0  0  0  0  0  0  0
    9.0427    7.4808    4.7013 S   0  0  0  0  0  0  0  0  0  0  0  0
    9.8557    8.8725    5.5673 C   0  0  0  0  0  0  0  0  0  0  0  0
    9.1251    9.2718    6.8347 C   0  0  0  0  0  0  0  0  0  0  0  0
    6.3820    7.2578    4.1817 C   0  0  0  0  0  0  0  0  0  0  0  0
    6.5875    5.9393    4.3590 F   0  0  0  0  0  0  0  0  0  0  0  0
    5.0986    7.6939    3.9318 C   0  0  0  0  0  0  0  0  0  0  0  0
    3.0559   10.5466    4.5771 C   0  0  0  0  0  0  0  0  0  0  0  0
    1.7308   11.0412    4.6209 C   0  0  0  0  0  0  0  0  0  0  0  0
    0.7710   10.5617    3.7130 C   0  0  0  0  0  0  0  0  0  0  0  0
   -0.5982   11.0882    3.7489 C   0  0  0  0  0  0  0  0  0  0  0  0
   -1.7072   10.2474    3.8159 C   0  0  0  0  0  0  0  0  0  0  0  0
   -2.9755   10.7713    3.9478 C   0  0  0  0  0  0  0  0  0  0  0  0
   -3.1943   12.1473    3.9969 C   0  0  0  0  0  0  0  0  0  0  0  0
   -4.8638   12.6980    4.1827 S   0  0  0  0  0  0  0  0  0  0  0  0
   -4.7401   14.1698    5.2673 C   0  0  0  0  0  0  0  0  0  0  0  0
   -4.0678   13.8587    6.5896 C   0  0  0  0  0  0  0  0  0  0  0  0
   -2.0838   12.9745    3.8573 C   0  0  0  0  0  0  0  0  0  0  0  0
   -0.8064   12.4645    3.7553 C   0  0  0  0  0  0  0  0  0  0  0  0
   -2.2169   14.3194    3.8245 F   0  0  0  0  0  0  0  0  0  0  0  0
    1.1872    9.5741    2.8335 C   0  0  0  0  0  0  0  0  0  0  0  0
    0.1894    8.7914    1.6379 S   0  0  0  0  0  0  0  0  0  0  0  0
    1.5397   11.9383    5.7032 C   0  0  0  0  0  0  0  0  0  0  0  0
    2.6608   12.1363    6.4504 C   0  0  0  0  0  0  0  0  0  0  0  0
    4.0360   11.2336    5.8456 S   0  0  0  0  0  0  0  0  0  0  0  0
    2.8109   12.9243    7.6277 C   0  0  0  0  0  0  0  0  0  0  0  0
    3.9481   13.0936    8.3569 C   0  0  0  0  0  0  0  0  0  0  0  0
    3.7680   13.8936    9.5132 C   0  0  0  0  0  0  0  0  0  0  0  0
    4.7225   14.2306   10.4856 C   0  0  0  0  0  0  0  0  0  0  0  0
    6.0851   13.6914   10.3967 C   0  0  0  0  0  0  0  0  0  0  0  0
    6.2906   12.3252   10.2016 C   0  0  0  0  0  0  0  0  0  0  0  0
    7.5638   11.8172   10.0638 C   0  0  0  0  0  0  0  0  0  0  0  0
    8.6817   12.6475   10.1072 C   0  0  0  0  0  0  0  0  0  0  0  0
   10.2606   11.8985    9.8236 S   0  0  0  0  0  0  0  0  0  0  0  0
   11.3547   12.6978   11.0536 C   0  0  0  0  0  0  0  0  0  0  0  0
   10.8494   12.5036   12.4688 C   0  0  0  0  0  0  0  0  0  0  0  0
    8.4633   14.0068   10.3084 C   0  0  0  0  0  0  0  0  0  0  0  0
    9.4975   14.8751   10.3368 F   0  0  0  0  0  0  0  0  0  0  0  0
    7.1940   14.5268   10.4675 C   0  0  0  0  0  0  0  0  0  0  0  0
    4.2977   15.0681   11.5069 C   0  0  0  0  0  0  0  0  0  0  0  0
    2.9649   15.5359   11.6203 C   0  0  0  0  0  0  0  0  0  0  0  0
    2.0053   15.1735   10.6644 C   0  0  0  0  0  0  0  0  0  0  0  0
    0.5958   15.5768   10.7581 C   0  0  0  0  0  0  0  0  0  0  0  0
   -0.0489   16.1691    9.6737 C   0  0  0  0  0  0  0  0  0  0  0  0
   -1.3930   16.4673    9.7335 C   0  0  0  0  0  0  0  0  0  0  0  0
   -2.1455   16.1937   10.8734 C   0  0  0  0  0  0  0  0  0  0  0  0
   -3.8620   16.6250   10.8397 S   0  0  0  0  0  0  0  0  0  0  0  0
   -4.6814   15.1982   11.6442 C   0  0  0  0  0  0  0  0  0  0  0  0
   -4.3986   13.8995   10.9161 C   0  0  0  0  0  0  0  0  0  0  0  0
   -1.4787   15.6447   11.9644 C   0  0  0  0  0  0  0  0  0  0  0  0
   -0.1363   15.3261   11.9135 C   0  0  0  0  0  0  0  0  0  0  0  0
   -2.1316   15.3939   13.1209 F   0  0  0  0  0  0  0  0  0  0  0  0
    2.4404   14.3726    9.6191 C   0  0  0  0  0  0  0  0  0  0  0  0
    1.4424   13.7746    8.3174 S   0  0  0  0  0  0  0  0  0  0  0  0
    2.7984   16.3726   12.7641 C   0  0  0  0  0  0  0  0  0  0  0  0
    3.9295   16.5090   13.4844 C   0  0  0  0  0  0  0  0  0  0  0  0
    5.2778   15.6426   12.8310 S   0  0  0  0  0  0  0  0  0  0  0  0
   -3.3304  -18.7560   -1.7418 H   0  0  0  0  0  0  0  0  0  0  0  0
    1.8134  -17.4069   -2.2097 H   0  0  0  0  0  0  0  0  0  0  0  0
    3.4553  -16.9690   -3.9890 H   0  0  0  0  0  0  0  0  0  0  0  0
    2.7336  -16.8720   -6.3482 H   0  0  0  0  0  0  0  0  0  0  0  0
    0.3565  -17.2302   -6.9148 H   0  0  0  0  0  0  0  0  0  0  0  0
   -1.2833  -17.6793   -5.1446 H   0  0  0  0  0  0  0  0  0  0  0  0
   -1.5877  -17.4666   -0.0347 H   0  0  0  0  0  0  0  0  0  0  0  0
   -1.0195  -18.9014    1.8754 H   0  0  0  0  0  0  0  0  0  0  0  0
    0.4481  -20.8632    1.5650 H   0  0  0  0  0  0  0  0  0  0  0  0
    1.3378  -21.3790   -0.6807 H   0  0  0  0  0  0  0  0  0  0  0  0
    0.7562  -19.9554   -2.5987 H   0  0  0  0  0  0  0  0  0  0  0  0
   -7.3849  -14.1303   -2.4179 H   0  0  0  0  0  0  0  0  0  0  0  0
   -8.0915  -12.8614   -0.4415 H   0  0  0  0  0  0  0  0  0  0  0  0
   -6.6787  -11.0335    0.4374 H   0  0  0  0  0  0  0  0  0  0  0  0
   -4.5311  -10.5161   -0.6724 H   0  0  0  0  0  0  0  0  0  0  0  0
   -3.8278  -11.7748   -2.6458 H   0  0  0  0  0  0  0  0  0  0  0  0
   -5.0551  -16.0693   -5.2093 H   0  0  0  0  0  0  0  0  0  0  0  0
   -6.7989  -16.9528   -6.6515 H   0  0  0  0  0  0  0  0  0  0  0  0
   -8.8610  -15.6555   -7.0776 H   0  0  0  0  0  0  0  0  0  0  0  0
   -9.1309  -13.4326   -6.0221 H   0  0  0  0  0  0  0  0  0  0  0  0
   -7.4181  -12.5695   -4.5087 H   0  0  0  0  0  0  0  0  0  0  0  0
   -5.4986  -10.8035   -4.7797 H   0  0  0  0  0  0  0  0  0  0  0  0
   -7.4191   -9.3535   -5.2863 H   0  0  0  0  0  0  0  0  0  0  0  0
   -8.2275   -9.1342   -7.6101 H   0  0  0  0  0  0  0  0  0  0  0  0
   -7.0732  -10.3450   -9.4250 H   0  0  0  0  0  0  0  0  0  0  0  0
   -5.1327  -11.7675   -8.9271 H   0  0  0  0  0  0  0  0  0  0  0  0
   -1.6894  -13.3180   -6.8209 H   0  0  0  0  0  0  0  0  0  0  0  0
   -1.2267  -15.4405   -7.9136 H   0  0  0  0  0  0  0  0  0  0  0  0
   -3.0586  -16.7470   -8.9487 H   0  0  0  0  0  0  0  0  0  0  0  0
   -5.3702  -15.8721   -8.8534 H   0  0  0  0  0  0  0  0  0  0  0  0
   -5.8549  -13.7756   -7.6956 H   0  0  0  0  0  0  0  0  0  0  0  0
    0.8045   -9.1533   -5.8165 H   0  0  0  0  0  0  0  0  0  0  0  0
    3.1603   -9.8483   -5.8152 H   0  0  0  0  0  0  0  0  0  0  0  0
    4.5361   -9.5765   -3.7872 H   0  0  0  0  0  0  0  0  0  0  0  0
    3.5148   -8.6598   -1.7317 H   0  0  0  0  0  0  0  0  0  0  0  0
    1.1502   -7.9886   -1.7186 H   0  0  0  0  0  0  0  0  0  0  0  0
    1.0178   -5.9558   -3.1607 H   0  0  0  0  0  0  0  0  0  0  0  0
    0.2309   -3.8685   -2.1441 H   0  0  0  0  0  0  0  0  0  0  0  0
   -2.1542   -3.5788   -1.5751 H   0  0  0  0  0  0  0  0  0  0  0  0
   -3.7359   -5.4323   -1.9805 H   0  0  0  0  0  0  0  0  0  0  0  0
   -2.9507   -7.5331   -2.9702 H   0  0  0  0  0  0  0  0  0  0  0  0
    0.3191   -6.6358   -5.9248 H   0  0  0  0  0  0  0  0  0  0  0  0
    1.7512   -5.3924   -7.4302 H   0  0  0  0  0  0  0  0  0  0  0  0
    3.8616   -6.6421   -7.2491 H   0  0  0  0  0  0  0  0  0  0  0  0
    7.9524   -6.5198   -4.4849 H   0  0  0  0  0  0  0  0  0  0  0  0
    6.7762   -5.7403   -3.4110 H   0  0  0  0  0  0  0  0  0  0  0  0
    8.1075   -4.0381   -4.6991 H   0  0  0  0  0  0  0  0  0  0  0  0
    7.5481   -4.7583   -6.2151 H   0  0  0  0  0  0  0  0  0  0  0  0
    6.4005   -3.9555   -5.1382 H   0  0  0  0  0  0  0  0  0  0  0  0
    2.4674   -3.7088   -3.5583 H   0  0  0  0  0  0  0  0  0  0  0  0
   -4.1706   -2.9481   -7.1208 H   0  0  0  0  0  0  0  0  0  0  0  0
   -6.4049   -1.9708   -6.8271 H   0  0  0  0  0  0  0  0  0  0  0  0
   -7.4513    0.7709   -2.7854 H   0  0  0  0  0  0  0  0  0  0  0  0
   -6.5907    1.6018   -4.1075 H   0  0  0  0  0  0  0  0  0  0  0  0
   -9.6320    1.4016   -3.8152 H   0  0  0  0  0  0  0  0  0  0  0  0
   -8.7831    2.2095   -5.1364 H   0  0  0  0  0  0  0  0  0  0  0  0
   -8.6540    2.8421   -3.4913 H   0  0  0  0  0  0  0  0  0  0  0  0
   -3.0138   -1.3209   -3.3341 H   0  0  0  0  0  0  0  0  0  0  0  0
   -1.7622    0.0477   -4.7771 H   0  0  0  0  0  0  0  0  0  0  0  0
   -1.2956    2.0345   -3.8014 H   0  0  0  0  0  0  0  0  0  0  0  0
   -2.2349    2.2856   -1.6422 H   0  0  0  0  0  0  0  0  0  0  0  0
   -4.6751    2.4598   -1.8653 H   0  0  0  0  0  0  0  0  0  0  0  0
   -6.5580    6.9121   -2.5303 H   0  0  0  0  0  0  0  0  0  0  0  0
   -8.0107    6.0702   -1.9602 H   0  0  0  0  0  0  0  0  0  0  0  0
   -6.8042    5.3964    0.1283 H   0  0  0  0  0  0  0  0  0  0  0  0
   -6.8391    7.1573   -0.0421 H   0  0  0  0  0  0  0  0  0  0  0  0
   -5.3646    6.2635   -0.4180 H   0  0  0  0  0  0  0  0  0  0  0  0
   -1.8625    6.3736   -2.8690 H   0  0  0  0  0  0  0  0  0  0  0  0
    4.3209    3.5685   -3.8012 H   0  0  0  0  0  0  0  0  0  0  0  0
    6.7363    3.2367   -3.4945 H   0  0  0  0  0  0  0  0  0  0  0  0
    9.8313    2.0605    0.1956 H   0  0  0  0  0  0  0  0  0  0  0  0
    8.4647    2.7626    1.0798 H   0  0  0  0  0  0  0  0  0  0  0  0
    6.9662    0.9634    0.1619 H   0  0  0  0  0  0  0  0  0  0  0  0
    8.3285    0.2915   -0.7390 H   0  0  0  0  0  0  0  0  0  0  0  0
    8.3271    0.2514    1.0302 H   0  0  0  0  0  0  0  0  0  0  0  0
    3.8576    3.7944    0.4515 H   0  0  0  0  0  0  0  0  0  0  0  0
    3.3425    6.0488   -0.1760 H   0  0  0  0  0  0  0  0  0  0  0  0
    3.6186    7.5913    1.6138 H   0  0  0  0  0  0  0  0  0  0  0  0
    5.7626   10.9924    3.6629 H   0  0  0  0  0  0  0  0  0  0  0  0
    8.0188   10.1993    4.0994 H   0  0  0  0  0  0  0  0  0  0  0  0
   10.8455    8.4786    5.7964 H   0  0  0  0  0  0  0  0  0  0  0  0
    9.9666    9.7052    4.8740 H   0  0  0  0  0  0  0  0  0  0  0  0
    8.1278    9.6456    6.6093 H   0  0  0  0  0  0  0  0  0  0  0  0
    9.0308    8.4151    7.4980 H   0  0  0  0  0  0  0  0  0  0  0  0
    9.6788   10.0526    7.3531 H   0  0  0  0  0  0  0  0  0  0  0  0
    4.2947    6.9748    3.9085 H   0  0  0  0  0  0  0  0  0  0  0  0
   -1.5705    9.1774    3.8052 H   0  0  0  0  0  0  0  0  0  0  0  0
   -3.8294   10.1170    4.0290 H   0  0  0  0  0  0  0  0  0  0  0  0
   -4.2315   14.9663    4.7290 H   0  0  0  0  0  0  0  0  0  0  0  0
   -5.7826   14.4521    5.4152 H   0  0  0  0  0  0  0  0  0  0  0  0
   -3.0249   13.5835    6.4437 H   0  0  0  0  0  0  0  0  0  0  0  0
   -4.1012   14.7379    7.2304 H   0  0  0  0  0  0  0  0  0  0  0  0
   -4.5740   13.0363    7.0915 H   0  0  0  0  0  0  0  0  0  0  0  0
    0.0196   13.1516    3.6533 H   0  0  0  0  0  0  0  0  0  0  0  0
    0.5972   12.3960    5.9451 H   0  0  0  0  0  0  0  0  0  0  0  0
    4.8900   12.6650    8.0649 H   0  0  0  0  0  0  0  0  0  0  0  0
    5.4440   11.6561   10.1813 H   0  0  0  0  0  0  0  0  0  0  0  0
    7.7174   10.7601    9.9121 H   0  0  0  0  0  0  0  0  0  0  0  0
   12.3098   12.1944   10.9030 H   0  0  0  0  0  0  0  0  0  0  0  0
   11.4636   13.7496   10.7989 H   0  0  0  0  0  0  0  0  0  0  0  0
    9.8933   13.0042   12.6121 H   0  0  0  0  0  0  0  0  0  0  0  0
   11.5651   12.9229   13.1729 H   0  0  0  0  0  0  0  0  0  0  0  0
   10.7219   11.4454   12.6876 H   0  0  0  0  0  0  0  0  0  0  0  0
    7.0841   15.5911   10.6052 H   0  0  0  0  0  0  0  0  0  0  0  0
    0.5092   16.3989    8.7795 H   0  0  0  0  0  0  0  0  0  0  0  0
   -1.8906   16.9167    8.8884 H   0  0  0  0  0  0  0  0  0  0  0  0
   -5.7392   15.4559   11.5931 H   0  0  0  0  0  0  0  0  0  0  0  0
   -4.3774   15.1565   12.6875 H   0  0  0  0  0  0  0  0  0  0  0  0
   -4.7002   13.9722    9.8734 H   0  0  0  0  0  0  0  0  0  0  0  0
   -3.3379   13.6565   10.9516 H   0  0  0  0  0  0  0  0  0  0  0  0
   -4.9528   13.0890   11.3852 H   0  0  0  0  0  0  0  0  0  0  0  0
    0.3234   14.8681   12.7760 H   0  0  0  0  0  0  0  0  0  0  0  0
    1.8700   16.8538   13.0129 H   0  0  0  0  0  0  0  0  0  0  0  0
    4.0761   17.0801   14.3802 H   0  0  0  0  0  0  0  0  0  0  0  0
  1  2  2  0  0  0  0
  2  3  1  0  0  0  0
  3  4  1  0  0  0  0
  4  5  2  0  0  0  0
  5  6  1  0  0  0  0
  6  7  2  0  0  0  0
  7  8  1  0  0  0  0
  8  9  2  0  0  0  0
  3 10  1  0  0  0  0
 10 11  2  0  0  0  0
 11 12  1  0  0  0  0
 12 13  2  0  0  0  0
 13 14  1  0  0  0  0
 14 15  2  0  0  0  0
  2 16  1  0  0  0  0
 16 17  1  0  0  0  0
 17 18  1  0  0  0  0
 18 19  2  0  0  0  0
 19 20  1  0  0  0  0
 20 21  1  0  0  0  0
 21 22  2  0  0  0  0
 22 23  1  0  0  0  0
 23 24  2  0  0  0  0
 24 25  1  0  0  0  0
 25 26  2  0  0  0  0
 20 27  1  0  0  0  0
 27 28  2  0  0  0  0
 28 29  1  0  0  0  0
 29 30  2  0  0  0  0
 30 31  1  0  0  0  0
 31 32  2  0  0  0  0
 19 33  1  0  0  0  0
 33 34  1  0  0  0  0
 18 35  1  0  0  0  0
 35 36  2  0  0  0  0
 36 37  1  0  0  0  0
 37 38  1  0  0  0  0
 38 39  2  0  0  0  0
 39 40  1  0  0  0  0
 40 41  2  0  0  0  0
 41 42  1  0  0  0  0
 42 43  2  0  0  0  0
 37 44  1  0  0  0  0
 44 45  2  0  0  0  0
 45 46  1  0  0  0  0
 46 47  2  0  0  0  0
 47 48  1  0  0  0  0
 48 49  2  0  0  0  0
 36 50  1  0  0  0  0
 50 51  1  0  0  0  0
 51 52  1  0  0  0  0
 52 53  2  0  0  0  0
 53 54  1  0  0  0  0
 54 55  1  0  0  0  0
 55 56  2  0  0  0  0
 56 57  1  0  0  0  0
 57 58  2  0  0  0  0
 58 59  1  0  0  0  0
 59 60  2  0  0  0  0
 54 61  1  0  0  0  0
 61 62  2  0  0  0  0
 62 63  1  0  0  0  0
 63 64  2  0  0  0  0
 64 65  1  0  0  0  0
 65 66  2  0  0  0  0
 53 67  1  0  0  0  0
 67 68  1  0  0  0  0
 52 69  1  0  0  0  0
 69 70  2  0  0  0  0
 70 71  1  0  0  0  0
 71 72  2  0  0  0  0
 72 73  1  0  0  0  0
 73 74  2  0  0  0  0
 74 75  1  0  0  0  0
 75 76  2  0  0  0  0
 76 77  1  0  0  0  0
 77 78  1  0  0  0  0
 78 79  1  0  0  0  0
 76 80  1  0  0  0  0
 80 81  1  0  0  0  0
 80 82  2  0  0  0  0
 72 83  1  0  0  0  0
 83 84  2  0  0  0  0
 84 85  1  0  0  0  0
 85 86  1  0  0  0  0
 86 87  2  0  0  0  0
 87 88  1  0  0  0  0
 88 89  2  0  0  0  0
 89 90  1  0  0  0  0
 90 91  1  0  0  0  0
 91 92  1  0  0  0  0
 89 93  1  0  0  0  0
 93 94  2  0  0  0  0
 93 95  1  0  0  0  0
 85 96  2  0  0  0  0
 96 97  1  0  0  0  0
 84 98  1  0  0  0  0
 98 99  2  0  0  0  0
 99100  1  0  0  0  0
 99101  1  0  0  0  0
101102  2  0  0  0  0
102103  1  0  0  0  0
103104  2  0  0  0  0
104105  1  0  0  0  0
105106  2  0  0  0  0
106107  1  0  0  0  0
107108  2  0  0  0  0
108109  1  0  0  0  0
109110  1  0  0  0  0
110111  1  0  0  0  0
108112  1  0  0  0  0
112113  1  0  0  0  0
112114  2  0  0  0  0
104115  1  0  0  0  0
115116  2  0  0  0  0
116117  1  0  0  0  0
117118  1  0  0  0  0
118119  2  0  0  0  0
119120  1  0  0  0  0
120121  2  0  0  0  0
121122  1  0  0  0  0
122123  1  0  0  0  0
123124  1  0  0  0  0
121125  1  0  0  0  0
125126  2  0  0  0  0
125127  1  0  0  0  0
117128  2  0  0  0  0
128129  1  0  0  0  0
116130  1  0  0  0  0
130131  2  0  0  0  0
131132  1  0  0  0  0
131133  1  0  0  0  0
133134  2  0  0  0  0
134135  1  0  0  0  0
135136  2  0  0  0  0
136137  1  0  0  0  0
137138  2  0  0  0  0
138139  1  0  0  0  0
139140  2  0  0  0  0
140141  1  0  0  0  0
141142  1  0  0  0  0
142143  1  0  0  0  0
140144  1  0  0  0  0
144145  1  0  0  0  0
144146  2  0  0  0  0
136147  1  0  0  0  0
147148  2  0  0  0  0
148149  1  0  0  0  0
149150  1  0  0  0  0
150151  2  0  0  0  0
151152  1  0  0  0  0
152153  2  0  0  0  0
153154  1  0  0  0  0
154155  1  0  0  0  0
155156  1  0  0  0  0
153157  1  0  0  0  0
157158  2  0  0  0  0
157159  1  0  0  0  0
149160  2  0  0  0  0
160161  1  0  0  0  0
148162  1  0  0  0  0
162163  2  0  0  0  0
163164  1  0  0  0  0
163165  1  0  0  0  0
165166  2  0  0  0  0
166167  1  0  0  0  0
167168  2  0  0  0  0
168169  1  0  0  0  0
169170  2  0  0  0  0
170171  1  0  0  0  0
171172  2  0  0  0  0
172173  1  0  0  0  0
173174  1  0  0  0  0
174175  1  0  0  0  0
172176  1  0  0  0  0
176177  1  0  0  0  0
176178  2  0  0  0  0
168179  1  0  0  0  0
179180  2  0  0  0  0
180181  1  0  0  0  0
181182  1  0  0  0  0
182183  2  0  0  0  0
183184  1  0  0  0  0
184185  2  0  0  0  0
185186  1  0  0  0  0
186187  1  0  0  0  0
187188  1  0  0  0  0
185189  1  0  0  0  0
189190  2  0  0  0  0
189191  1  0  0  0  0
181192  2  0  0  0  0
192193  1  0  0  0  0
180194  1  0  0  0  0
194195  2  0  0  0  0
195196  1  0  0  0  0
 34  1  1  0  0  0  0
 68 35  1  0  0  0  0
 97 69  1  0  0  0  0
129101  1  0  0  0  0
161133  1  0  0  0  0
193165  1  0  0  0  0
  9  4  1  0  0  0  0
 15 10  1  0  0  0  0
 33 16  2  0  0  0  0
 43 38  1  0  0  0  0
 49 44  1  0  0  0  0
 67 50  2  0  0  0  0
 96 71  1  0  0  0  0
128103  1  0  0  0  0
160135  1  0  0  0  0
192167  1  0  0  0  0
 26 21  1  0  0  0  0
 32 27  1  0  0  0  0
 60 55  1  0  0  0  0
 66 61  1  0  0  0  0
 82 73  1  0  0  0  0
100 83  1  0  0  0  0
114105  1  0  0  0  0
132115  1  0  0  0  0
146137  1  0  0  0  0
164147  1  0  0  0  0
178169  1  0  0  0  0
196179  1  0  0  0  0
 94 86  1  0  0  0  0
126118  1  0  0  0  0
158150  1  0  0  0  0
190182  1  0  0  0  0
  1197  1  0  0  0  0
  5198  1  0  0  0  0
  6199  1  0  0  0  0
  7200  1  0  0  0  0
  8201  1  0  0  0  0
  9202  1  0  0  0  0
 11203  1  0  0  0  0
 12204  1  0  0  0  0
 13205  1  0  0  0  0
 14206  1  0  0  0  0
 15207  1  0  0  0  0
 22208  1  0  0  0  0
 23209  1  0  0  0  0
 24210  1  0  0  0  0
 25211  1  0  0  0  0
 26212  1  0  0  0  0
 28213  1  0  0  0  0
 29214  1  0  0  0  0
 30215  1  0  0  0  0
 31216  1  0  0  0  0
 32217  1  0  0  0  0
 39218  1  0  0  0  0
 40219  1  0  0  0  0
 41220  1  0  0  0  0
 42221  1  0  0  0  0
 43222  1  0  0  0  0
 45223  1  0  0  0  0
 46224  1  0  0  0  0
 47225  1  0  0  0  0
 48226  1  0  0  0  0
 49227  1  0  0  0  0
 56228  1  0  0  0  0
 57229  1  0  0  0  0
 58230  1  0  0  0  0
 59231  1  0  0  0  0
 60232  1  0  0  0  0
 62233  1  0  0  0  0
 63234  1  0  0  0  0
 64235  1  0  0  0  0
 65236  1  0  0  0  0
 66237  1  0  0  0  0
 70238  1  0  0  0  0
 74239  1  0  0  0  0
 75240  1  0  0  0  0
 78241  1  0  0  0  0
 78242  1  0  0  0  0
 79243  1  0  0  0  0
 79244  1  0  0  0  0
 79245  1  0  0  0  0
 82246  1  0  0  0  0
 87247  1  0  0  0  0
 88248  1  0  0  0  0
 91249  1  0  0  0  0
 91250  1  0  0  0  0
 92251  1  0  0  0  0
 92252  1  0  0  0  0
 92253  1  0  0  0  0
 94254  1  0  0  0  0
 98255  1  0  0  0  0
102256  1  0  0  0  0
106257  1  0  0  0  0
107258  1  0  0  0  0
110259  1  0  0  0  0
110260  1  0  0  0  0
111261  1  0  0  0  0
111262  1  0  0  0  0
111263  1  0  0  0  0
114264  1  0  0  0  0
119265  1  0  0  0  0
120266  1  0  0  0  0
123267  1  0  0  0  0
123268  1  0  0  0  0
124269  1  0  0  0  0
124270  1  0  0  0  0
124271  1  0  0  0  0
126272  1  0  0  0  0
130273  1  0  0  0  0
134274  1  0  0  0  0
138275  1  0  0  0  0
139276  1  0  0  0  0
142277  1  0  0  0  0
142278  1  0  0  0  0
143279  1  0  0  0  0
143280  1  0  0  0  0
143281  1  0  0  0  0
146282  1  0  0  0  0
151283  1  0  0  0  0
152284  1  0  0  0  0
155285  1  0  0  0  0
155286  1  0  0  0  0
156287  1  0  0  0  0
156288  1  0  0  0  0
156289  1  0  0  0  0
158290  1  0  0  0  0
162291  1  0  0  0  0
166292  1  0  0  0  0
170293  1  0  0  0  0
171294  1  0  0  0  0
174295  1  0  0  0  0
174296  1  0  0  0  0
175297  1  0  0  0  0
175298  1  0  0  0  0
175299  1  0  0  0  0
178300  1  0  0  0  0
183301  1  0  0  0  0
184302  1  0  0  0  0
187303  1  0  0  0  0
187304  1  0  0  0  0
188305  1  0  0  0  0
188306  1  0  0  0  0
188307  1  0  0  0  0
190308  1  0  0  0  0
194309  1  0  0  0  0
195310  1  0  0  0  0
M  END
