
  xtb     03022200203D
 energy: -459.169789526838 gnorm: 0.000568671742 xtb: 6.4.1 (unknown)
236261  0     0  0            999 V2000
   -5.1406  -15.6587    8.7610 C   0  0  0  0  0  0  0  0  0  0  0  0
   -5.9113  -14.9431    9.6043 C   0  0  0  0  0  0  0  0  0  0  0  0
   -6.1114  -13.6003    9.1681 C   0  0  0  0  0  0  0  0  0  0  0  0
   -6.8866  -12.5969    9.7688 C   0  0  0  0  0  0  0  0  0  0  0  0
   -7.6719  -12.8574   10.9649 C   0  0  0  0  0  0  0  0  0  0  0  0
   -7.5115  -11.8679   12.3841 S   0  0  0  0  0  0  0  0  0  0  0  0
   -8.7052  -12.7764   13.2476 C   0  0  0  0  0  0  0  0  0  0  0  0
   -9.0354  -12.4668   14.6664 C   0  0  0  0  0  0  0  0  0  0  0  0
   -8.0826  -13.1928   15.6193 C   0  0  0  0  0  0  0  0  0  0  0  0
   -9.1885  -13.7846   12.4686 C   0  0  0  0  0  0  0  0  0  0  0  0
  -10.3926  -14.8960   12.9804 Cl  0  0  0  0  0  0  0  0  0  0  0  0
   -8.6087  -13.8306   11.1724 C   0  0  0  0  0  0  0  0  0  0  0  0
   -9.1068  -14.9574    9.9760 Cl  0  0  0  0  0  0  0  0  0  0  0  0
   -6.8893  -11.3470    9.1626 C   0  0  0  0  0  0  0  0  0  0  0  0
   -6.1724  -11.0787    7.9746 C   0  0  0  0  0  0  0  0  0  0  0  0
   -5.4190  -12.0881    7.3505 C   0  0  0  0  0  0  0  0  0  0  0  0
   -4.7207  -11.8195    6.1037 C   0  0  0  0  0  0  0  0  0  0  0  0
   -5.5664  -11.1137    4.7552 S   0  0  0  0  0  0  0  0  0  0  0  0
   -4.1427  -11.0726    3.7723 C   0  0  0  0  0  0  0  0  0  0  0  0
   -4.1764  -10.5173    2.3902 C   0  0  0  0  0  0  0  0  0  0  0  0
   -5.0665   -9.2817    2.2952 C   0  0  0  0  0  0  0  0  0  0  0  0
   -3.0880  -11.5957    4.4583 C   0  0  0  0  0  0  0  0  0  0  0  0
   -3.4089  -12.0183    5.7775 C   0  0  0  0  0  0  0  0  0  0  0  0
   -2.2216  -12.6174    6.8588 Cl  0  0  0  0  0  0  0  0  0  0  0  0
   -1.5036  -11.7434    3.8142 Cl  0  0  0  0  0  0  0  0  0  0  0  0
   -5.4065  -13.3322    7.9688 C   0  0  0  0  0  0  0  0  0  0  0  0
   -4.5879  -14.7568    7.3929 S   0  0  0  0  0  0  0  0  0  0  0  0
   -6.3327   -9.7351    7.5609 C   0  0  0  0  0  0  0  0  0  0  0  0
   -7.1640   -9.0028    8.3552 C   0  0  0  0  0  0  0  0  0  0  0  0
   -7.7713   -9.9439    9.6982 S   0  0  0  0  0  0  0  0  0  0  0  0
   -7.5555   -7.6276    8.1459 C   0  0  0  0  0  0  0  0  0  0  0  0
   -8.3886   -6.9403    9.0522 C   0  0  0  0  0  0  0  0  0  0  0  0
   -8.7481   -7.6305   10.1562 O   0  0  0  0  0  0  0  0  0  0  0  0
   -9.7053   -7.1286   11.0665 C   0  0  0  0  0  0  0  0  0  0  0  0
  -11.1278   -7.2258   10.5257 C   0  0  0  0  0  0  0  0  0  0  0  0
   -8.7585   -5.6283    8.7814 C   0  0  0  0  0  0  0  0  0  0  0  0
   -8.3199   -4.9597    7.6440 C   0  0  0  0  0  0  0  0  0  0  0  0
   -8.6663   -3.6861    7.3549 O   0  0  0  0  0  0  0  0  0  0  0  0
   -9.4871   -2.9496    8.2411 C   0  0  0  0  0  0  0  0  0  0  0  0
   -9.6989   -1.5787    7.6184 C   0  0  0  0  0  0  0  0  0  0  0  0
   -7.4671   -5.6259    6.7348 C   0  0  0  0  0  0  0  0  0  0  0  0
   -7.1254   -6.9420    7.0181 C   0  0  0  0  0  0  0  0  0  0  0  0
   -6.9045   -4.9991    5.5580 C   0  0  0  0  0  0  0  0  0  0  0  0
   -7.1450   -3.7808    4.9999 C   0  0  0  0  0  0  0  0  0  0  0  0
   -6.3275   -3.4864    3.8777 C   0  0  0  0  0  0  0  0  0  0  0  0
   -6.3164   -2.3246    3.0874 C   0  0  0  0  0  0  0  0  0  0  0  0
   -7.2113   -1.2048    3.3303 C   0  0  0  0  0  0  0  0  0  0  0  0
   -7.3147   -0.4299    4.8836 S   0  0  0  0  0  0  0  0  0  0  0  0
   -8.4076    0.7792    4.3012 C   0  0  0  0  0  0  0  0  0  0  0  0
   -8.9325    1.8574    5.1864 C   0  0  0  0  0  0  0  0  0  0  0  0
  -10.4013    1.6305    5.5497 C   0  0  0  0  0  0  0  0  0  0  0  0
   -8.6831    0.5679    2.9832 C   0  0  0  0  0  0  0  0  0  0  0  0
   -9.7237    1.5659    2.0535 Cl  0  0  0  0  0  0  0  0  0  0  0  0
   -8.0077   -0.5521    2.4299 C   0  0  0  0  0  0  0  0  0  0  0  0
   -8.2456   -1.0573    0.8090 Cl  0  0  0  0  0  0  0  0  0  0  0  0
   -5.3685   -2.2617    2.0716 C   0  0  0  0  0  0  0  0  0  0  0  0
   -4.4678   -3.3170    1.7884 C   0  0  0  0  0  0  0  0  0  0  0  0
   -4.5254   -4.5069    2.5346 C   0  0  0  0  0  0  0  0  0  0  0  0
   -3.6352   -5.6165    2.2417 C   0  0  0  0  0  0  0  0  0  0  0  0
   -2.6526   -6.3439    3.4788 S   0  0  0  0  0  0  0  0  0  0  0  0
   -1.9336   -7.4554    2.3637 C   0  0  0  0  0  0  0  0  0  0  0  0
   -0.8674   -8.3966    2.8011 C   0  0  0  0  0  0  0  0  0  0  0  0
    0.4873   -7.6899    2.8846 C   0  0  0  0  0  0  0  0  0  0  0  0
   -2.4411   -7.2669    1.1128 C   0  0  0  0  0  0  0  0  0  0  0  0
   -3.4055   -6.2260    1.0391 C   0  0  0  0  0  0  0  0  0  0  0  0
   -4.2415   -5.8415   -0.4107 Cl  0  0  0  0  0  0  0  0  0  0  0  0
   -1.9875   -8.1988   -0.2564 Cl  0  0  0  0  0  0  0  0  0  0  0  0
   -5.4386   -4.5466    3.5781 C   0  0  0  0  0  0  0  0  0  0  0  0
   -5.6558   -5.8719    4.6762 S   0  0  0  0  0  0  0  0  0  0  0  0
   -3.5258   -2.9570    0.7949 C   0  0  0  0  0  0  0  0  0  0  0  0
   -3.6855   -1.6860    0.3290 C   0  0  0  0  0  0  0  0  0  0  0  0
   -5.0376   -0.8675    1.0827 S   0  0  0  0  0  0  0  0  0  0  0  0
   -2.8576   -0.9947   -0.6019 C   0  0  0  0  0  0  0  0  0  0  0  0
   -2.9367    0.3140   -0.9758 C   0  0  0  0  0  0  0  0  0  0  0  0
   -1.8859    0.7194   -1.8336 C   0  0  0  0  0  0  0  0  0  0  0  0
   -1.6071    2.0101   -2.3139 C   0  0  0  0  0  0  0  0  0  0  0  0
   -2.4302    3.1466   -1.9323 C   0  0  0  0  0  0  0  0  0  0  0  0
   -3.1466    4.1915   -3.1218 S   0  0  0  0  0  0  0  0  0  0  0  0
   -3.8910    5.1825   -1.9153 C   0  0  0  0  0  0  0  0  0  0  0  0
   -4.7760    6.3223   -2.2828 C   0  0  0  0  0  0  0  0  0  0  0  0
   -6.2414    5.8825   -2.3311 C   0  0  0  0  0  0  0  0  0  0  0  0
   -3.5930    4.7173   -0.6689 C   0  0  0  0  0  0  0  0  0  0  0  0
   -4.1506    5.4464    0.7807 Cl  0  0  0  0  0  0  0  0  0  0  0  0
   -2.7619    3.5659   -0.6736 C   0  0  0  0  0  0  0  0  0  0  0  0
   -2.1790    2.8415    0.7698 Cl  0  0  0  0  0  0  0  0  0  0  0  0
   -0.4880    2.1544   -3.1212 C   0  0  0  0  0  0  0  0  0  0  0  0
    0.3611    1.0740   -3.4653 C   0  0  0  0  0  0  0  0  0  0  0  0
    0.0791   -0.2198   -2.9917 C   0  0  0  0  0  0  0  0  0  0  0  0
    0.9241   -1.3562   -3.3197 C   0  0  0  0  0  0  0  0  0  0  0  0
    2.6417   -1.3252   -3.0449 S   0  0  0  0  0  0  0  0  0  0  0  0
    2.8441   -2.9454   -3.6168 C   0  0  0  0  0  0  0  0  0  0  0  0
    4.1758   -3.6108   -3.6039 C   0  0  0  0  0  0  0  0  0  0  0  0
    4.4349   -4.2882   -2.2561 C   0  0  0  0  0  0  0  0  0  0  0  0
    1.6423   -3.4683   -3.9902 C   0  0  0  0  0  0  0  0  0  0  0  0
    0.5527   -2.5710   -3.8274 C   0  0  0  0  0  0  0  0  0  0  0  0
   -1.0410   -2.9707   -4.3131 Cl  0  0  0  0  0  0  0  0  0  0  0  0
    1.4419   -5.0554   -4.6098 Cl  0  0  0  0  0  0  0  0  0  0  0  0
   -1.0301   -0.3602   -2.1677 C   0  0  0  0  0  0  0  0  0  0  0  0
   -1.5075   -1.8200   -1.3515 S   0  0  0  0  0  0  0  0  0  0  0  0
    1.4540    1.4974   -4.2594 C   0  0  0  0  0  0  0  0  0  0  0  0
    1.4734    2.8412   -4.4893 C   0  0  0  0  0  0  0  0  0  0  0  0
    0.1026    3.6599   -3.7667 S   0  0  0  0  0  0  0  0  0  0  0  0
    2.4827    3.5863   -5.1654 C   0  0  0  0  0  0  0  0  0  0  0  0
    2.5429    4.9352   -5.3549 C   0  0  0  0  0  0  0  0  0  0  0  0
    3.7353    5.3650   -5.9870 C   0  0  0  0  0  0  0  0  0  0  0  0
    4.1457    6.6813   -6.2622 C   0  0  0  0  0  0  0  0  0  0  0  0
    3.3117    7.8265   -5.9365 C   0  0  0  0  0  0  0  0  0  0  0  0
    2.6805    8.0711   -4.3342 S   0  0  0  0  0  0  0  0  0  0  0  0
    1.9082    9.5538   -4.7781 C   0  0  0  0  0  0  0  0  0  0  0  0
    1.1743   10.3757   -3.7769 C   0  0  0  0  0  0  0  0  0  0  0  0
    2.1070   11.3996   -3.1250 C   0  0  0  0  0  0  0  0  0  0  0  0
    2.1391    9.8324   -6.0921 C   0  0  0  0  0  0  0  0  0  0  0  0
    1.5279   11.2197   -6.8949 Cl  0  0  0  0  0  0  0  0  0  0  0  0
    2.9321    8.8564   -6.7526 C   0  0  0  0  0  0  0  0  0  0  0  0
    3.2888    8.9431   -8.4263 Cl  0  0  0  0  0  0  0  0  0  0  0  0
    5.4042    6.8440   -6.8278 C   0  0  0  0  0  0  0  0  0  0  0  0
    6.2424    5.7522   -7.1636 C   0  0  0  0  0  0  0  0  0  0  0  0
    5.8210    4.4328   -6.9172 C   0  0  0  0  0  0  0  0  0  0  0  0
    6.6802    3.3023   -7.2272 C   0  0  0  0  0  0  0  0  0  0  0  0
    8.3293    3.2582   -6.6728 S   0  0  0  0  0  0  0  0  0  0  0  0
    8.6216    1.7205   -7.4049 C   0  0  0  0  0  0  0  0  0  0  0  0
    9.9494    1.0451   -7.3335 C   0  0  0  0  0  0  0  0  0  0  0  0
   11.0123    1.9078   -6.6671 C   0  0  0  0  0  0  0  0  0  0  0  0
    7.4940    1.2748   -8.0296 C   0  0  0  0  0  0  0  0  0  0  0  0
    6.3919    2.1649   -7.9306 C   0  0  0  0  0  0  0  0  0  0  0  0
    4.8967    1.8595   -8.7093 Cl  0  0  0  0  0  0  0  0  0  0  0  0
    7.4101   -0.2188   -8.8708 Cl  0  0  0  0  0  0  0  0  0  0  0  0
    4.5782    4.2737   -6.3190 C   0  0  0  0  0  0  0  0  0  0  0  0
    3.8899    2.7623   -5.8028 S   0  0  0  0  0  0  0  0  0  0  0  0
    7.4766    6.1828   -7.7019 C   0  0  0  0  0  0  0  0  0  0  0  0
    7.6177    7.5404   -7.7296 C   0  0  0  0  0  0  0  0  0  0  0  0
    6.1959    8.3635   -7.1338 S   0  0  0  0  0  0  0  0  0  0  0  0
    8.7855    8.2553   -8.1360 C   0  0  0  0  0  0  0  0  0  0  0  0
    9.9076    7.7192   -8.6986 C   0  0  0  0  0  0  0  0  0  0  0  0
   10.9412    8.6624   -8.9109 C   0  0  0  0  0  0  0  0  0  0  0  0
   12.2261    8.4366   -9.4346 C   0  0  0  0  0  0  0  0  0  0  0  0
   12.6503    7.1090   -9.8491 C   0  0  0  0  0  0  0  0  0  0  0  0
   12.5235    5.7405   -8.7801 S   0  0  0  0  0  0  0  0  0  0  0  0
   13.2099    4.6592   -9.9478 C   0  0  0  0  0  0  0  0  0  0  0  0
   13.4132    3.2170   -9.6377 C   0  0  0  0  0  0  0  0  0  0  0  0
   14.3889    3.0241   -8.4769 C   0  0  0  0  0  0  0  0  0  0  0  0
   13.5140    5.3350  -11.0906 C   0  0  0  0  0  0  0  0  0  0  0  0
   14.2075    4.6092  -12.4826 Cl  0  0  0  0  0  0  0  0  0  0  0  0
   13.1951    6.7200  -11.0410 C   0  0  0  0  0  0  0  0  0  0  0  0
   13.3972    7.7495  -12.3953 Cl  0  0  0  0  0  0  0  0  0  0  0  0
   13.0704    9.5378   -9.5236 C   0  0  0  0  0  0  0  0  0  0  0  0
   12.6812   10.8403   -9.1250 C   0  0  0  0  0  0  0  0  0  0  0  0
   11.4025   11.0607   -8.5919 C   0  0  0  0  0  0  0  0  0  0  0  0
   10.9974   12.3703   -8.1057 C   0  0  0  0  0  0  0  0  0  0  0  0
    9.5411   13.1386   -8.6607 S   0  0  0  0  0  0  0  0  0  0  0  0
    9.7880   14.5150   -7.6424 C   0  0  0  0  0  0  0  0  0  0  0  0
    8.8529   15.6732   -7.6671 C   0  0  0  0  0  0  0  0  0  0  0  0
    9.2556   16.6790   -8.7483 C   0  0  0  0  0  0  0  0  0  0  0  0
   10.9378   14.3742   -6.9237 C   0  0  0  0  0  0  0  0  0  0  0  0
   11.6241   13.1574   -7.1800 C   0  0  0  0  0  0  0  0  0  0  0  0
   13.0515   12.7053   -6.3403 Cl  0  0  0  0  0  0  0  0  0  0  0  0
   11.5128   15.5375   -5.8003 Cl  0  0  0  0  0  0  0  0  0  0  0  0
   10.5543    9.9642   -8.5111 C   0  0  0  0  0  0  0  0  0  0  0  0
    8.9375    9.9769   -7.8666 S   0  0  0  0  0  0  0  0  0  0  0  0
   13.7247   11.7882   -9.3367 C   0  0  0  0  0  0  0  0  0  0  0  0
   14.8511   11.2263   -9.8197 C   0  0  0  0  0  0  0  0  0  0  0  0
   14.7222    9.5211  -10.0717 S   0  0  0  0  0  0  0  0  0  0  0  0
   -4.8410  -16.6845    8.8516 H   0  0  0  0  0  0  0  0  0  0  0  0
   -6.3241  -15.3380   10.5142 H   0  0  0  0  0  0  0  0  0  0  0  0
   -8.9604  -11.3903   14.8281 H   0  0  0  0  0  0  0  0  0  0  0  0
  -10.0613  -12.7822   14.8660 H   0  0  0  0  0  0  0  0  0  0  0  0
   -8.3319  -12.9567   16.6503 H   0  0  0  0  0  0  0  0  0  0  0  0
   -8.1586  -14.2680   15.4798 H   0  0  0  0  0  0  0  0  0  0  0  0
   -7.0563  -12.8886   15.4286 H   0  0  0  0  0  0  0  0  0  0  0  0
   -3.1555  -10.2720    2.0927 H   0  0  0  0  0  0  0  0  0  0  0  0
   -4.5488  -11.2822    1.7016 H   0  0  0  0  0  0  0  0  0  0  0  0
   -5.0333   -8.8732    1.2891 H   0  0  0  0  0  0  0  0  0  0  0  0
   -6.0964   -9.5378    2.5324 H   0  0  0  0  0  0  0  0  0  0  0  0
   -4.7349   -8.5158    2.9925 H   0  0  0  0  0  0  0  0  0  0  0  0
   -5.8303   -9.3364    6.7012 H   0  0  0  0  0  0  0  0  0  0  0  0
   -9.4605   -6.0999   11.3582 H   0  0  0  0  0  0  0  0  0  0  0  0
   -9.5959   -7.7705   11.9446 H   0  0  0  0  0  0  0  0  0  0  0  0
  -11.3549   -8.2602   10.2818 H   0  0  0  0  0  0  0  0  0  0  0  0
  -11.2453   -6.6280    9.6249 H   0  0  0  0  0  0  0  0  0  0  0  0
  -11.8310   -6.8765   11.2766 H   0  0  0  0  0  0  0  0  0  0  0  0
   -9.3946   -5.1087    9.4777 H   0  0  0  0  0  0  0  0  0  0  0  0
  -10.4531   -3.4558    8.3747 H   0  0  0  0  0  0  0  0  0  0  0  0
   -8.9967   -2.8524    9.2192 H   0  0  0  0  0  0  0  0  0  0  0  0
  -10.3254   -0.9716    8.2657 H   0  0  0  0  0  0  0  0  0  0  0  0
   -8.7417   -1.0844    7.4745 H   0  0  0  0  0  0  0  0  0  0  0  0
  -10.1817   -1.6891    6.6507 H   0  0  0  0  0  0  0  0  0  0  0  0
   -6.4917   -7.4551    6.3142 H   0  0  0  0  0  0  0  0  0  0  0  0
   -7.8804   -3.0996    5.3790 H   0  0  0  0  0  0  0  0  0  0  0  0
   -8.3297    1.8983    6.0946 H   0  0  0  0  0  0  0  0  0  0  0  0
   -8.8387    2.8129    4.6645 H   0  0  0  0  0  0  0  0  0  0  0  0
  -10.5196    0.6934    6.0862 H   0  0  0  0  0  0  0  0  0  0  0  0
  -11.0110    1.5982    4.6512 H   0  0  0  0  0  0  0  0  0  0  0  0
  -10.7556    2.4411    6.1809 H   0  0  0  0  0  0  0  0  0  0  0  0
   -1.1226   -8.8060    3.7797 H   0  0  0  0  0  0  0  0  0  0  0  0
   -0.8047   -9.2171    2.0842 H   0  0  0  0  0  0  0  0  0  0  0  0
    0.7640   -7.2871    1.9133 H   0  0  0  0  0  0  0  0  0  0  0  0
    0.4435   -6.8729    3.6009 H   0  0  0  0  0  0  0  0  0  0  0  0
    1.2531   -8.3925    3.2015 H   0  0  0  0  0  0  0  0  0  0  0  0
   -2.7311   -3.5990    0.4604 H   0  0  0  0  0  0  0  0  0  0  0  0
   -3.7205    0.9656   -0.6347 H   0  0  0  0  0  0  0  0  0  0  0  0
   -4.4778    6.7103   -3.2575 H   0  0  0  0  0  0  0  0  0  0  0  0
   -4.6592    7.1131   -1.5389 H   0  0  0  0  0  0  0  0  0  0  0  0
   -6.8749    6.7234   -2.5999 H   0  0  0  0  0  0  0  0  0  0  0  0
   -6.3750    5.0948   -3.0681 H   0  0  0  0  0  0  0  0  0  0  0  0
   -6.5536    5.5070   -1.3600 H   0  0  0  0  0  0  0  0  0  0  0  0
    4.2006   -4.3589   -4.3986 H   0  0  0  0  0  0  0  0  0  0  0  0
    4.9532   -2.8692   -3.7951 H   0  0  0  0  0  0  0  0  0  0  0  0
    3.6733   -5.0385   -2.0596 H   0  0  0  0  0  0  0  0  0  0  0  0
    4.4147   -3.5539   -1.4543 H   0  0  0  0  0  0  0  0  0  0  0  0
    5.4077   -4.7723   -2.2626 H   0  0  0  0  0  0  0  0  0  0  0  0
    2.2140    0.8376   -4.6369 H   0  0  0  0  0  0  0  0  0  0  0  0
    1.7594    5.5975   -5.0342 H   0  0  0  0  0  0  0  0  0  0  0  0
    0.7558    9.7226   -3.0100 H   0  0  0  0  0  0  0  0  0  0  0  0
    0.3571   10.8964   -4.2799 H   0  0  0  0  0  0  0  0  0  0  0  0
    1.5593   11.9939   -2.3988 H   0  0  0  0  0  0  0  0  0  0  0  0
    2.9258   10.8948   -2.6181 H   0  0  0  0  0  0  0  0  0  0  0  0
    2.5216   12.0641   -3.8785 H   0  0  0  0  0  0  0  0  0  0  0  0
    9.8363    0.1050   -6.7848 H   0  0  0  0  0  0  0  0  0  0  0  0
   10.2574    0.7834   -8.3506 H   0  0  0  0  0  0  0  0  0  0  0  0
   11.1287    2.8515   -7.1956 H   0  0  0  0  0  0  0  0  0  0  0  0
   11.9676    1.3899   -6.6621 H   0  0  0  0  0  0  0  0  0  0  0  0
   10.7322    2.1279   -5.6399 H   0  0  0  0  0  0  0  0  0  0  0  0
    8.2429    5.5111   -8.0374 H   0  0  0  0  0  0  0  0  0  0  0  0
    9.9955    6.6806   -8.9544 H   0  0  0  0  0  0  0  0  0  0  0  0
   13.7970    2.7262  -10.5333 H   0  0  0  0  0  0  0  0  0  0  0  0
   12.4534    2.7618   -9.3808 H   0  0  0  0  0  0  0  0  0  0  0  0
   15.3545    3.4607   -8.7191 H   0  0  0  0  0  0  0  0  0  0  0  0
   14.0068    3.5029   -7.5784 H   0  0  0  0  0  0  0  0  0  0  0  0
   14.5278    1.9649   -8.2779 H   0  0  0  0  0  0  0  0  0  0  0  0
    7.8404   15.3158   -7.8608 H   0  0  0  0  0  0  0  0  0  0  0  0
    8.8727   16.1606   -6.6904 H   0  0  0  0  0  0  0  0  0  0  0  0
   10.2599   17.0507   -8.5615 H   0  0  0  0  0  0  0  0  0  0  0  0
    8.5677   17.5201   -8.7502 H   0  0  0  0  0  0  0  0  0  0  0  0
    9.2349   16.2080   -9.7281 H   0  0  0  0  0  0  0  0  0  0  0  0
   13.6190   12.8388   -9.1396 H   0  0  0  0  0  0  0  0  0  0  0  0
   15.7774   11.7099  -10.0614 H   0  0  0  0  0  0  0  0  0  0  0  0
  1  2  2  0  0  0  0
  2  3  1  0  0  0  0
  3  4  2  0  0  0  0
  4  5  1  0  0  0  0
  5  6  1  0  0  0  0
  6  7  1  0  0  0  0
  7  8  1  0  0  0  0
  8  9  1  0  0  0  0
  7 10  2  0  0  0  0
 10 11  1  0  0  0  0
 10 12  1  0  0  0  0
 12 13  1  0  0  0  0
  4 14  1  0  0  0  0
 14 15  2  0  0  0  0
 15 16  1  0  0  0  0
 16 17  1  0  0  0  0
 17 18  1  0  0  0  0
 18 19  1  0  0  0  0
 19 20  1  0  0  0  0
 20 21  1  0  0  0  0
 19 22  2  0  0  0  0
 22 23  1  0  0  0  0
 23 24  1  0  0  0  0
 22 25  1  0  0  0  0
 16 26  2  0  0  0  0
 26 27  1  0  0  0  0
 15 28  1  0  0  0  0
 28 29  2  0  0  0  0
 29 30  1  0  0  0  0
 29 31  1  0  0  0  0
 31 32  2  0  0  0  0
 32 33  1  0  0  0  0
 33 34  1  0  0  0  0
 34 35  1  0  0  0  0
 32 36  1  0  0  0  0
 36 37  2  0  0  0  0
 37 38  1  0  0  0  0
 38 39  1  0  0  0  0
 39 40  1  0  0  0  0
 37 41  1  0  0  0  0
 41 42  2  0  0  0  0
 41 43  1  0  0  0  0
 43 44  2  0  0  0  0
 44 45  1  0  0  0  0
 45 46  2  0  0  0  0
 46 47  1  0  0  0  0
 47 48  1  0  0  0  0
 48 49  1  0  0  0  0
 49 50  1  0  0  0  0
 50 51  1  0  0  0  0
 49 52  2  0  0  0  0
 52 53  1  0  0  0  0
 52 54  1  0  0  0  0
 54 55  1  0  0  0  0
 46 56  1  0  0  0  0
 56 57  2  0  0  0  0
 57 58  1  0  0  0  0
 58 59  1  0  0  0  0
 59 60  1  0  0  0  0
 60 61  1  0  0  0  0
 61 62  1  0  0  0  0
 62 63  1  0  0  0  0
 61 64  2  0  0  0  0
 64 65  1  0  0  0  0
 65 66  1  0  0  0  0
 64 67  1  0  0  0  0
 58 68  2  0  0  0  0
 68 69  1  0  0  0  0
 57 70  1  0  0  0  0
 70 71  2  0  0  0  0
 71 72  1  0  0  0  0
 71 73  1  0  0  0  0
 73 74  2  0  0  0  0
 74 75  1  0  0  0  0
 75 76  2  0  0  0  0
 76 77  1  0  0  0  0
 77 78  1  0  0  0  0
 78 79  1  0  0  0  0
 79 80  1  0  0  0  0
 80 81  1  0  0  0  0
 79 82  2  0  0  0  0
 82 83  1  0  0  0  0
 82 84  1  0  0  0  0
 84 85  1  0  0  0  0
 76 86  1  0  0  0  0
 86 87  2  0  0  0  0
 87 88  1  0  0  0  0
 88 89  1  0  0  0  0
 89 90  1  0  0  0  0
 90 91  1  0  0  0  0
 91 92  1  0  0  0  0
 92 93  1  0  0  0  0
 91 94  2  0  0  0  0
 94 95  1  0  0  0  0
 95 96  1  0  0  0  0
 94 97  1  0  0  0  0
 88 98  2  0  0  0  0
 98 99  1  0  0  0  0
 87100  1  0  0  0  0
100101  2  0  0  0  0
101102  1  0  0  0  0
101103  1  0  0  0  0
103104  2  0  0  0  0
104105  1  0  0  0  0
105106  2  0  0  0  0
106107  1  0  0  0  0
107108  1  0  0  0  0
108109  1  0  0  0  0
109110  1  0  0  0  0
110111  1  0  0  0  0
109112  2  0  0  0  0
112113  1  0  0  0  0
112114  1  0  0  0  0
114115  1  0  0  0  0
106116  1  0  0  0  0
116117  2  0  0  0  0
117118  1  0  0  0  0
118119  1  0  0  0  0
119120  1  0  0  0  0
120121  1  0  0  0  0
121122  1  0  0  0  0
122123  1  0  0  0  0
121124  2  0  0  0  0
124125  1  0  0  0  0
125126  1  0  0  0  0
124127  1  0  0  0  0
118128  2  0  0  0  0
128129  1  0  0  0  0
117130  1  0  0  0  0
130131  2  0  0  0  0
131132  1  0  0  0  0
131133  1  0  0  0  0
133134  2  0  0  0  0
134135  1  0  0  0  0
135136  2  0  0  0  0
136137  1  0  0  0  0
137138  1  0  0  0  0
138139  1  0  0  0  0
139140  1  0  0  0  0
140141  1  0  0  0  0
139142  2  0  0  0  0
142143  1  0  0  0  0
142144  1  0  0  0  0
144145  1  0  0  0  0
136146  1  0  0  0  0
146147  2  0  0  0  0
147148  1  0  0  0  0
148149  1  0  0  0  0
149150  1  0  0  0  0
150151  1  0  0  0  0
151152  1  0  0  0  0
152153  1  0  0  0  0
151154  2  0  0  0  0
154155  1  0  0  0  0
155156  1  0  0  0  0
154157  1  0  0  0  0
148158  2  0  0  0  0
158159  1  0  0  0  0
147160  1  0  0  0  0
160161  2  0  0  0  0
161162  1  0  0  0  0
 27  1  1  0  0  0  0
 42 31  1  0  0  0  0
 69 43  1  0  0  0  0
 99 73  1  0  0  0  0
129103  1  0  0  0  0
159133  1  0  0  0  0
 26  3  1  0  0  0  0
 68 45  1  0  0  0  0
 98 75  1  0  0  0  0
128105  1  0  0  0  0
158135  1  0  0  0  0
 12  5  2  0  0  0  0
 30 14  1  0  0  0  0
 54 47  2  0  0  0  0
 72 56  1  0  0  0  0
 84 77  2  0  0  0  0
102 86  1  0  0  0  0
114107  2  0  0  0  0
132116  1  0  0  0  0
144137  2  0  0  0  0
162146  1  0  0  0  0
 23 17  2  0  0  0  0
 65 59  2  0  0  0  0
 95 89  2  0  0  0  0
125119  2  0  0  0  0
155149  2  0  0  0  0
  1163  1  0  0  0  0
  2164  1  0  0  0  0
  8165  1  0  0  0  0
  8166  1  0  0  0  0
  9167  1  0  0  0  0
  9168  1  0  0  0  0
  9169  1  0  0  0  0
 20170  1  0  0  0  0
 20171  1  0  0  0  0
 21172  1  0  0  0  0
 21173  1  0  0  0  0
 21174  1  0  0  0  0
 28175  1  0  0  0  0
 34176  1  0  0  0  0
 34177  1  0  0  0  0
 35178  1  0  0  0  0
 35179  1  0  0  0  0
 35180  1  0  0  0  0
 36181  1  0  0  0  0
 39182  1  0  0  0  0
 39183  1  0  0  0  0
 40184  1  0  0  0  0
 40185  1  0  0  0  0
 40186  1  0  0  0  0
 42187  1  0  0  0  0
 44188  1  0  0  0  0
 50189  1  0  0  0  0
 50190  1  0  0  0  0
 51191  1  0  0  0  0
 51192  1  0  0  0  0
 51193  1  0  0  0  0
 62194  1  0  0  0  0
 62195  1  0  0  0  0
 63196  1  0  0  0  0
 63197  1  0  0  0  0
 63198  1  0  0  0  0
 70199  1  0  0  0  0
 74200  1  0  0  0  0
 80201  1  0  0  0  0
 80202  1  0  0  0  0
 81203  1  0  0  0  0
 81204  1  0  0  0  0
 81205  1  0  0  0  0
 92206  1  0  0  0  0
 92207  1  0  0  0  0
 93208  1  0  0  0  0
 93209  1  0  0  0  0
 93210  1  0  0  0  0
100211  1  0  0  0  0
104212  1  0  0  0  0
110213  1  0  0  0  0
110214  1  0  0  0  0
111215  1  0  0  0  0
111216  1  0  0  0  0
111217  1  0  0  0  0
122218  1  0  0  0  0
122219  1  0  0  0  0
123220  1  0  0  0  0
123221  1  0  0  0  0
123222  1  0  0  0  0
130223  1  0  0  0  0
134224  1  0  0  0  0
140225  1  0  0  0  0
140226  1  0  0  0  0
141227  1  0  0  0  0
141228  1  0  0  0  0
141229  1  0  0  0  0
152230  1  0  0  0  0
152231  1  0  0  0  0
153232  1  0  0  0  0
153233  1  0  0  0  0
153234  1  0  0  0  0
160235  1  0  0  0  0
161236  1  0  0  0  0
M  END
