
  xtb     02282216503D
 energy: -237.101419351022 gnorm: 0.000317386604 xtb: 6.4.1 (unknown)
148165  0     0  0            999 V2000
    9.0568    5.0757    8.9664 C   0  0  0  0  0  0  0  0  0  0  0  0
    8.2222    5.4035   10.0266 C   0  0  0  0  0  0  0  0  0  0  0  0
    6.8853    5.6253    9.7737 C   0  0  0  0  0  0  0  0  0  0  0  0
    6.3793    5.5200    8.4682 C   0  0  0  0  0  0  0  0  0  0  0  0
    7.2170    5.1933    7.4135 C   0  0  0  0  0  0  0  0  0  0  0  0
    8.5588    4.9731    7.6761 C   0  0  0  0  0  0  0  0  0  0  0  0
    4.9553    5.8004    8.5027 C   0  0  0  0  0  0  0  0  0  0  0  0
    4.5878    6.0791    9.8288 C   0  0  0  0  0  0  0  0  0  0  0  0
    5.7863    5.9905   10.7295 C   0  0  0  0  0  0  0  0  0  0  0  0
    3.2850    6.3866   10.1457 C   0  0  0  0  0  0  0  0  0  0  0  0
    2.3144    6.3942    9.1383 C   0  0  0  0  0  0  0  0  0  0  0  0
    2.6949    6.1319    7.8192 C   0  0  0  0  0  0  0  0  0  0  0  0
    4.0042    5.8366    7.4936 C   0  0  0  0  0  0  0  0  0  0  0  0
    0.9396    6.7410    9.4838 C   0  0  0  0  0  0  0  0  0  0  0  0
   -0.1917    6.2414    8.9734 C   0  0  0  0  0  0  0  0  0  0  0  0
   -0.3518    5.1265    8.0477 C   0  0  0  0  0  0  0  0  0  0  0  0
   -1.4289    5.1418    7.1538 C   0  0  0  0  0  0  0  0  0  0  0  0
   -1.6170    4.0820    6.2981 C   0  0  0  0  0  0  0  0  0  0  0  0
   -0.7490    2.9773    6.3269 C   0  0  0  0  0  0  0  0  0  0  0  0
    0.3074    2.9433    7.2266 C   0  0  0  0  0  0  0  0  0  0  0  0
    0.4945    4.0133    8.0785 C   0  0  0  0  0  0  0  0  0  0  0  0
   -1.1942    2.0160    5.3410 C   0  0  0  0  0  0  0  0  0  0  0  0
   -2.3416    2.5247    4.7046 C   0  0  0  0  0  0  0  0  0  0  0  0
   -2.6862    3.8750    5.2644 C   0  0  0  0  0  0  0  0  0  0  0  0
   -2.9779    1.8130    3.7175 C   0  0  0  0  0  0  0  0  0  0  0  0
   -2.4687    0.5613    3.3359 C   0  0  0  0  0  0  0  0  0  0  0  0
   -1.3217    0.0686    3.9786 C   0  0  0  0  0  0  0  0  0  0  0  0
   -0.6841    0.7784    4.9741 C   0  0  0  0  0  0  0  0  0  0  0  0
   -3.0501   -0.2239    2.2764 C   0  0  0  0  0  0  0  0  0  0  0  0
   -4.1640    0.0621    1.5728 C   0  0  0  0  0  0  0  0  0  0  0  0
   -4.6240   -0.7300    0.4845 C   0  0  0  0  0  0  0  0  0  0  0  0
   -3.6918   -2.0841   -0.0924 S   0  0  0  0  0  0  0  0  0  0  0  0
   -5.7706   -0.5647   -0.2767 C   0  0  0  0  0  0  0  0  0  0  0  0
   -6.7686    0.4847   -0.0275 C   0  0  0  0  0  0  0  0  0  0  0  0
   -6.6708    1.3434    0.8378 O   0  0  0  0  0  0  0  0  0  0  0  0
   -7.9081    0.3967   -0.9286 C   0  0  0  0  0  0  0  0  0  0  0  0
   -9.0401    1.1792   -0.9828 C   0  0  0  0  0  0  0  0  0  0  0  0
   -9.8455    0.7083   -1.9653 N   0  0  0  0  0  0  0  0  0  0  0  0
  -11.0949    1.3002   -2.3701 C   0  0  0  0  0  0  0  0  0  0  0  0
  -10.8784    2.3653   -3.4435 C   0  0  0  0  0  0  0  0  0  0  0  0
   -9.2569   -0.3581   -2.5585 C   0  0  0  0  0  0  0  0  0  0  0  0
   -8.0476   -0.5926   -1.9426 C   0  0  0  0  0  0  0  0  0  0  0  0
   -7.0603   -1.6274   -2.2152 C   0  0  0  0  0  0  0  0  0  0  0  0
   -7.2169   -2.4928   -3.0606 O   0  0  0  0  0  0  0  0  0  0  0  0
   -5.8806   -1.5237   -1.3368 C   0  0  0  0  0  0  0  0  0  0  0  0
   -4.8146   -2.3961   -1.3769 C   0  0  0  0  0  0  0  0  0  0  0  0
   -4.4524   -3.4331   -2.3261 C   0  0  0  0  0  0  0  0  0  0  0  0
   -4.5302   -3.1923   -3.7011 C   0  0  0  0  0  0  0  0  0  0  0  0
   -4.0405   -4.1396   -4.5675 C   0  0  0  0  0  0  0  0  0  0  0  0
   -3.4735   -5.3324   -4.0881 C   0  0  0  0  0  0  0  0  0  0  0  0
   -3.4212   -5.5873   -2.7262 C   0  0  0  0  0  0  0  0  0  0  0  0
   -3.9016   -4.6290   -1.8564 C   0  0  0  0  0  0  0  0  0  0  0  0
   -2.9130   -6.0579   -5.2108 C   0  0  0  0  0  0  0  0  0  0  0  0
   -3.1300   -5.3085   -6.3787 C   0  0  0  0  0  0  0  0  0  0  0  0
   -3.9363   -4.0827   -6.0638 C   0  0  0  0  0  0  0  0  0  0  0  0
   -2.5334   -5.6715   -7.5660 C   0  0  0  0  0  0  0  0  0  0  0  0
   -1.6718   -6.7694   -7.5763 C   0  0  0  0  0  0  0  0  0  0  0  0
   -1.5374   -7.5629   -6.4357 C   0  0  0  0  0  0  0  0  0  0  0  0
   -2.1626   -7.2234   -5.2515 C   0  0  0  0  0  0  0  0  0  0  0  0
   -0.7719   -7.0063   -8.7177 C   0  0  0  0  0  0  0  0  0  0  0  0
    0.5165   -6.6427   -8.6828 C   0  0  0  0  0  0  0  0  0  0  0  0
    1.1513   -5.9393   -7.5982 C   0  0  0  0  0  0  0  0  0  0  0  0
    0.2375   -4.9797   -6.4792 S   0  0  0  0  0  0  0  0  0  0  0  0
    2.5004   -5.8839   -7.2952 C   0  0  0  0  0  0  0  0  0  0  0  0
    3.5321   -6.5671   -8.0917 C   0  0  0  0  0  0  0  0  0  0  0  0
    3.3046   -7.2330   -9.0909 O   0  0  0  0  0  0  0  0  0  0  0  0
    4.8736   -6.3582   -7.5697 C   0  0  0  0  0  0  0  0  0  0  0  0
    6.0831   -6.8018   -8.0564 C   0  0  0  0  0  0  0  0  0  0  0  0
    7.0634   -6.3935   -7.2150 N   0  0  0  0  0  0  0  0  0  0  0  0
    8.4743   -6.5915   -7.4273 C   0  0  0  0  0  0  0  0  0  0  0  0
    9.0646   -5.4653   -8.2741 C   0  0  0  0  0  0  0  0  0  0  0  0
    6.5169   -5.6902   -6.1935 C   0  0  0  0  0  0  0  0  0  0  0  0
    5.1523   -5.6434   -6.3717 C   0  0  0  0  0  0  0  0  0  0  0  0
    4.1357   -5.0142   -5.5392 C   0  0  0  0  0  0  0  0  0  0  0  0
    4.3926   -4.5022   -4.4619 O   0  0  0  0  0  0  0  0  0  0  0  0
    2.7874   -5.0928   -6.1301 C   0  0  0  0  0  0  0  0  0  0  0  0
    1.6515   -4.5244   -5.5854 C   0  0  0  0  0  0  0  0  0  0  0  0
    1.4233   -3.6366   -4.4584 C   0  0  0  0  0  0  0  0  0  0  0  0
    2.3188   -2.6155   -4.1240 C   0  0  0  0  0  0  0  0  0  0  0  0
    2.0139   -1.7791   -3.0762 C   0  0  0  0  0  0  0  0  0  0  0  0
    0.8111   -1.9158   -2.3618 C   0  0  0  0  0  0  0  0  0  0  0  0
   -0.0893   -2.9166   -2.6986 C   0  0  0  0  0  0  0  0  0  0  0  0
    0.2267   -3.7657   -3.7394 C   0  0  0  0  0  0  0  0  0  0  0  0
    0.7636   -0.8900   -1.3399 C   0  0  0  0  0  0  0  0  0  0  0  0
    1.9445   -0.1322   -1.4105 C   0  0  0  0  0  0  0  0  0  0  0  0
    2.8195   -0.6406   -2.5198 C   0  0  0  0  0  0  0  0  0  0  0  0
    2.1627    0.9052   -0.5342 C   0  0  0  0  0  0  0  0  0  0  0  0
    1.1931    1.2222    0.4257 C   0  0  0  0  0  0  0  0  0  0  0  0
    0.0148    0.4701    0.4705 C   0  0  0  0  0  0  0  0  0  0  0  0
   -0.2050   -0.5822   -0.3955 C   0  0  0  0  0  0  0  0  0  0  0  0
    1.4552    2.3200    1.3466 C   0  0  0  0  0  0  0  0  0  0  0  0
    0.6194    2.8225    2.2487 C   0  0  0  0  0  0  0  0  0  0  0  0
   10.1067    4.8985    9.1488 H   0  0  0  0  0  0  0  0  0  0  0  0
    8.6168    5.4820   11.0297 H   0  0  0  0  0  0  0  0  0  0  0  0
    6.8321    5.1117    6.4078 H   0  0  0  0  0  0  0  0  0  0  0  0
    9.2276    4.7176    6.8668 H   0  0  0  0  0  0  0  0  0  0  0  0
    5.9866    6.9411   11.2305 H   0  0  0  0  0  0  0  0  0  0  0  0
    5.6553    5.2330   11.5062 H   0  0  0  0  0  0  0  0  0  0  0  0
    3.0002    6.6043   11.1660 H   0  0  0  0  0  0  0  0  0  0  0  0
    1.9459    6.1741    7.0426 H   0  0  0  0  0  0  0  0  0  0  0  0
    4.2803    5.6408    6.4681 H   0  0  0  0  0  0  0  0  0  0  0  0
    0.8533    7.5120   10.2414 H   0  0  0  0  0  0  0  0  0  0  0  0
   -1.1264    6.6933    9.2864 H   0  0  0  0  0  0  0  0  0  0  0  0
   -2.0977    5.9915    7.1359 H   0  0  0  0  0  0  0  0  0  0  0  0
    0.9687    2.0907    7.2679 H   0  0  0  0  0  0  0  0  0  0  0  0
    1.2995    3.9887    8.7972 H   0  0  0  0  0  0  0  0  0  0  0  0
   -3.6854    3.8871    5.7063 H   0  0  0  0  0  0  0  0  0  0  0  0
   -2.6608    4.6492    4.4933 H   0  0  0  0  0  0  0  0  0  0  0  0
   -3.8539    2.2147    3.2319 H   0  0  0  0  0  0  0  0  0  0  0  0
   -0.9294   -0.8913    3.6739 H   0  0  0  0  0  0  0  0  0  0  0  0
    0.1986    0.3812    5.4521 H   0  0  0  0  0  0  0  0  0  0  0  0
   -2.5073   -1.1293    2.0244 H   0  0  0  0  0  0  0  0  0  0  0  0
   -4.7742    0.9259    1.7907 H   0  0  0  0  0  0  0  0  0  0  0  0
   -9.3118    2.0226   -0.3796 H   0  0  0  0  0  0  0  0  0  0  0  0
  -11.5683    1.7467   -1.4916 H   0  0  0  0  0  0  0  0  0  0  0  0
  -11.7458    0.5102   -2.7540 H   0  0  0  0  0  0  0  0  0  0  0  0
  -11.8306    2.8005   -3.7334 H   0  0  0  0  0  0  0  0  0  0  0  0
  -10.2324    3.1551   -3.0676 H   0  0  0  0  0  0  0  0  0  0  0  0
  -10.4119    1.9269   -4.3225 H   0  0  0  0  0  0  0  0  0  0  0  0
   -9.7209   -0.8887   -3.3661 H   0  0  0  0  0  0  0  0  0  0  0  0
   -4.9351   -2.2618   -4.0658 H   0  0  0  0  0  0  0  0  0  0  0  0
   -2.9895   -6.5018   -2.3482 H   0  0  0  0  0  0  0  0  0  0  0  0
   -3.8489   -4.7964   -0.7897 H   0  0  0  0  0  0  0  0  0  0  0  0
   -3.4430   -3.1711   -6.4071 H   0  0  0  0  0  0  0  0  0  0  0  0
   -4.9248   -4.1186   -6.5288 H   0  0  0  0  0  0  0  0  0  0  0  0
   -2.6527   -5.0721   -8.4571 H   0  0  0  0  0  0  0  0  0  0  0  0
   -0.8872   -8.4250   -6.4768 H   0  0  0  0  0  0  0  0  0  0  0  0
   -2.0218   -7.8241   -4.3654 H   0  0  0  0  0  0  0  0  0  0  0  0
   -1.1696   -7.5049   -9.5908 H   0  0  0  0  0  0  0  0  0  0  0  0
    1.1775   -6.8959   -9.5003 H   0  0  0  0  0  0  0  0  0  0  0  0
    6.2911   -7.3795   -8.9350 H   0  0  0  0  0  0  0  0  0  0  0  0
    8.9707   -6.6272   -6.4541 H   0  0  0  0  0  0  0  0  0  0  0  0
    8.6199   -7.5516   -7.9295 H   0  0  0  0  0  0  0  0  0  0  0  0
   10.1278   -5.6296   -8.4246 H   0  0  0  0  0  0  0  0  0  0  0  0
    8.9251   -4.5074   -7.7787 H   0  0  0  0  0  0  0  0  0  0  0  0
    8.5756   -5.4263   -9.2445 H   0  0  0  0  0  0  0  0  0  0  0  0
    7.1138   -5.2710   -5.4080 H   0  0  0  0  0  0  0  0  0  0  0  0
    3.2307   -2.4863   -4.6832 H   0  0  0  0  0  0  0  0  0  0  0  0
   -1.0192   -3.0356   -2.1621 H   0  0  0  0  0  0  0  0  0  0  0  0
   -0.4617   -4.5563   -4.0040 H   0  0  0  0  0  0  0  0  0  0  0  0
    3.7881   -0.9853   -2.1505 H   0  0  0  0  0  0  0  0  0  0  0  0
    3.0108    0.1295   -3.2710 H   0  0  0  0  0  0  0  0  0  0  0  0
    3.0764    1.4821   -0.5834 H   0  0  0  0  0  0  0  0  0  0  0  0
   -0.7380    0.7139    1.2026 H   0  0  0  0  0  0  0  0  0  0  0  0
   -1.1180   -1.1556   -0.3404 H   0  0  0  0  0  0  0  0  0  0  0  0
    2.4456    2.7515    1.2569 H   0  0  0  0  0  0  0  0  0  0  0  0
    0.9130    3.6347    2.8919 H   0  0  0  0  0  0  0  0  0  0  0  0
   -0.3820    2.4550    2.3886 H   0  0  0  0  0  0  0  0  0  0  0  0
  1  2  2  0  0  0  0
  2  3  1  0  0  0  0
  3  4  2  0  0  0  0
  4  5  1  0  0  0  0
  5  6  2  0  0  0  0
  4  7  1  0  0  0  0
  7  8  2  0  0  0  0
  8  9  1  0  0  0  0
  8 10  1  0  0  0  0
 10 11  2  0  0  0  0
 11 12  1  0  0  0  0
 12 13  2  0  0  0  0
 11 14  1  0  0  0  0
 14 15  2  0  0  0  0
 15 16  1  0  0  0  0
 16 17  2  0  0  0  0
 17 18  1  0  0  0  0
 18 19  2  0  0  0  0
 19 20  1  0  0  0  0
 20 21  2  0  0  0  0
 19 22  1  0  0  0  0
 22 23  2  0  0  0  0
 23 24  1  0  0  0  0
 23 25  1  0  0  0  0
 25 26  2  0  0  0  0
 26 27  1  0  0  0  0
 27 28  2  0  0  0  0
 26 29  1  0  0  0  0
 29 30  2  0  0  0  0
 30 31  1  0  0  0  0
 31 32  1  0  0  0  0
 31 33  2  0  0  0  0
 33 34  1  0  0  0  0
 34 35  2  0  0  0  0
 34 36  1  0  0  0  0
 36 37  2  0  0  0  0
 37 38  1  0  0  0  0
 38 39  1  0  0  0  0
 39 40  1  0  0  0  0
 38 41  1  0  0  0  0
 41 42  2  0  0  0  0
 42 43  1  0  0  0  0
 43 44  2  0  0  0  0
 43 45  1  0  0  0  0
 45 46  2  0  0  0  0
 46 47  1  0  0  0  0
 47 48  2  0  0  0  0
 48 49  1  0  0  0  0
 49 50  2  0  0  0  0
 50 51  1  0  0  0  0
 51 52  2  0  0  0  0
 50 53  1  0  0  0  0
 53 54  2  0  0  0  0
 54 55  1  0  0  0  0
 54 56  1  0  0  0  0
 56 57  2  0  0  0  0
 57 58  1  0  0  0  0
 58 59  2  0  0  0  0
 57 60  1  0  0  0  0
 60 61  2  0  0  0  0
 61 62  1  0  0  0  0
 62 63  1  0  0  0  0
 62 64  2  0  0  0  0
 64 65  1  0  0  0  0
 65 66  2  0  0  0  0
 65 67  1  0  0  0  0
 67 68  2  0  0  0  0
 68 69  1  0  0  0  0
 69 70  1  0  0  0  0
 70 71  1  0  0  0  0
 69 72  1  0  0  0  0
 72 73  2  0  0  0  0
 73 74  1  0  0  0  0
 74 75  2  0  0  0  0
 74 76  1  0  0  0  0
 76 77  2  0  0  0  0
 77 78  1  0  0  0  0
 78 79  2  0  0  0  0
 79 80  1  0  0  0  0
 80 81  2  0  0  0  0
 81 82  1  0  0  0  0
 82 83  2  0  0  0  0
 81 84  1  0  0  0  0
 84 85  2  0  0  0  0
 85 86  1  0  0  0  0
 85 87  1  0  0  0  0
 87 88  2  0  0  0  0
 88 89  1  0  0  0  0
 89 90  2  0  0  0  0
 88 91  1  0  0  0  0
 91 92  2  0  0  0  0
  6  1  1  0  0  0  0
 13  7  1  0  0  0  0
 21 16  1  0  0  0  0
 28 22  1  0  0  0  0
 46 32  1  0  0  0  0
 52 47  1  0  0  0  0
 59 53  1  0  0  0  0
 77 63  1  0  0  0  0
 83 78  1  0  0  0  0
 90 84  1  0  0  0  0
  9  3  1  0  0  0  0
 24 18  1  0  0  0  0
 45 33  1  0  0  0  0
 55 49  1  0  0  0  0
 76 64  1  0  0  0  0
 86 80  1  0  0  0  0
 42 36  1  0  0  0  0
 73 67  1  0  0  0  0
  1 93  1  0  0  0  0
  2 94  1  0  0  0  0
  5 95  1  0  0  0  0
  6 96  1  0  0  0  0
  9 97  1  0  0  0  0
  9 98  1  0  0  0  0
 10 99  1  0  0  0  0
 12100  1  0  0  0  0
 13101  1  0  0  0  0
 14102  1  0  0  0  0
 15103  1  0  0  0  0
 17104  1  0  0  0  0
 20105  1  0  0  0  0
 21106  1  0  0  0  0
 24107  1  0  0  0  0
 24108  1  0  0  0  0
 25109  1  0  0  0  0
 27110  1  0  0  0  0
 28111  1  0  0  0  0
 29112  1  0  0  0  0
 30113  1  0  0  0  0
 37114  1  0  0  0  0
 39115  1  0  0  0  0
 39116  1  0  0  0  0
 40117  1  0  0  0  0
 40118  1  0  0  0  0
 40119  1  0  0  0  0
 41120  1  0  0  0  0
 48121  1  0  0  0  0
 51122  1  0  0  0  0
 52123  1  0  0  0  0
 55124  1  0  0  0  0
 55125  1  0  0  0  0
 56126  1  0  0  0  0
 58127  1  0  0  0  0
 59128  1  0  0  0  0
 60129  1  0  0  0  0
 61130  1  0  0  0  0
 68131  1  0  0  0  0
 70132  1  0  0  0  0
 70133  1  0  0  0  0
 71134  1  0  0  0  0
 71135  1  0  0  0  0
 71136  1  0  0  0  0
 72137  1  0  0  0  0
 79138  1  0  0  0  0
 82139  1  0  0  0  0
 83140  1  0  0  0  0
 86141  1  0  0  0  0
 86142  1  0  0  0  0
 87143  1  0  0  0  0
 89144  1  0  0  0  0
 90145  1  0  0  0  0
 91146  1  0  0  0  0
 92147  1  0  0  0  0
 92148  1  0  0  0  0
M  END
