228

C          1.48980       -5.38870       14.96500
S          2.82110       -4.58380       14.27610
C          2.36860       -5.17320       12.71480
N          3.13400       -4.78470       11.59890
O          2.80390       -5.21380       10.51290
O          4.07580       -4.04570       11.80810
C          1.24010       -5.94330       12.74100
C          0.71590       -6.07660       14.04950
C         -0.50030       -6.80150       14.31460
C         -1.04160       -7.03130       15.52700
C         -2.29950       -7.68200       15.73330
S         -2.56620       -8.59330       17.18170
C         -4.13370       -9.04810       16.61160
N         -4.92740       -9.87740       17.42100
O         -4.45670      -10.21700       18.49090
O         -6.02220      -10.19450       16.99740
C         -4.44410       -8.51490       15.38780
C         -3.40650       -7.71420       14.87570
C         -3.47390       -6.93220       13.67030
C         -4.22980       -7.18390       12.58730
C         -4.14600       -6.38660       11.40390
C         -4.78410       -6.57600       10.21330
C         -4.38850       -5.66710        9.19720
C         -4.82760       -5.61760        7.86310
C         -5.90370       -6.49060        7.38080
C         -7.11030       -6.57410        8.07050
C         -8.13990       -7.37690        7.61920
C         -7.99940       -8.12910        6.45820
S         -9.21080       -9.21270        5.78210
C        -10.74690       -8.78860        6.67380
C        -11.29930       -7.43780        6.26010
C         -6.78040       -8.04130        5.78160
F         -6.60250       -8.76900        4.66190
C         -5.74870       -7.24160        6.21730
C         -4.20020       -4.69610        7.03750
C         -3.20860       -3.79270        7.49630
C         -2.79640       -3.81210        8.84030
C         -1.78770       -2.87490        9.34700
C         -1.85270       -1.51020        9.05930
C         -0.87630       -0.64620        9.50520
C          0.18990       -1.09480       10.28590
S          1.40040        0.07860       10.79700
C          2.95250       -0.90850       10.85700
C          4.13220        0.00720       10.60240
C          0.19610       -2.44260       10.62790
C         -0.74450       -3.32820       10.14850
F          1.13320       -2.93680       11.47360
C         -3.38590       -4.77280        9.64880
S         -3.02020       -5.03950       11.33080
C         -2.71720       -2.97500        6.44900
C         -3.31250       -3.21110        5.24510
S         -4.52180       -4.47100        5.33730
C         -3.00660       -2.55570        4.01130
C         -2.39900       -1.34390        3.86790
C         -2.16490       -0.98290        2.51780
C         -1.53550        0.17480        2.03340
C         -0.98880        1.19550        2.93540
C         -0.12780        0.85230        3.97700
C          0.41190        1.82530        4.79020
C          0.10780        3.17360        4.60960
S          0.83750        4.32820        5.73200
C          1.26460        5.76230        4.67650
C          2.16750        5.37220        3.52370
C         -0.77950        3.49740        3.58740
F         -1.16370        4.77590        3.38300
C         -1.30760        2.53650        2.74960
C         -1.42380        0.29140        0.65700
C         -1.87830       -0.70310       -0.24480
C         -2.49680       -1.86810        0.24100
C         -2.91620       -2.94290       -0.66710
C         -4.19310       -3.49580       -0.59570
C         -4.56590       -4.51470       -1.44740
C         -3.68780       -5.01420       -2.40470
S         -4.26760       -6.29680       -3.48310
C         -2.89760       -7.51220       -3.43660
C         -2.64050       -8.01360       -2.03020
C         -2.42430       -4.43780       -2.48160
C         -2.02930       -3.43450       -1.62150
F         -1.53400       -4.84450       -3.41620
C         -2.64650       -1.96560        1.61630
S         -3.35570       -3.31100        2.47080
C         -1.60220       -0.35680       -1.59060
C         -0.92510        0.82050       -1.72560
S         -0.63680        1.59900       -0.18520
C         -0.39550        1.37760       -2.92900
C         -0.37850        0.79550       -4.16320
C          0.34800        1.53210       -5.13060
C          0.58100        1.19590       -6.47670
C          0.08660       -0.06650       -7.03680
C          0.27310       -1.27110       -6.35970
C         -0.23710       -2.45410       -6.85360
C         -0.95050       -2.47960       -8.04740
S         -1.65190       -3.94130       -8.74210
C         -2.14440       -4.89160       -7.25850
C         -3.17430       -4.15230       -6.42920
C         -1.08540       -1.27760       -8.74140
F         -1.74380       -1.26340       -9.91630
C         -0.58790       -0.08800       -8.25530
C          1.30820        2.10990       -7.22420
C          1.80100        3.32910       -6.69400
C          1.55860        3.66890       -5.35270
C          2.00650        4.94750       -4.79000
C          1.73790        6.14780       -5.44850
C          2.11580        7.35170       -4.89640
C          2.78460        7.41240       -3.67390
S          3.23730        9.00980       -3.07690
C          3.12310        8.83990       -1.25000
C          2.86670       10.20640       -0.64590
C          3.07400        6.20570       -3.04390
C          2.68310        4.99390       -3.57590
F          3.76490        6.17790       -1.88190
C          0.85630        2.74260       -4.59670
S          0.44780        2.91070       -2.90980
C          2.57350        4.04370       -7.64330
C          2.67210        3.41870       -8.85010
S          1.80040        1.89860       -8.88520
C          3.38310        3.86630      -10.00220
C          3.54310        3.22120      -11.19090
C          4.32790        3.94280      -12.12770
C          4.65680        3.57810      -13.44250
C          4.26860        2.27250      -13.98890
C          4.55830        1.09810      -13.29500
C          4.18740       -0.12740      -13.80420
C          3.51840       -0.23410      -15.02200
S          3.12180       -1.86100      -15.59180
C          1.43240       -1.68390      -16.27640
C          0.45560       -1.15430      -15.24610
C          3.26550        0.94370      -15.71860
F          2.65440        0.91740      -16.92290
C          3.62050        2.17910      -15.21550
C          5.38340        4.50170      -14.18110
C          5.80450        5.75050      -13.66300
C          5.47820        6.11400      -12.34840
C          5.85460        7.41490      -11.78170
C          5.56070        8.60170      -12.45210
C          5.86020        9.82100      -11.88440
C          6.47440        9.90870      -10.63560
S          6.81960       11.52090      -10.00620
C          6.59120       11.32840       -8.19170
C          6.20590       12.66950       -7.59980
C          6.79910        8.71540       -9.99700
C          6.48340        7.48840      -10.54360
F          7.45010        8.71890       -8.81250
C          4.75270        5.19070      -11.60990
S          4.19360        5.42160       -9.97330
C          6.59140        6.47260      -14.60910
C          6.74530        5.81330      -15.77510
S          5.95310        4.27590      -15.81490
H          1.32450       -5.31230       16.02150
H          0.80980       -6.38650       11.86130
H         -0.99060       -7.19170       13.43420
H         -0.50260       -6.75520       16.42280
H         -5.39050       -8.67870       14.90590
H         -2.82980       -6.06220       13.65130
H         -4.88360       -8.04360       12.54060
H         -5.49490       -7.36630       10.05010
H         -7.25480       -5.98330        8.96280
H         -9.05540       -7.41370        8.18680
H        -11.43130       -9.58880        6.39190
H        -10.56080       -8.85540        7.74490
H        -10.59870       -6.63860        6.49310
H        -11.49000       -7.42350        5.18970
H        -12.23420       -7.24480        6.78270
H         -4.82690       -7.22580        5.65810
H         -2.68370       -1.12460        8.48860
H         -0.92010        0.40330        9.25790
H          2.87940       -1.67260       10.08510
H          3.02960       -1.37870       11.83610
H          4.04840        0.47980        9.62630
H          4.18460        0.78540       11.36050
H          5.04980       -0.57570       10.63520
H         -0.64180       -4.37100       10.40120
H         -1.91720       -2.26960        6.57610
H         -2.14590       -0.71210        4.69920
H          0.14920       -0.18090        4.12210
H          1.09160        1.55860        5.58450
H          1.77610        6.43260        5.36750
H          0.34780        6.23770        4.33500
H          1.65310        4.70770        2.83190
H          2.47090        6.26370        2.97870
H          3.05870        4.86680        3.89020
H         -1.99210        2.84550        1.97510
H         -4.90070       -3.11850        0.12590
H         -5.55350       -4.94380       -1.38570
H         -3.24970       -8.31460       -4.08450
H         -2.01110       -7.06300       -3.87900
H         -3.54730       -8.43700       -1.60370
H         -1.87160       -8.78340       -2.05050
H         -2.30150       -7.20440       -1.38520
H         -1.02370       -3.05030       -1.69630
H         -1.90420       -0.95760       -2.42810
H         -0.87130       -0.13390       -4.37840
H          0.84870       -1.28530       -5.44650
H         -0.07380       -3.36790       -6.30450
H         -1.25580       -5.14340       -6.68130
H         -2.56270       -5.80780       -7.67420
H         -3.52440       -4.79010       -5.62080
H         -4.02760       -3.87610       -7.04430
H         -2.74890       -3.24670       -6.00020
H         -0.75840        0.81690       -8.81640
H          1.19670        6.13480       -6.38210
H          1.89190        8.27840       -5.40160
H          2.30060        8.15710       -1.04230
H          4.05720        8.41600       -0.88460
H          3.68030       10.88790       -0.88380
H          2.78880       10.12040        0.43580
H          1.94070       10.62720       -1.03140
H          2.94390        4.09170       -3.04530
H          3.06640        4.97580       -7.43200
H          3.09840        2.26370      -11.39620
H          5.09000        1.15010      -12.35710
H          4.40970       -1.03420      -13.26350
H          1.47340       -1.05510      -17.16310
H          1.17770       -2.70110      -16.57360
H          0.70950       -0.13600      -14.95710
H          0.46220       -1.77780      -14.35460
H         -0.54960       -1.15180      -15.66250
H          3.38000        3.06060      -15.78890
H          5.06030        8.56440      -13.40770
H          5.61410       10.73800      -12.39670
H          5.80230       10.59250       -8.04410
H          7.52310       10.96140       -7.76420
H          6.98470       13.40620       -7.78370
H          6.06680       12.56830       -6.52570
H          5.27920       13.03000       -8.04080
H          6.76150        6.59630      -10.00450
H          7.03060        7.43150      -14.40200
H          7.28680        6.13090      -16.64480
