
  xtb     03032217083D
 energy: -407.530547977288 gnorm: 0.000310639060 xtb: 6.4.1 (unknown)
228249  0     0  0            999 V2000
   -3.9523   -4.6560   13.8377 C   0  0  0  0  0  0  0  0  0  0  0  0
   -4.1081   -3.3243   13.6931 C   0  0  0  0  0  0  0  0  0  0  0  0
   -4.3979   -2.9400   12.3502 C   0  0  0  0  0  0  0  0  0  0  0  0
   -4.6444   -1.6501   11.8548 C   0  0  0  0  0  0  0  0  0  0  0  0
   -4.5289   -0.4581   12.7039 C   0  0  0  0  0  0  0  0  0  0  0  0
   -3.3790   -0.2272   13.4531 C   0  0  0  0  0  0  0  0  0  0  0  0
   -3.2469    0.9086   14.2283 C   0  0  0  0  0  0  0  0  0  0  0  0
   -4.2641    1.8552   14.2842 C   0  0  0  0  0  0  0  0  0  0  0  0
   -4.2407    3.3298   15.2442 S   0  0  0  0  0  0  0  0  0  0  0  0
   -2.4847    3.5413   15.6996 C   0  0  0  0  0  0  0  0  0  0  0  0
   -1.6211    3.9111   14.5087 C   0  0  0  0  0  0  0  0  0  0  0  0
   -5.4169    1.6031   13.5362 C   0  0  0  0  0  0  0  0  0  0  0  0
   -6.4298    2.4880   13.5817 F   0  0  0  0  0  0  0  0  0  0  0  0
   -5.5577    0.4803   12.7527 C   0  0  0  0  0  0  0  0  0  0  0  0
   -4.9740   -1.5528   10.5104 C   0  0  0  0  0  0  0  0  0  0  0  0
   -5.0339   -2.6797    9.6554 C   0  0  0  0  0  0  0  0  0  0  0  0
   -4.7831   -3.9722   10.1477 C   0  0  0  0  0  0  0  0  0  0  0  0
   -4.8349   -5.1141    9.2280 C   0  0  0  0  0  0  0  0  0  0  0  0
   -5.9227   -5.2851    8.3696 C   0  0  0  0  0  0  0  0  0  0  0  0
   -5.9023   -6.2568    7.3948 C   0  0  0  0  0  0  0  0  0  0  0  0
   -4.8115   -7.1129    7.2470 C   0  0  0  0  0  0  0  0  0  0  0  0
   -4.8828   -8.2727    5.9170 S   0  0  0  0  0  0  0  0  0  0  0  0
   -3.1483   -8.4331    5.3507 C   0  0  0  0  0  0  0  0  0  0  0  0
   -2.5238   -7.0961    5.0052 C   0  0  0  0  0  0  0  0  0  0  0  0
   -3.7802   -6.9965    8.1742 C   0  0  0  0  0  0  0  0  0  0  0  0
   -3.7735   -6.0068    9.1375 C   0  0  0  0  0  0  0  0  0  0  0  0
   -2.7251   -7.8391    8.1466 F   0  0  0  0  0  0  0  0  0  0  0  0
   -4.4632   -4.0675   11.4925 C   0  0  0  0  0  0  0  0  0  0  0  0
   -4.1437   -5.5431   12.3653 S   0  0  0  0  0  0  0  0  0  0  0  0
   -5.3026   -2.3137    8.3166 C   0  0  0  0  0  0  0  0  0  0  0  0
   -5.4659   -0.9703    8.1334 C   0  0  0  0  0  0  0  0  0  0  0  0
   -5.2932   -0.0773    9.6329 S   0  0  0  0  0  0  0  0  0  0  0  0
   -5.7764   -0.3224    6.9015 C   0  0  0  0  0  0  0  0  0  0  0  0
   -6.4099    1.2855    6.8665 S   0  0  0  0  0  0  0  0  0  0  0  0
   -6.5596    1.1873    5.1494 C   0  0  0  0  0  0  0  0  0  0  0  0
   -7.0521    2.3000    4.4493 N   0  0  0  0  0  4  0  0  0  0  0  0
   -7.1530    2.1978    3.2416 O   0  0  0  0  0  1  0  0  0  0  0  0
   -7.3333    3.2843    5.1039 O   0  0  0  0  0  0  0  0  0  0  0  0
   -6.1512   -0.0176    4.6340 C   0  0  0  0  0  0  0  0  0  0  0  0
   -5.6948   -0.8938    5.6292 C   0  0  0  0  0  0  0  0  0  0  0  0
   -5.0923   -2.1989    5.3638 C   0  0  0  0  0  0  0  0  0  0  0  0
   -5.6811   -3.2682    4.8064 C   0  0  0  0  0  0  0  0  0  0  0  0
   -7.0569   -3.4187    4.4414 C   0  0  0  0  0  0  0  0  0  0  0  0
   -8.2304   -2.1666    4.6830 S   0  0  0  0  0  0  0  0  0  0  0  0
   -9.4876   -3.2321    4.1688 C   0  0  0  0  0  0  0  0  0  0  0  0
  -10.8044   -2.7438    4.1483 N   0  0  0  0  0  4  0  0  0  0  0  0
  -11.6800   -3.4957    3.7672 O   0  0  0  0  0  1  0  0  0  0  0  0
  -10.9678   -1.5965    4.5211 O   0  0  0  0  0  0  0  0  0  0  0  0
   -9.0359   -4.4829    3.8401 C   0  0  0  0  0  0  0  0  0  0  0  0
   -7.6410   -4.5984    3.9749 C   0  0  0  0  0  0  0  0  0  0  0  0
   -6.9667   -5.8674    3.7495 C   0  0  0  0  0  0  0  0  0  0  0  0
   -5.8511   -6.1216    3.0511 C   0  0  0  0  0  0  0  0  0  0  0  0
   -5.0656   -5.2487    2.2264 C   0  0  0  0  0  0  0  0  0  0  0  0
   -3.8458   -5.5774    1.7095 C   0  0  0  0  0  0  0  0  0  0  0  0
   -3.2849   -4.5834    0.8717 C   0  0  0  0  0  0  0  0  0  0  0  0
   -2.0606   -4.6250    0.1900 C   0  0  0  0  0  0  0  0  0  0  0  0
   -1.0795   -5.7024    0.3621 C   0  0  0  0  0  0  0  0  0  0  0  0
   -0.6319   -6.0731    1.6290 C   0  0  0  0  0  0  0  0  0  0  0  0
    0.3948   -6.9821    1.7699 C   0  0  0  0  0  0  0  0  0  0  0  0
    1.0023   -7.5697    0.6616 C   0  0  0  0  0  0  0  0  0  0  0  0
    2.3389   -8.6879    0.9518 S   0  0  0  0  0  0  0  0  0  0  0  0
    3.5380   -8.2876   -0.3761 C   0  0  0  0  0  0  0  0  0  0  0  0
    3.9108   -6.8199   -0.3954 C   0  0  0  0  0  0  0  0  0  0  0  0
    0.4941   -7.2442   -0.5928 C   0  0  0  0  0  0  0  0  0  0  0  0
    0.9795   -7.8289   -1.7090 F   0  0  0  0  0  0  0  0  0  0  0  0
   -0.5125   -6.3147   -0.7507 C   0  0  0  0  0  0  0  0  0  0  0  0
   -1.7736   -3.5457   -0.6300 C   0  0  0  0  0  0  0  0  0  0  0  0
   -2.6388   -2.4377   -0.7992 C   0  0  0  0  0  0  0  0  0  0  0  0
   -3.8708   -2.4035   -0.1225 C   0  0  0  0  0  0  0  0  0  0  0  0
   -4.8110   -1.2944   -0.3191 C   0  0  0  0  0  0  0  0  0  0  0  0
   -5.3398   -0.5896    0.7602 C   0  0  0  0  0  0  0  0  0  0  0  0
   -6.2288    0.4449    0.5588 C   0  0  0  0  0  0  0  0  0  0  0  0
   -6.6302    0.8117   -0.7263 C   0  0  0  0  0  0  0  0  0  0  0  0
   -7.7380    2.1791   -0.8595 S   0  0  0  0  0  0  0  0  0  0  0  0
   -8.8812    1.6967   -2.2086 C   0  0  0  0  0  0  0  0  0  0  0  0
   -9.5989    0.3971   -1.9035 C   0  0  0  0  0  0  0  0  0  0  0  0
   -6.0780    0.1115   -1.7955 C   0  0  0  0  0  0  0  0  0  0  0  0
   -5.1903   -0.9276   -1.6060 C   0  0  0  0  0  0  0  0  0  0  0  0
   -6.3865    0.4302   -3.0731 F   0  0  0  0  0  0  0  0  0  0  0  0
   -4.1506   -3.4725    0.7163 C   0  0  0  0  0  0  0  0  0  0  0  0
   -5.6031   -3.6729    1.6664 S   0  0  0  0  0  0  0  0  0  0  0  0
   -2.0568   -1.4363   -1.6210 C   0  0  0  0  0  0  0  0  0  0  0  0
   -0.8079   -1.7555   -2.0629 C   0  0  0  0  0  0  0  0  0  0  0  0
   -0.2845   -3.3340   -1.5046 S   0  0  0  0  0  0  0  0  0  0  0  0
    0.1065   -0.9940   -2.8475 C   0  0  0  0  0  0  0  0  0  0  0  0
    1.3669   -1.3826   -3.1927 C   0  0  0  0  0  0  0  0  0  0  0  0
    2.0875   -0.4079   -3.9218 C   0  0  0  0  0  0  0  0  0  0  0  0
    3.3988   -0.5066   -4.4185 C   0  0  0  0  0  0  0  0  0  0  0  0
    4.2124   -1.6964   -4.1417 C   0  0  0  0  0  0  0  0  0  0  0  0
    4.8628   -2.3841   -5.1610 C   0  0  0  0  0  0  0  0  0  0  0  0
    5.5797   -3.5365   -4.9003 C   0  0  0  0  0  0  0  0  0  0  0  0
    5.6724   -4.0414   -3.6087 C   0  0  0  0  0  0  0  0  0  0  0  0
    6.5398   -5.5036   -3.1419 S   0  0  0  0  0  0  0  0  0  0  0  0
    6.7138   -6.4332   -4.7036 C   0  0  0  0  0  0  0  0  0  0  0  0
    5.3808   -6.9375   -5.2220 C   0  0  0  0  0  0  0  0  0  0  0  0
    5.0511   -3.3176   -2.5897 C   0  0  0  0  0  0  0  0  0  0  0  0
    5.1480   -3.7586   -1.3187 F   0  0  0  0  0  0  0  0  0  0  0  0
    4.3319   -2.1709   -2.8358 C   0  0  0  0  0  0  0  0  0  0  0  0
    3.8654    0.5727   -5.1513 C   0  0  0  0  0  0  0  0  0  0  0  0
    3.0850    1.7325   -5.3827 C   0  0  0  0  0  0  0  0  0  0  0  0
    1.7721    1.8278   -4.8914 C   0  0  0  0  0  0  0  0  0  0  0  0
    0.9664    3.0245   -5.1686 C   0  0  0  0  0  0  0  0  0  0  0  0
    0.7954    3.4633   -6.4796 C   0  0  0  0  0  0  0  0  0  0  0  0
    0.0839    4.6127   -6.7587 C   0  0  0  0  0  0  0  0  0  0  0  0
   -0.4830    5.3641   -5.7355 C   0  0  0  0  0  0  0  0  0  0  0  0
   -1.3488    6.8832   -5.9886 S   0  0  0  0  0  0  0  0  0  0  0  0
   -2.1366    6.6398   -7.6214 C   0  0  0  0  0  0  0  0  0  0  0  0
   -3.1221    5.4883   -7.6139 C   0  0  0  0  0  0  0  0  0  0  0  0
   -0.3121    4.9087   -4.4282 C   0  0  0  0  0  0  0  0  0  0  0  0
    0.3896    3.7580   -4.1365 C   0  0  0  0  0  0  0  0  0  0  0  0
   -0.8395    5.6143   -3.4122 F   0  0  0  0  0  0  0  0  0  0  0  0
    1.3071    0.7528   -4.1540 C   0  0  0  0  0  0  0  0  0  0  0  0
   -0.2788    0.6110   -3.4356 S   0  0  0  0  0  0  0  0  0  0  0  0
    3.8125    2.7275   -6.0769 C   0  0  0  0  0  0  0  0  0  0  0  0
    5.0904    2.3611   -6.3848 C   0  0  0  0  0  0  0  0  0  0  0  0
    5.4626    0.7411   -5.8352 S   0  0  0  0  0  0  0  0  0  0  0  0
    6.0445    3.1733   -7.0709 C   0  0  0  0  0  0  0  0  0  0  0  0
    5.8871    4.4931   -7.3758 C   0  0  0  0  0  0  0  0  0  0  0  0
    6.9728    5.0480   -8.0960 C   0  0  0  0  0  0  0  0  0  0  0  0
    7.1181    6.3737   -8.5377 C   0  0  0  0  0  0  0  0  0  0  0  0
    6.0365    7.3417   -8.3252 C   0  0  0  0  0  0  0  0  0  0  0  0
    4.7229    7.0172   -8.6568 C   0  0  0  0  0  0  0  0  0  0  0  0
    3.6776    7.8753   -8.3774 C   0  0  0  0  0  0  0  0  0  0  0  0
    3.9069    9.0973   -7.7548 C   0  0  0  0  0  0  0  0  0  0  0  0
    2.6710   10.2523   -7.2713 S   0  0  0  0  0  0  0  0  0  0  0  0
    1.0939    9.3588   -7.5023 C   0  0  0  0  0  0  0  0  0  0  0  0
    0.5565    9.4807   -8.9164 C   0  0  0  0  0  0  0  0  0  0  0  0
    5.2350    9.4326   -7.4779 C   0  0  0  0  0  0  0  0  0  0  0  0
    5.4987   10.6201   -6.8987 F   0  0  0  0  0  0  0  0  0  0  0  0
    6.2855    8.5855   -7.7485 C   0  0  0  0  0  0  0  0  0  0  0  0
    8.3170    6.6882   -9.1606 C   0  0  0  0  0  0  0  0  0  0  0  0
    9.3509    5.7420   -9.3694 C   0  0  0  0  0  0  0  0  0  0  0  0
    9.2006    4.4177   -8.9309 C   0  0  0  0  0  0  0  0  0  0  0  0
   10.2645    3.4190   -9.0919 C   0  0  0  0  0  0  0  0  0  0  0  0
   11.5647    3.6797   -8.6620 C   0  0  0  0  0  0  0  0  0  0  0  0
   12.5441    2.7157   -8.7667 C   0  0  0  0  0  0  0  0  0  0  0  0
   12.2744    1.4638   -9.3167 C   0  0  0  0  0  0  0  0  0  0  0  0
   13.6172    0.3178   -9.4278 S   0  0  0  0  0  0  0  0  0  0  0  0
   12.8593   -1.2916   -8.9933 C   0  0  0  0  0  0  0  0  0  0  0  0
   12.1947   -1.2589   -7.6318 C   0  0  0  0  0  0  0  0  0  0  0  0
   10.9814    1.2315   -9.7750 C   0  0  0  0  0  0  0  0  0  0  0  0
    9.9841    2.1771   -9.6510 C   0  0  0  0  0  0  0  0  0  0  0  0
   10.6554    0.0611  -10.3666 F   0  0  0  0  0  0  0  0  0  0  0  0
    8.0009    4.0993   -8.3115 C   0  0  0  0  0  0  0  0  0  0  0  0
    7.5736    2.5424   -7.6444 S   0  0  0  0  0  0  0  0  0  0  0  0
   10.4441    6.3122  -10.0875 C   0  0  0  0  0  0  0  0  0  0  0  0
   10.2519    7.6115  -10.3921 C   0  0  0  0  0  0  0  0  0  0  0  0
    8.7392    8.2402   -9.8358 S   0  0  0  0  0  0  0  0  0  0  0  0
   -3.7329   -5.1993   14.7360 H   0  0  0  0  0  0  0  0  0  0  0  0
   -4.0434   -2.6237   14.5054 H   0  0  0  0  0  0  0  0  0  0  0  0
   -2.5649   -0.9353   13.4108 H   0  0  0  0  0  0  0  0  0  0  0  0
   -2.3407    1.0473   14.7951 H   0  0  0  0  0  0  0  0  0  0  0  0
   -2.1404    2.6386   16.2027 H   0  0  0  0  0  0  0  0  0  0  0  0
   -2.5094    4.3532   16.4263 H   0  0  0  0  0  0  0  0  0  0  0  0
   -1.9861    4.8279   14.0521 H   0  0  0  0  0  0  0  0  0  0  0  0
   -1.6332    3.1259   13.7556 H   0  0  0  0  0  0  0  0  0  0  0  0
   -0.5937    4.0681   14.8315 H   0  0  0  0  0  0  0  0  0  0  0  0
   -6.4741    0.3366   12.2026 H   0  0  0  0  0  0  0  0  0  0  0  0
   -6.7878   -4.6480    8.4708 H   0  0  0  0  0  0  0  0  0  0  0  0
   -6.7319   -6.3644    6.7138 H   0  0  0  0  0  0  0  0  0  0  0  0
   -3.2378   -9.0641    4.4661 H   0  0  0  0  0  0  0  0  0  0  0  0
   -2.5755   -8.9658    6.1066 H   0  0  0  0  0  0  0  0  0  0  0  0
   -1.5575   -7.2617    4.5332 H   0  0  0  0  0  0  0  0  0  0  0  0
   -2.3692   -6.4937    5.8978 H   0  0  0  0  0  0  0  0  0  0  0  0
   -3.1609   -6.5394    4.3207 H   0  0  0  0  0  0  0  0  0  0  0  0
   -2.9242   -5.9343    9.7987 H   0  0  0  0  0  0  0  0  0  0  0  0
   -5.3848   -3.0249    7.5180 H   0  0  0  0  0  0  0  0  0  0  0  0
   -6.1719   -0.2414    3.5833 H   0  0  0  0  0  0  0  0  0  0  0  0
   -4.0565   -2.2852    5.6698 H   0  0  0  0  0  0  0  0  0  0  0  0
   -5.0868   -4.1617    4.6680 H   0  0  0  0  0  0  0  0  0  0  0  0
   -9.6844   -5.2716    3.5034 H   0  0  0  0  0  0  0  0  0  0  0  0
   -7.4693   -6.7139    4.2007 H   0  0  0  0  0  0  0  0  0  0  0  0
   -5.4894   -7.1429    3.0560 H   0  0  0  0  0  0  0  0  0  0  0  0
   -3.3589   -6.5174    1.9010 H   0  0  0  0  0  0  0  0  0  0  0  0
   -1.0581   -5.6029    2.5024 H   0  0  0  0  0  0  0  0  0  0  0  0
    0.7676   -7.2405    2.7492 H   0  0  0  0  0  0  0  0  0  0  0  0
    4.3975   -8.9078   -0.1215 H   0  0  0  0  0  0  0  0  0  0  0  0
    3.1300   -8.6205   -1.3283 H   0  0  0  0  0  0  0  0  0  0  0  0
    3.0596   -6.2004   -0.6715 H   0  0  0  0  0  0  0  0  0  0  0  0
    4.2660   -6.4988    0.5810 H   0  0  0  0  0  0  0  0  0  0  0  0
    4.7046   -6.6514   -1.1197 H   0  0  0  0  0  0  0  0  0  0  0  0
   -0.8593   -6.0909   -1.7475 H   0  0  0  0  0  0  0  0  0  0  0  0
   -5.0253   -0.8529    1.7594 H   0  0  0  0  0  0  0  0  0  0  0  0
   -6.6320    1.0060    1.3878 H   0  0  0  0  0  0  0  0  0  0  0  0
   -9.5818    2.5306   -2.2477 H   0  0  0  0  0  0  0  0  0  0  0  0
   -8.3329    1.6510   -3.1467 H   0  0  0  0  0  0  0  0  0  0  0  0
  -10.3290    0.1887   -2.6830 H   0  0  0  0  0  0  0  0  0  0  0  0
   -8.8968   -0.4337   -1.8597 H   0  0  0  0  0  0  0  0  0  0  0  0
  -10.1155    0.4631   -0.9485 H   0  0  0  0  0  0  0  0  0  0  0  0
   -4.8070   -1.4496   -2.4695 H   0  0  0  0  0  0  0  0  0  0  0  0
   -2.5321   -0.4988   -1.8489 H   0  0  0  0  0  0  0  0  0  0  0  0
    1.7614   -2.3500   -2.9384 H   0  0  0  0  0  0  0  0  0  0  0  0
    4.7907   -2.0271   -6.1770 H   0  0  0  0  0  0  0  0  0  0  0  0
    6.0679   -4.0406   -5.7186 H   0  0  0  0  0  0  0  0  0  0  0  0
    7.3654   -7.2638   -4.4323 H   0  0  0  0  0  0  0  0  0  0  0  0
    7.2342   -5.8078   -5.4278 H   0  0  0  0  0  0  0  0  0  0  0  0
    5.5333   -7.5194   -6.1288 H   0  0  0  0  0  0  0  0  0  0  0  0
    4.9030   -7.5710   -4.4783 H   0  0  0  0  0  0  0  0  0  0  0  0
    4.7112   -6.1102   -5.4484 H   0  0  0  0  0  0  0  0  0  0  0  0
    3.8820   -1.6454   -2.0082 H   0  0  0  0  0  0  0  0  0  0  0  0
    1.2191    2.8903   -7.2908 H   0  0  0  0  0  0  0  0  0  0  0  0
   -0.0208    4.9297   -7.7845 H   0  0  0  0  0  0  0  0  0  0  0  0
   -1.3618    6.5131   -8.3771 H   0  0  0  0  0  0  0  0  0  0  0  0
   -2.6452    7.5875   -7.7980 H   0  0  0  0  0  0  0  0  0  0  0  0
   -3.8759    5.6437   -6.8457 H   0  0  0  0  0  0  0  0  0  0  0  0
   -3.6180    5.4191   -8.5802 H   0  0  0  0  0  0  0  0  0  0  0  0
   -2.6166    4.5453   -7.4143 H   0  0  0  0  0  0  0  0  0  0  0  0
    0.4978    3.4548   -3.1071 H   0  0  0  0  0  0  0  0  0  0  0  0
    3.3993    3.6882   -6.3208 H   0  0  0  0  0  0  0  0  0  0  0  0
    5.0353    5.0687   -7.0662 H   0  0  0  0  0  0  0  0  0  0  0  0
    4.5175    6.0825   -9.1571 H   0  0  0  0  0  0  0  0  0  0  0  0
    2.6769    7.5777   -8.6443 H   0  0  0  0  0  0  0  0  0  0  0  0
    1.2390    8.3252   -7.1920 H   0  0  0  0  0  0  0  0  0  0  0  0
    0.4162    9.8359   -6.7946 H   0  0  0  0  0  0  0  0  0  0  0  0
    0.4140   10.5279   -9.1718 H   0  0  0  0  0  0  0  0  0  0  0  0
   -0.4036    8.9736   -8.9919 H   0  0  0  0  0  0  0  0  0  0  0  0
    1.2408    9.0463   -9.6421 H   0  0  0  0  0  0  0  0  0  0  0  0
    7.2848    8.8869   -7.4777 H   0  0  0  0  0  0  0  0  0  0  0  0
   11.7961    4.6321   -8.2100 H   0  0  0  0  0  0  0  0  0  0  0  0
   13.5450    2.9132   -8.4158 H   0  0  0  0  0  0  0  0  0  0  0  0
   13.7088   -1.9747   -9.0002 H   0  0  0  0  0  0  0  0  0  0  0  0
   12.1656   -1.5808   -9.7796 H   0  0  0  0  0  0  0  0  0  0  0  0
   11.3448   -0.5787   -7.6287 H   0  0  0  0  0  0  0  0  0  0  0  0
   11.8374   -2.2543   -7.3755 H   0  0  0  0  0  0  0  0  0  0  0  0
   12.9000   -0.9337   -6.8699 H   0  0  0  0  0  0  0  0  0  0  0  0
    8.9992    1.9421  -10.0233 H   0  0  0  0  0  0  0  0  0  0  0  0
   11.3185    5.7553  -10.3715 H   0  0  0  0  0  0  0  0  0  0  0  0
   10.9135    8.2681  -10.9227 H   0  0  0  0  0  0  0  0  0  0  0  0
  1  2  2  0  0  0  0
  2  3  1  0  0  0  0
  3  4  2  0  0  0  0
  4  5  1  0  0  0  0
  5  6  2  0  0  0  0
  6  7  1  0  0  0  0
  7  8  2  0  0  0  0
  8  9  1  0  0  0  0
  9 10  1  0  0  0  0
 10 11  1  0  0  0  0
  8 12  1  0  0  0  0
 12 13  1  0  0  0  0
 12 14  2  0  0  0  0
  4 15  1  0  0  0  0
 15 16  2  0  0  0  0
 16 17  1  0  0  0  0
 17 18  1  0  0  0  0
 18 19  2  0  0  0  0
 19 20  1  0  0  0  0
 20 21  2  0  0  0  0
 21 22  1  0  0  0  0
 22 23  1  0  0  0  0
 23 24  1  0  0  0  0
 21 25  1  0  0  0  0
 25 26  2  0  0  0  0
 25 27  1  0  0  0  0
 17 28  2  0  0  0  0
 28 29  1  0  0  0  0
 16 30  1  0  0  0  0
 30 31  2  0  0  0  0
 31 32  1  0  0  0  0
 31 33  1  0  0  0  0
 33 34  1  0  0  0  0
 34 35  1  0  0  0  0
 35 36  1  0  0  0  0
 36 37  1  0  0  0  0
 36 38  2  0  0  0  0
 35 39  2  0  0  0  0
 39 40  1  0  0  0  0
 40 41  1  0  0  0  0
 41 42  2  0  0  0  0
 42 43  1  0  0  0  0
 43 44  1  0  0  0  0
 44 45  1  0  0  0  0
 45 46  1  0  0  0  0
 46 47  1  0  0  0  0
 46 48  2  0  0  0  0
 45 49  2  0  0  0  0
 49 50  1  0  0  0  0
 50 51  1  0  0  0  0
 51 52  2  0  0  0  0
 52 53  1  0  0  0  0
 53 54  2  0  0  0  0
 54 55  1  0  0  0  0
 55 56  2  0  0  0  0
 56 57  1  0  0  0  0
 57 58  2  0  0  0  0
 58 59  1  0  0  0  0
 59 60  2  0  0  0  0
 60 61  1  0  0  0  0
 61 62  1  0  0  0  0
 62 63  1  0  0  0  0
 60 64  1  0  0  0  0
 64 65  1  0  0  0  0
 64 66  2  0  0  0  0
 56 67  1  0  0  0  0
 67 68  2  0  0  0  0
 68 69  1  0  0  0  0
 69 70  1  0  0  0  0
 70 71  2  0  0  0  0
 71 72  1  0  0  0  0
 72 73  2  0  0  0  0
 73 74  1  0  0  0  0
 74 75  1  0  0  0  0
 75 76  1  0  0  0  0
 73 77  1  0  0  0  0
 77 78  2  0  0  0  0
 77 79  1  0  0  0  0
 69 80  2  0  0  0  0
 80 81  1  0  0  0  0
 68 82  1  0  0  0  0
 82 83  2  0  0  0  0
 83 84  1  0  0  0  0
 83 85  1  0  0  0  0
 85 86  2  0  0  0  0
 86 87  1  0  0  0  0
 87 88  2  0  0  0  0
 88 89  1  0  0  0  0
 89 90  2  0  0  0  0
 90 91  1  0  0  0  0
 91 92  2  0  0  0  0
 92 93  1  0  0  0  0
 93 94  1  0  0  0  0
 94 95  1  0  0  0  0
 92 96  1  0  0  0  0
 96 97  1  0  0  0  0
 96 98  2  0  0  0  0
 88 99  1  0  0  0  0
 99100  2  0  0  0  0
100101  1  0  0  0  0
101102  1  0  0  0  0
102103  2  0  0  0  0
103104  1  0  0  0  0
104105  2  0  0  0  0
105106  1  0  0  0  0
106107  1  0  0  0  0
107108  1  0  0  0  0
105109  1  0  0  0  0
109110  2  0  0  0  0
109111  1  0  0  0  0
101112  2  0  0  0  0
112113  1  0  0  0  0
100114  1  0  0  0  0
114115  2  0  0  0  0
115116  1  0  0  0  0
115117  1  0  0  0  0
117118  2  0  0  0  0
118119  1  0  0  0  0
119120  2  0  0  0  0
120121  1  0  0  0  0
121122  2  0  0  0  0
122123  1  0  0  0  0
123124  2  0  0  0  0
124125  1  0  0  0  0
125126  1  0  0  0  0
126127  1  0  0  0  0
124128  1  0  0  0  0
128129  1  0  0  0  0
128130  2  0  0  0  0
120131  1  0  0  0  0
131132  2  0  0  0  0
132133  1  0  0  0  0
133134  1  0  0  0  0
134135  2  0  0  0  0
135136  1  0  0  0  0
136137  2  0  0  0  0
137138  1  0  0  0  0
138139  1  0  0  0  0
139140  1  0  0  0  0
137141  1  0  0  0  0
141142  2  0  0  0  0
141143  1  0  0  0  0
133144  2  0  0  0  0
144145  1  0  0  0  0
132146  1  0  0  0  0
146147  2  0  0  0  0
147148  1  0  0  0  0
 29  1  1  0  0  0  0
 40 33  2  0  0  0  0
 50 43  2  0  0  0  0
 81 53  1  0  0  0  0
113 85  1  0  0  0  0
145117  1  0  0  0  0
 28  3  1  0  0  0  0
 80 55  1  0  0  0  0
112 87  1  0  0  0  0
144119  1  0  0  0  0
 14  5  1  0  0  0  0
 32 15  1  0  0  0  0
 66 57  1  0  0  0  0
 84 67  1  0  0  0  0
 98 89  1  0  0  0  0
116 99  1  0  0  0  0
130121  1  0  0  0  0
148131  1  0  0  0  0
 26 18  1  0  0  0  0
 78 70  1  0  0  0  0
110102  1  0  0  0  0
142134  1  0  0  0  0
  1149  1  0  0  0  0
  2150  1  0  0  0  0
  6151  1  0  0  0  0
  7152  1  0  0  0  0
 10153  1  0  0  0  0
 10154  1  0  0  0  0
 11155  1  0  0  0  0
 11156  1  0  0  0  0
 11157  1  0  0  0  0
 14158  1  0  0  0  0
 19159  1  0  0  0  0
 20160  1  0  0  0  0
 23161  1  0  0  0  0
 23162  1  0  0  0  0
 24163  1  0  0  0  0
 24164  1  0  0  0  0
 24165  1  0  0  0  0
 26166  1  0  0  0  0
 30167  1  0  0  0  0
 39168  1  0  0  0  0
 41169  1  0  0  0  0
 42170  1  0  0  0  0
 49171  1  0  0  0  0
 51172  1  0  0  0  0
 52173  1  0  0  0  0
 54174  1  0  0  0  0
 58175  1  0  0  0  0
 59176  1  0  0  0  0
 62177  1  0  0  0  0
 62178  1  0  0  0  0
 63179  1  0  0  0  0
 63180  1  0  0  0  0
 63181  1  0  0  0  0
 66182  1  0  0  0  0
 71183  1  0  0  0  0
 72184  1  0  0  0  0
 75185  1  0  0  0  0
 75186  1  0  0  0  0
 76187  1  0  0  0  0
 76188  1  0  0  0  0
 76189  1  0  0  0  0
 78190  1  0  0  0  0
 82191  1  0  0  0  0
 86192  1  0  0  0  0
 90193  1  0  0  0  0
 91194  1  0  0  0  0
 94195  1  0  0  0  0
 94196  1  0  0  0  0
 95197  1  0  0  0  0
 95198  1  0  0  0  0
 95199  1  0  0  0  0
 98200  1  0  0  0  0
103201  1  0  0  0  0
104202  1  0  0  0  0
107203  1  0  0  0  0
107204  1  0  0  0  0
108205  1  0  0  0  0
108206  1  0  0  0  0
108207  1  0  0  0  0
110208  1  0  0  0  0
114209  1  0  0  0  0
118210  1  0  0  0  0
122211  1  0  0  0  0
123212  1  0  0  0  0
126213  1  0  0  0  0
126214  1  0  0  0  0
127215  1  0  0  0  0
127216  1  0  0  0  0
127217  1  0  0  0  0
130218  1  0  0  0  0
135219  1  0  0  0  0
136220  1  0  0  0  0
139221  1  0  0  0  0
139222  1  0  0  0  0
140223  1  0  0  0  0
140224  1  0  0  0  0
140225  1  0  0  0  0
142226  1  0  0  0  0
146227  1  0  0  0  0
147228  1  0  0  0  0
M  CHG  1  36   1
M  CHG  1  37  -1
M  CHG  1  46   1
M  CHG  1  47  -1
M  END
