238

C         13.85360        0.11230       -1.84130
C         14.07050        0.64090       -0.62110
C         12.86270        0.94250        0.07850
C         12.71890        1.48220        1.36440
C         13.88040        1.75930        2.21910
C         14.84390        0.78050        2.45780
C         15.91390        1.03720        3.28760
C         16.07750        2.27980        3.89720
S         17.51480        2.50470        4.90330
C         16.91770        3.50180        6.31820
C         15.76990        2.82950        7.04380
C         15.12380        3.25610        3.62550
F         15.24020        4.49930        4.14100
C         14.03180        3.00400        2.82010
C         11.42240        1.72200        1.79940
C         10.28210        1.41340        1.02010
C         10.42220        0.84130       -0.25370
C          9.24660        0.45180       -1.04300
C          8.22900       -0.31260       -0.47130
C          7.12900       -0.68800       -1.21330
C          6.99570       -0.30970       -2.54640
S          5.52560       -0.79400       -3.41020
C          6.18260       -1.45790       -4.98590
C          7.12100       -2.62500       -4.75440
C          8.00710        0.46870       -3.09910
C          9.12400        0.83370       -2.37490
F          7.91920        0.90310       -4.37510
C         11.72020        0.63910       -0.70140
S         12.17670       -0.05220       -2.23810
C          9.07990        1.75130        1.69380
C          9.27160        2.25200        2.94170
S         10.96800        2.37290        3.35130
C          8.21620        2.62660        3.87170
C          7.06250        1.81810        3.93940
O          7.06360        0.68820        3.18900
C          6.10290       -0.32350        3.42350
C          6.03160        2.26190        4.75710
F          4.85230        1.59270        4.78490
C          6.11210        3.42230        5.52030
C          7.28010        4.19550        5.51120
O          7.27070        5.26840        6.33010
C          8.36170        6.16560        6.35530
C          8.30620        3.76860        4.66630
F          9.44370        4.49650        4.55540
C          4.87710        3.83320        6.21610
C          4.26780        2.95040        7.12490
O          5.06020        1.94740        7.56440
C          4.51290        0.83300        8.24230
C          2.93220        3.17560        7.43640
F          2.29880        2.31890        8.27210
C          2.17830        4.20780        6.85580
C          2.87660        5.21830        6.15420
O          2.13780        6.30000        5.81530
C          2.56570        7.19980        4.81450
C          4.20920        4.98650        5.82910
F          4.86940        5.83810        5.00930
C          0.74100        4.10770        6.71080
C         -0.05640        3.05250        7.05370
C         -1.24550        2.95610        6.28810
C         -2.12070        1.86010        6.22130
C         -1.96850        0.67210        7.07180
C         -3.04930        0.17890        7.79920
C         -2.91470       -0.95340        8.57420
C         -1.70350       -1.63680        8.65490
S         -1.63410       -3.05250        9.71510
C         -0.66530       -4.27060        8.74930
C         -1.29770       -4.55820        7.40260
C         -0.63010       -1.12600        7.93200
F          0.58440       -1.71970        7.97700
C         -0.75450       -0.00330        7.13950
C         -3.06040        1.88670        5.20330
C         -3.20970        2.97690        4.31540
C         -2.40960        4.12160        4.45590
C         -2.61020        5.28310        3.58210
C         -1.56100        5.89890        2.90810
C         -1.77440        7.00260        2.10410
C         -3.04910        7.53240        1.94260
S         -3.46660        8.94990        0.98360
C         -1.95010        9.32520        0.03880
C         -1.71050        8.33640       -1.08670
C         -4.09420        6.90200        2.62160
C         -3.89580        5.80070        3.42160
F         -5.34530        7.38910        2.49160
C         -1.39970        4.05430        5.40740
S         -0.07870        5.17660        5.57880
C         -4.01680        2.63240        3.19300
C         -4.45050        1.34920        3.20880
S         -3.99700        0.50710        4.68330
C         -4.89480        0.57780        2.06280
C         -6.10480        0.22900        1.57190
C         -6.02960       -0.55540        0.37970
C         -7.08020       -1.04530       -0.41330
C         -8.48810       -0.87340       -0.03560
C         -8.94200       -1.22850        1.23380
C        -10.27840       -1.12460        1.55400
C        -11.21200       -0.64760        0.63480
S        -12.89260       -0.54140        1.17230
C        -13.87120       -1.00610       -0.30420
C        -13.49580       -2.37640       -0.83090
C        -10.73620       -0.25530       -0.61270
F        -11.56670        0.27010       -1.53980
C         -9.40600       -0.38160       -0.95700
C         -6.72500       -1.72550       -1.57150
C         -5.37960       -1.94770       -1.95070
C         -4.32750       -1.46430       -1.16210
C         -2.92700       -1.67600       -1.55120
C         -2.47830       -1.32320       -2.82150
C         -1.16930       -1.54210       -3.20420
C         -0.25820       -2.12280       -2.32870
S          1.41800       -2.50710       -2.72400
C          1.82750       -1.35000       -4.07630
C          1.82680        0.09330       -3.61520
C         -0.72070       -2.46650       -1.05750
C         -2.02180       -2.24830       -0.66090
F          0.12980       -3.03940       -0.18280
C         -4.68750       -0.78310       -0.01090
S         -3.56620       -0.04910        1.09320
C         -5.27940       -2.71830       -3.13220
C         -6.48250       -3.07150       -3.66320
S         -7.82560       -2.46870       -2.71220
C         -6.65330       -3.82470       -4.86270
C         -7.78240       -4.27460       -5.47540
C         -7.52690       -4.98660       -6.68060
C         -8.44330       -5.57120       -7.56980
C         -9.89040       -5.46850       -7.34680
C        -10.49090       -4.23420       -7.09840
C        -11.84630       -4.14580       -6.87150
C        -12.66300       -5.27740       -6.88630
S        -14.38410       -5.01590       -6.60210
C        -14.97340       -6.58930       -5.85720
C        -16.25840       -6.31600       -5.10040
C        -12.05520       -6.49690       -7.16940
F        -12.77950       -7.63680       -7.24320
C        -10.69590       -6.60080       -7.38610
C         -7.91060       -6.23100       -8.67080
C         -6.52130       -6.31120       -8.93840
C         -5.60700       -5.72900       -8.05340
C         -4.15020       -5.72190       -8.24720
C         -3.31240       -6.13640       -7.21480
C         -1.94310       -5.98790       -7.30070
C         -1.36210       -5.40650       -8.42240
S          0.36040       -5.07250       -8.57700
C          0.90260       -5.01460       -6.82330
C          2.22320       -4.27390       -6.73180
C         -2.20630       -5.06330       -9.47970
C         -3.57490       -5.21020       -9.40750
F         -1.67450       -4.53720      -10.60120
C         -6.14060       -5.09090       -6.94390
S         -5.19660       -4.26870       -5.73580
C         -6.25350       -7.03010      -10.14060
C         -7.37510       -7.45040      -10.75900
S         -8.83050       -7.01680       -9.92920
H         14.58150       -0.19760       -2.56540
H         15.04860        0.83200       -0.21860
H         14.73160       -0.19770        2.01540
H         16.64950        0.27270        3.48380
H         16.65160        4.49560        5.96520
H         17.79800        3.57560        6.95710
H         15.50570        3.40940        7.92580
H         14.89210        2.76010        6.40390
H         16.05070        1.82560        7.35580
H         13.32350        3.79860        2.64550
H          8.31750       -0.63300        0.55520
H          6.34770       -1.28670       -0.77110
H          6.66260       -0.65080       -5.53470
H          5.29000       -1.77190       -5.52760
H          8.00870       -2.30590       -4.21090
H          6.62530       -3.40480       -4.17960
H          7.43340       -3.03970       -5.71070
H          9.87360        1.44490       -2.85250
H          8.10840        1.65020        1.24930
H          6.03410       -0.57790        4.48340
H          5.11580       -0.04040        3.05120
H          6.46120       -1.18840        2.86670
H          9.28120        5.67610        6.68460
H          8.08070        6.93050        7.07740
H          8.52390        6.63030        5.38020
H          4.13390        1.10300        9.23020
H          3.71810        0.35980        7.66160
H          5.34260        0.13650        8.35400
H          1.71920        7.86660        4.65700
H          3.43180        7.77920        5.14130
H          2.80240        6.68380        3.88130
H          0.20080        2.31370        7.78630
H         -3.99810        0.69160        7.75780
H         -3.75310       -1.33350        9.13670
H         -0.67340       -5.15570        9.38530
H          0.35750       -3.91350        8.65220
H         -0.73670       -5.33970        6.89380
H         -1.29530       -3.66940        6.77410
H         -2.32650       -4.88980        7.52680
H          0.10000        0.32640        6.56920
H         -0.56280        5.50040        2.99460
H         -0.92970        7.44940        1.60560
H         -2.13850       10.32280       -0.35770
H         -1.11220        9.38160        0.73250
H         -2.55640        8.33600       -1.76990
H         -1.58160        7.32710       -0.70180
H         -0.81590        8.61500       -1.64060
H         -4.73880        5.36200        3.93240
H         -4.18210        3.29430        2.36140
H         -7.03250        0.53470        2.02100
H         -8.24660       -1.62450        1.95820
H        -10.63060       -1.42060        2.53000
H        -13.76070       -0.23330       -1.06150
H        -14.89620       -0.99500        0.06690
H        -12.47060       -2.38660       -1.19630
H        -13.59130       -3.12630       -0.04820
H        -14.15490       -2.64310       -1.65470
H         -9.09470       -0.06290       -1.93950
H         -3.16090       -0.85790       -3.51670
H         -0.86330       -1.26310       -4.19970
H          1.14830       -1.52470       -4.90980
H          2.83170       -1.65480       -4.36930
H          2.09900        0.74360       -4.44390
H          0.84580        0.38770       -3.24730
H          2.55460        0.22700       -2.81890
H         -2.32460       -2.54360        0.33120
H         -4.34240       -3.01830       -3.56590
H         -8.76620       -4.11350       -5.07200
H         -9.88960       -3.33800       -7.09930
H        -12.30610       -3.18950       -6.67600
H        -14.19040       -6.94400       -5.18860
H        -15.13360       -7.31140       -6.65610
H        -17.02260       -5.93270       -5.77260
H        -16.62090       -7.23710       -4.64920
H        -16.09130       -5.58260       -4.31470
H        -10.27890       -7.57710       -7.57760
H         -3.73760       -6.58700       -6.33120
H         -1.32710       -6.32130       -6.48170
H          1.00880       -6.03710       -6.46100
H          0.12570       -4.49790       -6.26010
H          2.54010       -4.22070       -5.69200
H          2.99010       -4.78790       -7.30640
H          2.12130       -3.26380       -7.12240
H         -4.18460       -4.88290      -10.23530
H         -5.25970       -7.21950      -10.50380
H         -7.45570       -8.00810      -11.67160
