
  xtb     03042223553D
 energy: -425.941990288988 gnorm: 0.000205496939 xtb: 6.4.1 (unknown)
238259  0     0  0            999 V2000
   13.8536    0.1123   -1.8413 C   0  0  0  0  0  0  0  0  0  0  0  0
   14.0705    0.6409   -0.6211 C   0  0  0  0  0  0  0  0  0  0  0  0
   12.8627    0.9425    0.0785 C   0  0  0  0  0  0  0  0  0  0  0  0
   12.7189    1.4822    1.3644 C   0  0  0  0  0  0  0  0  0  0  0  0
   13.8804    1.7593    2.2191 C   0  0  0  0  0  0  0  0  0  0  0  0
   14.8439    0.7805    2.4578 C   0  0  0  0  0  0  0  0  0  0  0  0
   15.9139    1.0372    3.2876 C   0  0  0  0  0  0  0  0  0  0  0  0
   16.0775    2.2798    3.8972 C   0  0  0  0  0  0  0  0  0  0  0  0
   17.5148    2.5047    4.9033 S   0  0  0  0  0  0  0  0  0  0  0  0
   16.9177    3.5018    6.3182 C   0  0  0  0  0  0  0  0  0  0  0  0
   15.7699    2.8295    7.0438 C   0  0  0  0  0  0  0  0  0  0  0  0
   15.1238    3.2561    3.6255 C   0  0  0  0  0  0  0  0  0  0  0  0
   15.2402    4.4993    4.1410 F   0  0  0  0  0  0  0  0  0  0  0  0
   14.0318    3.0040    2.8201 C   0  0  0  0  0  0  0  0  0  0  0  0
   11.4224    1.7220    1.7994 C   0  0  0  0  0  0  0  0  0  0  0  0
   10.2821    1.4134    1.0201 C   0  0  0  0  0  0  0  0  0  0  0  0
   10.4222    0.8413   -0.2537 C   0  0  0  0  0  0  0  0  0  0  0  0
    9.2466    0.4518   -1.0430 C   0  0  0  0  0  0  0  0  0  0  0  0
    8.2290   -0.3126   -0.4713 C   0  0  0  0  0  0  0  0  0  0  0  0
    7.1290   -0.6880   -1.2133 C   0  0  0  0  0  0  0  0  0  0  0  0
    6.9957   -0.3097   -2.5464 C   0  0  0  0  0  0  0  0  0  0  0  0
    5.5256   -0.7940   -3.4102 S   0  0  0  0  0  0  0  0  0  0  0  0
    6.1826   -1.4579   -4.9859 C   0  0  0  0  0  0  0  0  0  0  0  0
    7.1210   -2.6250   -4.7544 C   0  0  0  0  0  0  0  0  0  0  0  0
    8.0071    0.4687   -3.0991 C   0  0  0  0  0  0  0  0  0  0  0  0
    9.1240    0.8337   -2.3749 C   0  0  0  0  0  0  0  0  0  0  0  0
    7.9192    0.9031   -4.3751 F   0  0  0  0  0  0  0  0  0  0  0  0
   11.7202    0.6391   -0.7014 C   0  0  0  0  0  0  0  0  0  0  0  0
   12.1767   -0.0522   -2.2381 S   0  0  0  0  0  0  0  0  0  0  0  0
    9.0799    1.7513    1.6938 C   0  0  0  0  0  0  0  0  0  0  0  0
    9.2716    2.2520    2.9417 C   0  0  0  0  0  0  0  0  0  0  0  0
   10.9680    2.3729    3.3513 S   0  0  0  0  0  0  0  0  0  0  0  0
    8.2162    2.6266    3.8717 C   0  0  0  0  0  0  0  0  0  0  0  0
    7.0625    1.8181    3.9394 C   0  0  0  0  0  0  0  0  0  0  0  0
    7.0636    0.6882    3.1890 O   0  0  0  0  0  0  0  0  0  0  0  0
    6.1029   -0.3235    3.4235 C   0  0  0  0  0  0  0  0  0  0  0  0
    6.0316    2.2619    4.7571 C   0  0  0  0  0  0  0  0  0  0  0  0
    4.8523    1.5927    4.7849 F   0  0  0  0  0  0  0  0  0  0  0  0
    6.1121    3.4223    5.5203 C   0  0  0  0  0  0  0  0  0  0  0  0
    7.2801    4.1955    5.5112 C   0  0  0  0  0  0  0  0  0  0  0  0
    7.2707    5.2684    6.3301 O   0  0  0  0  0  0  0  0  0  0  0  0
    8.3617    6.1656    6.3553 C   0  0  0  0  0  0  0  0  0  0  0  0
    8.3062    3.7686    4.6663 C   0  0  0  0  0  0  0  0  0  0  0  0
    9.4437    4.4965    4.5554 F   0  0  0  0  0  0  0  0  0  0  0  0
    4.8771    3.8332    6.2161 C   0  0  0  0  0  0  0  0  0  0  0  0
    4.2678    2.9504    7.1249 C   0  0  0  0  0  0  0  0  0  0  0  0
    5.0602    1.9474    7.5644 O   0  0  0  0  0  0  0  0  0  0  0  0
    4.5129    0.8330    8.2423 C   0  0  0  0  0  0  0  0  0  0  0  0
    2.9322    3.1756    7.4364 C   0  0  0  0  0  0  0  0  0  0  0  0
    2.2988    2.3189    8.2721 F   0  0  0  0  0  0  0  0  0  0  0  0
    2.1783    4.2078    6.8558 C   0  0  0  0  0  0  0  0  0  0  0  0
    2.8766    5.2183    6.1542 C   0  0  0  0  0  0  0  0  0  0  0  0
    2.1378    6.3000    5.8153 O   0  0  0  0  0  0  0  0  0  0  0  0
    2.5657    7.1998    4.8145 C   0  0  0  0  0  0  0  0  0  0  0  0
    4.2092    4.9865    5.8291 C   0  0  0  0  0  0  0  0  0  0  0  0
    4.8694    5.8381    5.0093 F   0  0  0  0  0  0  0  0  0  0  0  0
    0.7410    4.1077    6.7108 C   0  0  0  0  0  0  0  0  0  0  0  0
   -0.0564    3.0525    7.0537 C   0  0  0  0  0  0  0  0  0  0  0  0
   -1.2455    2.9561    6.2881 C   0  0  0  0  0  0  0  0  0  0  0  0
   -2.1207    1.8601    6.2213 C   0  0  0  0  0  0  0  0  0  0  0  0
   -1.9685    0.6721    7.0718 C   0  0  0  0  0  0  0  0  0  0  0  0
   -3.0493    0.1789    7.7992 C   0  0  0  0  0  0  0  0  0  0  0  0
   -2.9147   -0.9534    8.5742 C   0  0  0  0  0  0  0  0  0  0  0  0
   -1.7035   -1.6368    8.6549 C   0  0  0  0  0  0  0  0  0  0  0  0
   -1.6341   -3.0525    9.7151 S   0  0  0  0  0  0  0  0  0  0  0  0
   -0.6653   -4.2706    8.7493 C   0  0  0  0  0  0  0  0  0  0  0  0
   -1.2977   -4.5582    7.4026 C   0  0  0  0  0  0  0  0  0  0  0  0
   -0.6301   -1.1260    7.9320 C   0  0  0  0  0  0  0  0  0  0  0  0
    0.5844   -1.7197    7.9770 F   0  0  0  0  0  0  0  0  0  0  0  0
   -0.7545   -0.0033    7.1395 C   0  0  0  0  0  0  0  0  0  0  0  0
   -3.0604    1.8867    5.2033 C   0  0  0  0  0  0  0  0  0  0  0  0
   -3.2097    2.9769    4.3154 C   0  0  0  0  0  0  0  0  0  0  0  0
   -2.4096    4.1216    4.4559 C   0  0  0  0  0  0  0  0  0  0  0  0
   -2.6102    5.2831    3.5821 C   0  0  0  0  0  0  0  0  0  0  0  0
   -1.5610    5.8989    2.9081 C   0  0  0  0  0  0  0  0  0  0  0  0
   -1.7744    7.0026    2.1041 C   0  0  0  0  0  0  0  0  0  0  0  0
   -3.0491    7.5324    1.9426 C   0  0  0  0  0  0  0  0  0  0  0  0
   -3.4666    8.9499    0.9836 S   0  0  0  0  0  0  0  0  0  0  0  0
   -1.9501    9.3252    0.0388 C   0  0  0  0  0  0  0  0  0  0  0  0
   -1.7105    8.3364   -1.0867 C   0  0  0  0  0  0  0  0  0  0  0  0
   -4.0942    6.9020    2.6216 C   0  0  0  0  0  0  0  0  0  0  0  0
   -3.8958    5.8007    3.4216 C   0  0  0  0  0  0  0  0  0  0  0  0
   -5.3453    7.3891    2.4916 F   0  0  0  0  0  0  0  0  0  0  0  0
   -1.3997    4.0543    5.4074 C   0  0  0  0  0  0  0  0  0  0  0  0
   -0.0787    5.1766    5.5788 S   0  0  0  0  0  0  0  0  0  0  0  0
   -4.0168    2.6324    3.1930 C   0  0  0  0  0  0  0  0  0  0  0  0
   -4.4505    1.3492    3.2088 C   0  0  0  0  0  0  0  0  0  0  0  0
   -3.9970    0.5071    4.6833 S   0  0  0  0  0  0  0  0  0  0  0  0
   -4.8948    0.5778    2.0628 C   0  0  0  0  0  0  0  0  0  0  0  0
   -6.1048    0.2290    1.5719 C   0  0  0  0  0  0  0  0  0  0  0  0
   -6.0296   -0.5554    0.3797 C   0  0  0  0  0  0  0  0  0  0  0  0
   -7.0802   -1.0453   -0.4133 C   0  0  0  0  0  0  0  0  0  0  0  0
   -8.4881   -0.8734   -0.0356 C   0  0  0  0  0  0  0  0  0  0  0  0
   -8.9420   -1.2285    1.2338 C   0  0  0  0  0  0  0  0  0  0  0  0
  -10.2784   -1.1246    1.5540 C   0  0  0  0  0  0  0  0  0  0  0  0
  -11.2120   -0.6476    0.6348 C   0  0  0  0  0  0  0  0  0  0  0  0
  -12.8926   -0.5414    1.1723 S   0  0  0  0  0  0  0  0  0  0  0  0
  -13.8712   -1.0061   -0.3042 C   0  0  0  0  0  0  0  0  0  0  0  0
  -13.4958   -2.3764   -0.8309 C   0  0  0  0  0  0  0  0  0  0  0  0
  -10.7362   -0.2553   -0.6127 C   0  0  0  0  0  0  0  0  0  0  0  0
  -11.5667    0.2701   -1.5398 F   0  0  0  0  0  0  0  0  0  0  0  0
   -9.4060   -0.3816   -0.9570 C   0  0  0  0  0  0  0  0  0  0  0  0
   -6.7250   -1.7255   -1.5715 C   0  0  0  0  0  0  0  0  0  0  0  0
   -5.3796   -1.9477   -1.9507 C   0  0  0  0  0  0  0  0  0  0  0  0
   -4.3275   -1.4643   -1.1621 C   0  0  0  0  0  0  0  0  0  0  0  0
   -2.9270   -1.6760   -1.5512 C   0  0  0  0  0  0  0  0  0  0  0  0
   -2.4783   -1.3232   -2.8215 C   0  0  0  0  0  0  0  0  0  0  0  0
   -1.1693   -1.5421   -3.2042 C   0  0  0  0  0  0  0  0  0  0  0  0
   -0.2582   -2.1228   -2.3287 C   0  0  0  0  0  0  0  0  0  0  0  0
    1.4180   -2.5071   -2.7240 S   0  0  0  0  0  0  0  0  0  0  0  0
    1.8275   -1.3500   -4.0763 C   0  0  0  0  0  0  0  0  0  0  0  0
    1.8268    0.0933   -3.6152 C   0  0  0  0  0  0  0  0  0  0  0  0
   -0.7207   -2.4665   -1.0575 C   0  0  0  0  0  0  0  0  0  0  0  0
   -2.0218   -2.2483   -0.6609 C   0  0  0  0  0  0  0  0  0  0  0  0
    0.1298   -3.0394   -0.1828 F   0  0  0  0  0  0  0  0  0  0  0  0
   -4.6875   -0.7831   -0.0109 C   0  0  0  0  0  0  0  0  0  0  0  0
   -3.5662   -0.0491    1.0932 S   0  0  0  0  0  0  0  0  0  0  0  0
   -5.2794   -2.7183   -3.1322 C   0  0  0  0  0  0  0  0  0  0  0  0
   -6.4825   -3.0715   -3.6632 C   0  0  0  0  0  0  0  0  0  0  0  0
   -7.8256   -2.4687   -2.7122 S   0  0  0  0  0  0  0  0  0  0  0  0
   -6.6533   -3.8247   -4.8627 C   0  0  0  0  0  0  0  0  0  0  0  0
   -7.7824   -4.2746   -5.4754 C   0  0  0  0  0  0  0  0  0  0  0  0
   -7.5269   -4.9866   -6.6806 C   0  0  0  0  0  0  0  0  0  0  0  0
   -8.4433   -5.5712   -7.5698 C   0  0  0  0  0  0  0  0  0  0  0  0
   -9.8904   -5.4685   -7.3468 C   0  0  0  0  0  0  0  0  0  0  0  0
  -10.4909   -4.2342   -7.0984 C   0  0  0  0  0  0  0  0  0  0  0  0
  -11.8463   -4.1458   -6.8715 C   0  0  0  0  0  0  0  0  0  0  0  0
  -12.6630   -5.2774   -6.8863 C   0  0  0  0  0  0  0  0  0  0  0  0
  -14.3841   -5.0159   -6.6021 S   0  0  0  0  0  0  0  0  0  0  0  0
  -14.9734   -6.5893   -5.8572 C   0  0  0  0  0  0  0  0  0  0  0  0
  -16.2584   -6.3160   -5.1004 C   0  0  0  0  0  0  0  0  0  0  0  0
  -12.0552   -6.4969   -7.1694 C   0  0  0  0  0  0  0  0  0  0  0  0
  -12.7795   -7.6368   -7.2432 F   0  0  0  0  0  0  0  0  0  0  0  0
  -10.6959   -6.6008   -7.3861 C   0  0  0  0  0  0  0  0  0  0  0  0
   -7.9106   -6.2310   -8.6708 C   0  0  0  0  0  0  0  0  0  0  0  0
   -6.5213   -6.3112   -8.9384 C   0  0  0  0  0  0  0  0  0  0  0  0
   -5.6070   -5.7290   -8.0534 C   0  0  0  0  0  0  0  0  0  0  0  0
   -4.1502   -5.7219   -8.2472 C   0  0  0  0  0  0  0  0  0  0  0  0
   -3.3124   -6.1364   -7.2148 C   0  0  0  0  0  0  0  0  0  0  0  0
   -1.9431   -5.9879   -7.3007 C   0  0  0  0  0  0  0  0  0  0  0  0
   -1.3621   -5.4065   -8.4224 C   0  0  0  0  0  0  0  0  0  0  0  0
    0.3604   -5.0725   -8.5770 S   0  0  0  0  0  0  0  0  0  0  0  0
    0.9026   -5.0146   -6.8233 C   0  0  0  0  0  0  0  0  0  0  0  0
    2.2232   -4.2739   -6.7318 C   0  0  0  0  0  0  0  0  0  0  0  0
   -2.2063   -5.0633   -9.4797 C   0  0  0  0  0  0  0  0  0  0  0  0
   -3.5749   -5.2102   -9.4075 C   0  0  0  0  0  0  0  0  0  0  0  0
   -1.6745   -4.5372  -10.6012 F   0  0  0  0  0  0  0  0  0  0  0  0
   -6.1406   -5.0909   -6.9439 C   0  0  0  0  0  0  0  0  0  0  0  0
   -5.1966   -4.2687   -5.7358 S   0  0  0  0  0  0  0  0  0  0  0  0
   -6.2535   -7.0301  -10.1406 C   0  0  0  0  0  0  0  0  0  0  0  0
   -7.3751   -7.4504  -10.7590 C   0  0  0  0  0  0  0  0  0  0  0  0
   -8.8305   -7.0168   -9.9292 S   0  0  0  0  0  0  0  0  0  0  0  0
   14.5815   -0.1976   -2.5654 H   0  0  0  0  0  0  0  0  0  0  0  0
   15.0486    0.8320   -0.2186 H   0  0  0  0  0  0  0  0  0  0  0  0
   14.7316   -0.1977    2.0154 H   0  0  0  0  0  0  0  0  0  0  0  0
   16.6495    0.2727    3.4838 H   0  0  0  0  0  0  0  0  0  0  0  0
   16.6516    4.4956    5.9652 H   0  0  0  0  0  0  0  0  0  0  0  0
   17.7980    3.5756    6.9571 H   0  0  0  0  0  0  0  0  0  0  0  0
   15.5057    3.4094    7.9258 H   0  0  0  0  0  0  0  0  0  0  0  0
   14.8921    2.7601    6.4039 H   0  0  0  0  0  0  0  0  0  0  0  0
   16.0507    1.8256    7.3558 H   0  0  0  0  0  0  0  0  0  0  0  0
   13.3235    3.7986    2.6455 H   0  0  0  0  0  0  0  0  0  0  0  0
    8.3175   -0.6330    0.5552 H   0  0  0  0  0  0  0  0  0  0  0  0
    6.3477   -1.2867   -0.7711 H   0  0  0  0  0  0  0  0  0  0  0  0
    6.6626   -0.6508   -5.5347 H   0  0  0  0  0  0  0  0  0  0  0  0
    5.2900   -1.7719   -5.5276 H   0  0  0  0  0  0  0  0  0  0  0  0
    8.0087   -2.3059   -4.2109 H   0  0  0  0  0  0  0  0  0  0  0  0
    6.6253   -3.4048   -4.1796 H   0  0  0  0  0  0  0  0  0  0  0  0
    7.4334   -3.0397   -5.7107 H   0  0  0  0  0  0  0  0  0  0  0  0
    9.8736    1.4449   -2.8525 H   0  0  0  0  0  0  0  0  0  0  0  0
    8.1084    1.6502    1.2493 H   0  0  0  0  0  0  0  0  0  0  0  0
    6.0341   -0.5779    4.4834 H   0  0  0  0  0  0  0  0  0  0  0  0
    5.1158   -0.0404    3.0512 H   0  0  0  0  0  0  0  0  0  0  0  0
    6.4612   -1.1884    2.8667 H   0  0  0  0  0  0  0  0  0  0  0  0
    9.2812    5.6761    6.6846 H   0  0  0  0  0  0  0  0  0  0  0  0
    8.0807    6.9305    7.0774 H   0  0  0  0  0  0  0  0  0  0  0  0
    8.5239    6.6303    5.3802 H   0  0  0  0  0  0  0  0  0  0  0  0
    4.1339    1.1030    9.2302 H   0  0  0  0  0  0  0  0  0  0  0  0
    3.7181    0.3598    7.6616 H   0  0  0  0  0  0  0  0  0  0  0  0
    5.3426    0.1365    8.3540 H   0  0  0  0  0  0  0  0  0  0  0  0
    1.7192    7.8666    4.6570 H   0  0  0  0  0  0  0  0  0  0  0  0
    3.4318    7.7792    5.1413 H   0  0  0  0  0  0  0  0  0  0  0  0
    2.8024    6.6838    3.8813 H   0  0  0  0  0  0  0  0  0  0  0  0
    0.2008    2.3137    7.7863 H   0  0  0  0  0  0  0  0  0  0  0  0
   -3.9981    0.6916    7.7578 H   0  0  0  0  0  0  0  0  0  0  0  0
   -3.7531   -1.3335    9.1367 H   0  0  0  0  0  0  0  0  0  0  0  0
   -0.6734   -5.1557    9.3853 H   0  0  0  0  0  0  0  0  0  0  0  0
    0.3575   -3.9135    8.6522 H   0  0  0  0  0  0  0  0  0  0  0  0
   -0.7367   -5.3397    6.8938 H   0  0  0  0  0  0  0  0  0  0  0  0
   -1.2953   -3.6694    6.7741 H   0  0  0  0  0  0  0  0  0  0  0  0
   -2.3265   -4.8898    7.5268 H   0  0  0  0  0  0  0  0  0  0  0  0
    0.1000    0.3264    6.5692 H   0  0  0  0  0  0  0  0  0  0  0  0
   -0.5628    5.5004    2.9946 H   0  0  0  0  0  0  0  0  0  0  0  0
   -0.9297    7.4494    1.6056 H   0  0  0  0  0  0  0  0  0  0  0  0
   -2.1385   10.3228   -0.3577 H   0  0  0  0  0  0  0  0  0  0  0  0
   -1.1122    9.3816    0.7325 H   0  0  0  0  0  0  0  0  0  0  0  0
   -2.5564    8.3360   -1.7699 H   0  0  0  0  0  0  0  0  0  0  0  0
   -1.5816    7.3271   -0.7018 H   0  0  0  0  0  0  0  0  0  0  0  0
   -0.8159    8.6150   -1.6406 H   0  0  0  0  0  0  0  0  0  0  0  0
   -4.7388    5.3620    3.9324 H   0  0  0  0  0  0  0  0  0  0  0  0
   -4.1821    3.2943    2.3614 H   0  0  0  0  0  0  0  0  0  0  0  0
   -7.0325    0.5347    2.0210 H   0  0  0  0  0  0  0  0  0  0  0  0
   -8.2466   -1.6245    1.9582 H   0  0  0  0  0  0  0  0  0  0  0  0
  -10.6306   -1.4206    2.5300 H   0  0  0  0  0  0  0  0  0  0  0  0
  -13.7607   -0.2333   -1.0615 H   0  0  0  0  0  0  0  0  0  0  0  0
  -14.8962   -0.9950    0.0669 H   0  0  0  0  0  0  0  0  0  0  0  0
  -12.4706   -2.3866   -1.1963 H   0  0  0  0  0  0  0  0  0  0  0  0
  -13.5913   -3.1263   -0.0482 H   0  0  0  0  0  0  0  0  0  0  0  0
  -14.1549   -2.6431   -1.6547 H   0  0  0  0  0  0  0  0  0  0  0  0
   -9.0947   -0.0629   -1.9395 H   0  0  0  0  0  0  0  0  0  0  0  0
   -3.1609   -0.8579   -3.5167 H   0  0  0  0  0  0  0  0  0  0  0  0
   -0.8633   -1.2631   -4.1997 H   0  0  0  0  0  0  0  0  0  0  0  0
    1.1483   -1.5247   -4.9098 H   0  0  0  0  0  0  0  0  0  0  0  0
    2.8317   -1.6548   -4.3693 H   0  0  0  0  0  0  0  0  0  0  0  0
    2.0990    0.7436   -4.4439 H   0  0  0  0  0  0  0  0  0  0  0  0
    0.8458    0.3877   -3.2473 H   0  0  0  0  0  0  0  0  0  0  0  0
    2.5546    0.2270   -2.8189 H   0  0  0  0  0  0  0  0  0  0  0  0
   -2.3246   -2.5436    0.3312 H   0  0  0  0  0  0  0  0  0  0  0  0
   -4.3424   -3.0183   -3.5659 H   0  0  0  0  0  0  0  0  0  0  0  0
   -8.7662   -4.1135   -5.0720 H   0  0  0  0  0  0  0  0  0  0  0  0
   -9.8896   -3.3380   -7.0993 H   0  0  0  0  0  0  0  0  0  0  0  0
  -12.3061   -3.1895   -6.6760 H   0  0  0  0  0  0  0  0  0  0  0  0
  -14.1904   -6.9440   -5.1886 H   0  0  0  0  0  0  0  0  0  0  0  0
  -15.1336   -7.3114   -6.6561 H   0  0  0  0  0  0  0  0  0  0  0  0
  -17.0226   -5.9327   -5.7726 H   0  0  0  0  0  0  0  0  0  0  0  0
  -16.6209   -7.2371   -4.6492 H   0  0  0  0  0  0  0  0  0  0  0  0
  -16.0913   -5.5826   -4.3147 H   0  0  0  0  0  0  0  0  0  0  0  0
  -10.2789   -7.5771   -7.5776 H   0  0  0  0  0  0  0  0  0  0  0  0
   -3.7376   -6.5870   -6.3312 H   0  0  0  0  0  0  0  0  0  0  0  0
   -1.3271   -6.3213   -6.4817 H   0  0  0  0  0  0  0  0  0  0  0  0
    1.0088   -6.0371   -6.4610 H   0  0  0  0  0  0  0  0  0  0  0  0
    0.1257   -4.4979   -6.2601 H   0  0  0  0  0  0  0  0  0  0  0  0
    2.5401   -4.2207   -5.6920 H   0  0  0  0  0  0  0  0  0  0  0  0
    2.9901   -4.7879   -7.3064 H   0  0  0  0  0  0  0  0  0  0  0  0
    2.1213   -3.2638   -7.1224 H   0  0  0  0  0  0  0  0  0  0  0  0
   -4.1846   -4.8829  -10.2353 H   0  0  0  0  0  0  0  0  0  0  0  0
   -5.2597   -7.2195  -10.5038 H   0  0  0  0  0  0  0  0  0  0  0  0
   -7.4557   -8.0081  -11.6716 H   0  0  0  0  0  0  0  0  0  0  0  0
  1  2  2  0  0  0  0
  2  3  1  0  0  0  0
  3  4  2  0  0  0  0
  4  5  1  0  0  0  0
  5  6  2  0  0  0  0
  6  7  1  0  0  0  0
  7  8  2  0  0  0  0
  8  9  1  0  0  0  0
  9 10  1  0  0  0  0
 10 11  1  0  0  0  0
  8 12  1  0  0  0  0
 12 13  1  0  0  0  0
 12 14  2  0  0  0  0
  4 15  1  0  0  0  0
 15 16  2  0  0  0  0
 16 17  1  0  0  0  0
 17 18  1  0  0  0  0
 18 19  2  0  0  0  0
 19 20  1  0  0  0  0
 20 21  2  0  0  0  0
 21 22  1  0  0  0  0
 22 23  1  0  0  0  0
 23 24  1  0  0  0  0
 21 25  1  0  0  0  0
 25 26  2  0  0  0  0
 25 27  1  0  0  0  0
 17 28  2  0  0  0  0
 28 29  1  0  0  0  0
 16 30  1  0  0  0  0
 30 31  2  0  0  0  0
 31 32  1  0  0  0  0
 31 33  1  0  0  0  0
 33 34  2  0  0  0  0
 34 35  1  0  0  0  0
 35 36  1  0  0  0  0
 34 37  1  0  0  0  0
 37 38  1  0  0  0  0
 37 39  2  0  0  0  0
 39 40  1  0  0  0  0
 40 41  1  0  0  0  0
 41 42  1  0  0  0  0
 40 43  2  0  0  0  0
 43 44  1  0  0  0  0
 39 45  1  0  0  0  0
 45 46  2  0  0  0  0
 46 47  1  0  0  0  0
 47 48  1  0  0  0  0
 46 49  1  0  0  0  0
 49 50  1  0  0  0  0
 49 51  2  0  0  0  0
 51 52  1  0  0  0  0
 52 53  1  0  0  0  0
 53 54  1  0  0  0  0
 52 55  2  0  0  0  0
 55 56  1  0  0  0  0
 51 57  1  0  0  0  0
 57 58  2  0  0  0  0
 58 59  1  0  0  0  0
 59 60  2  0  0  0  0
 60 61  1  0  0  0  0
 61 62  2  0  0  0  0
 62 63  1  0  0  0  0
 63 64  2  0  0  0  0
 64 65  1  0  0  0  0
 65 66  1  0  0  0  0
 66 67  1  0  0  0  0
 64 68  1  0  0  0  0
 68 69  1  0  0  0  0
 68 70  2  0  0  0  0
 60 71  1  0  0  0  0
 71 72  2  0  0  0  0
 72 73  1  0  0  0  0
 73 74  1  0  0  0  0
 74 75  2  0  0  0  0
 75 76  1  0  0  0  0
 76 77  2  0  0  0  0
 77 78  1  0  0  0  0
 78 79  1  0  0  0  0
 79 80  1  0  0  0  0
 77 81  1  0  0  0  0
 81 82  2  0  0  0  0
 81 83  1  0  0  0  0
 73 84  2  0  0  0  0
 84 85  1  0  0  0  0
 72 86  1  0  0  0  0
 86 87  2  0  0  0  0
 87 88  1  0  0  0  0
 87 89  1  0  0  0  0
 89 90  2  0  0  0  0
 90 91  1  0  0  0  0
 91 92  2  0  0  0  0
 92 93  1  0  0  0  0
 93 94  2  0  0  0  0
 94 95  1  0  0  0  0
 95 96  2  0  0  0  0
 96 97  1  0  0  0  0
 97 98  1  0  0  0  0
 98 99  1  0  0  0  0
 96100  1  0  0  0  0
100101  1  0  0  0  0
100102  2  0  0  0  0
 92103  1  0  0  0  0
103104  2  0  0  0  0
104105  1  0  0  0  0
105106  1  0  0  0  0
106107  2  0  0  0  0
107108  1  0  0  0  0
108109  2  0  0  0  0
109110  1  0  0  0  0
110111  1  0  0  0  0
111112  1  0  0  0  0
109113  1  0  0  0  0
113114  2  0  0  0  0
113115  1  0  0  0  0
105116  2  0  0  0  0
116117  1  0  0  0  0
104118  1  0  0  0  0
118119  2  0  0  0  0
119120  1  0  0  0  0
119121  1  0  0  0  0
121122  2  0  0  0  0
122123  1  0  0  0  0
123124  2  0  0  0  0
124125  1  0  0  0  0
125126  2  0  0  0  0
126127  1  0  0  0  0
127128  2  0  0  0  0
128129  1  0  0  0  0
129130  1  0  0  0  0
130131  1  0  0  0  0
128132  1  0  0  0  0
132133  1  0  0  0  0
132134  2  0  0  0  0
124135  1  0  0  0  0
135136  2  0  0  0  0
136137  1  0  0  0  0
137138  1  0  0  0  0
138139  2  0  0  0  0
139140  1  0  0  0  0
140141  2  0  0  0  0
141142  1  0  0  0  0
142143  1  0  0  0  0
143144  1  0  0  0  0
141145  1  0  0  0  0
145146  2  0  0  0  0
145147  1  0  0  0  0
137148  2  0  0  0  0
148149  1  0  0  0  0
136150  1  0  0  0  0
150151  2  0  0  0  0
151152  1  0  0  0  0
 29  1  1  0  0  0  0
 43 33  1  0  0  0  0
 55 45  1  0  0  0  0
 85 57  1  0  0  0  0
117 89  1  0  0  0  0
149121  1  0  0  0  0
 28  3  1  0  0  0  0
 84 59  1  0  0  0  0
116 91  1  0  0  0  0
148123  1  0  0  0  0
 14  5  1  0  0  0  0
 32 15  1  0  0  0  0
 70 61  1  0  0  0  0
 88 71  1  0  0  0  0
102 93  1  0  0  0  0
120103  1  0  0  0  0
134125  1  0  0  0  0
152135  1  0  0  0  0
 26 18  1  0  0  0  0
 82 74  1  0  0  0  0
114106  1  0  0  0  0
146138  1  0  0  0  0
  1153  1  0  0  0  0
  2154  1  0  0  0  0
  6155  1  0  0  0  0
  7156  1  0  0  0  0
 10157  1  0  0  0  0
 10158  1  0  0  0  0
 11159  1  0  0  0  0
 11160  1  0  0  0  0
 11161  1  0  0  0  0
 14162  1  0  0  0  0
 19163  1  0  0  0  0
 20164  1  0  0  0  0
 23165  1  0  0  0  0
 23166  1  0  0  0  0
 24167  1  0  0  0  0
 24168  1  0  0  0  0
 24169  1  0  0  0  0
 26170  1  0  0  0  0
 30171  1  0  0  0  0
 36172  1  0  0  0  0
 36173  1  0  0  0  0
 36174  1  0  0  0  0
 42175  1  0  0  0  0
 42176  1  0  0  0  0
 42177  1  0  0  0  0
 48178  1  0  0  0  0
 48179  1  0  0  0  0
 48180  1  0  0  0  0
 54181  1  0  0  0  0
 54182  1  0  0  0  0
 54183  1  0  0  0  0
 58184  1  0  0  0  0
 62185  1  0  0  0  0
 63186  1  0  0  0  0
 66187  1  0  0  0  0
 66188  1  0  0  0  0
 67189  1  0  0  0  0
 67190  1  0  0  0  0
 67191  1  0  0  0  0
 70192  1  0  0  0  0
 75193  1  0  0  0  0
 76194  1  0  0  0  0
 79195  1  0  0  0  0
 79196  1  0  0  0  0
 80197  1  0  0  0  0
 80198  1  0  0  0  0
 80199  1  0  0  0  0
 82200  1  0  0  0  0
 86201  1  0  0  0  0
 90202  1  0  0  0  0
 94203  1  0  0  0  0
 95204  1  0  0  0  0
 98205  1  0  0  0  0
 98206  1  0  0  0  0
 99207  1  0  0  0  0
 99208  1  0  0  0  0
 99209  1  0  0  0  0
102210  1  0  0  0  0
107211  1  0  0  0  0
108212  1  0  0  0  0
111213  1  0  0  0  0
111214  1  0  0  0  0
112215  1  0  0  0  0
112216  1  0  0  0  0
112217  1  0  0  0  0
114218  1  0  0  0  0
118219  1  0  0  0  0
122220  1  0  0  0  0
126221  1  0  0  0  0
127222  1  0  0  0  0
130223  1  0  0  0  0
130224  1  0  0  0  0
131225  1  0  0  0  0
131226  1  0  0  0  0
131227  1  0  0  0  0
134228  1  0  0  0  0
139229  1  0  0  0  0
140230  1  0  0  0  0
143231  1  0  0  0  0
143232  1  0  0  0  0
144233  1  0  0  0  0
144234  1  0  0  0  0
144235  1  0  0  0  0
146236  1  0  0  0  0
150237  1  0  0  0  0
151238  1  0  0  0  0
M  END
