143

C          7.82000        5.56510        9.99120
S          6.35070        4.66760       10.04480
C          6.15040        4.87520        8.34350
C          5.11490        4.41190        7.48840
C          5.19850        4.72740        6.14040
Ge         6.84010        5.77960        5.84460
C          8.18920        4.82680        4.70650
C          7.75730        4.73820        3.25120
C          6.46660        7.66120        5.25830
C          7.71310        8.53170        5.26610
C          7.18010        5.60660        7.77830
C          8.13100        5.99480        8.73730
C          4.12930        4.20920        5.41180
C          3.23040        3.50070        6.18370
S          3.71670        3.47620        7.86300
C          2.05160        2.83290        5.76540
S          1.57750        2.84140        4.08390
C          0.19850        1.86990        4.45130
C         -0.79720        1.35480        3.59100
C         -1.79750        0.56780        4.15250
Ge        -1.49420        0.45380        6.09780
C         -1.10310       -1.41160        6.72670
C         -2.29930       -2.33840        6.57530
C         -2.91530        1.42180        7.12820
C         -3.11560        2.84110        6.62030
C          0.11280        1.56020        5.80390
C          1.16090        2.10990        6.53590
C         -2.69490        0.09990        3.19910
C         -2.40430        0.51900        1.91360
S         -0.97380        1.52610        1.88330
C         -3.06250        0.17300        0.71070
S         -4.30980       -1.04950        0.70140
C         -4.39750       -0.96590       -1.01930
C         -5.06140       -1.82270       -1.92070
C         -4.83520       -1.62990       -3.28290
Ge        -3.78590        0.02620       -3.50630
C         -4.96950        1.57410       -4.01020
C         -4.59160        2.86510       -3.29750
C         -2.10810       -0.09350       -4.59800
C         -1.38510        1.23820       -4.71420
C         -3.55000        0.00390       -1.54950
C         -2.80380        0.63980       -0.56740
C         -5.34510       -2.67320       -4.04400
C         -5.94380       -3.66520       -3.28450
S         -5.97320       -3.24860       -1.59580
C         -6.42670       -4.92130       -3.76060
C         -7.56380       -5.60500       -3.43260
F         -8.44240       -5.26290       -2.47910
C         -7.75580       -6.71980       -4.31200
C         -6.73640       -6.72580       -5.21110
C         -5.81740       -5.67040       -4.87050
C         -4.56580       -5.50060       -5.40720
C         -3.42030       -4.73270       -4.85040
C         -2.51230       -4.57240       -5.87130
C         -2.99880       -5.29870       -6.99380
C         -4.18490       -5.91570       -6.72110
F         -2.33430       -5.37520       -8.15270
C         -3.20230       -4.48080       -3.46980
C         -2.28310       -3.58810       -3.01030
C         -1.92590       -3.37440       -1.65460
C         -2.51030       -3.87850       -0.51400
F         -3.47140       -4.80820       -0.45810
C         -1.99280       -3.24750        0.65500
C         -1.09210       -2.30610        0.26010
C         -0.93400       -2.38660       -1.16840
C          0.03740       -1.68750       -1.84280
C          0.64410       -1.93520       -3.17570
C          1.35820       -0.81370       -3.51530
C          1.29210        0.08720       -2.41230
C          0.56600       -0.43710       -1.38450
F          1.88550        1.28400       -2.41130
C          0.64060       -3.15330       -3.90650
C          0.44140       -4.37990       -3.35820
C          0.24590       -5.58480       -4.08380
C         -0.51020       -6.63650       -3.61610
F         -0.92580       -6.78580       -2.35410
C         -0.87890       -7.51850       -4.67640
C         -0.36660       -7.01530       -5.82980
C          0.44230       -5.85560       -5.51650
C          1.32260       -5.29900       -6.40420
C          2.54560       -4.50220       -6.14160
C          3.05020       -4.12910       -7.34940
C          2.19090       -4.66480       -8.37510
C          1.19420       -5.40590       -7.83740
F          2.40330       -4.44880       -9.67470
C          3.17820       -4.34510       -4.85310
C          4.11860       -3.44480       -4.57720
H          8.36560        5.71850       10.90180
H          9.14200        5.34970        4.78710
H          8.33120        3.82790        5.11830
H          7.63240        5.73130        2.82410
H          6.81040        4.20930        3.16590
H          8.50150        4.20490        2.66210
H          5.71250        8.07830        5.92530
H          6.03410        7.62980        4.25840
H          8.46550        8.13500        4.58730
H          8.14340        8.57260        6.26470
H          7.47410        9.54710        4.95440
H          9.01320        6.56820        8.51070
H          3.99770        4.33620        4.35070
H         -0.79020       -1.36610        7.76940
H         -0.25980       -1.78950        6.14890
H         -2.04750       -3.34420        6.90700
H         -2.61350       -2.38930        5.53510
H         -3.13960       -1.98420        7.16880
H         -2.63310        1.43270        8.18070
H         -3.84440        0.85840        7.04560
H         -2.19570        3.41500        6.71580
H         -3.40320        2.83440        5.57040
H         -3.89610        3.34550        7.18700
H          1.28720        1.99210        7.59860
H         -3.54230       -0.52820        3.41480
H         -4.91990        1.71100       -5.09040
H         -5.99670        1.30410       -3.76440
H         -3.57340        3.16090       -3.53940
H         -5.26140        3.67170       -3.59100
H         -4.66000        2.73760       -2.21910
H         -2.37650       -0.46440       -5.58720
H         -1.45040       -0.82630       -4.13610
H         -2.00970        1.97760       -5.21090
H         -1.11900        1.61680       -3.72960
H         -0.46980        1.12280       -5.29210
H         -2.07390        1.40730       -0.76020
H         -5.27580       -2.73170       -5.11590
H         -8.58220       -7.40220       -4.25020
H         -6.56550       -7.45410       -5.97940
H         -1.56320       -4.07610       -5.83240
H         -4.78810       -6.48030       -7.40290
H         -3.77720       -5.07350       -2.77380
H         -1.78890       -2.96400       -3.73890
H         -2.29240       -3.48870        1.65750
H         -0.49200       -1.69160        0.90210
H          1.93620       -0.66130       -4.40600
H          0.31750        0.05230       -0.46430
H          0.85040       -3.06610       -4.96400
H          0.28830       -4.45770       -2.28990
H         -1.47500       -8.40270       -4.55380
H         -0.42270       -7.46560       -6.80120
H          3.95260       -3.58280       -7.54410
H          0.38800       -5.87990       -8.35930
H          2.85550       -5.03290       -4.08410
H          4.57610       -3.39030       -3.60530
H          4.45070       -2.72430       -5.30480
