
  xtb     03022201243D
 energy: -413.125497916886 gnorm: 0.000439318044 xtb: 6.4.1 (unknown)
214237  0     0  0            999 V2000
    0.5334   -6.2399   11.1224 C   0  0  0  0  0  0  0  0  0  0  0  0
    1.1272   -5.2405   10.4395 C   0  0  0  0  0  0  0  0  0  0  0  0
    0.2742   -4.6569    9.4568 C   0  0  0  0  0  0  0  0  0  0  0  0
    0.5662   -3.6213    8.5513 C   0  0  0  0  0  0  0  0  0  0  0  0
    1.7823   -2.8406    8.6906 C   0  0  0  0  0  0  0  0  0  0  0  0
    2.8168   -2.4413    7.3520 S   0  0  0  0  0  0  0  0  0  0  0  0
    3.9030   -1.5436    8.3555 C   0  0  0  0  0  0  0  0  0  0  0  0
    5.0904   -0.8382    7.7982 C   0  0  0  0  0  0  0  0  0  0  0  0
    4.8850    0.6783    7.8237 C   0  0  0  0  0  0  0  0  0  0  0  0
    3.4698   -1.5518    9.6485 C   0  0  0  0  0  0  0  0  0  0  0  0
    4.2938   -0.7817   10.9421 Cl  0  0  0  0  0  0  0  0  0  0  0  0
    2.2665   -2.2769    9.8420 C   0  0  0  0  0  0  0  0  0  0  0  0
    1.4690   -2.3253   11.3620 Cl  0  0  0  0  0  0  0  0  0  0  0  0
   -0.3921   -3.3459    7.5822 C   0  0  0  0  0  0  0  0  0  0  0  0
   -1.6627   -3.9717    7.5633 C   0  0  0  0  0  0  0  0  0  0  0  0
   -1.9739   -4.9687    8.5016 C   0  0  0  0  0  0  0  0  0  0  0  0
   -3.2581   -5.6486    8.4821 C   0  0  0  0  0  0  0  0  0  0  0  0
   -4.2552   -5.7480    9.9022 S   0  0  0  0  0  0  0  0  0  0  0  0
   -5.4778   -6.6501    9.0752 C   0  0  0  0  0  0  0  0  0  0  0  0
   -6.7407   -7.0477    9.7560 C   0  0  0  0  0  0  0  0  0  0  0  0
   -7.7950   -5.9439    9.6403 C   0  0  0  0  0  0  0  0  0  0  0  0
   -5.1213   -6.8509    7.7749 C   0  0  0  0  0  0  0  0  0  0  0  0
   -3.8620   -6.2890    7.4353 C   0  0  0  0  0  0  0  0  0  0  0  0
   -3.1536   -6.4797    5.8826 Cl  0  0  0  0  0  0  0  0  0  0  0  0
   -6.0827   -7.7090    6.6417 Cl  0  0  0  0  0  0  0  0  0  0  0  0
   -0.9869   -5.2947    9.4230 C   0  0  0  0  0  0  0  0  0  0  0  0
   -1.0942   -6.5496   10.6252 S   0  0  0  0  0  0  0  0  0  0  0  0
   -2.4989   -3.4398    6.5499 C   0  0  0  0  0  0  0  0  0  0  0  0
   -1.8842   -2.5066    5.7733 C   0  0  0  0  0  0  0  0  0  0  0  0
   -0.2414   -2.1840    6.2925 S   0  0  0  0  0  0  0  0  0  0  0  0
   -2.4407   -1.8285    4.6451 C   0  0  0  0  0  0  0  0  0  0  0  0
   -1.7860   -1.2704    3.5895 C   0  0  0  0  0  0  0  0  0  0  0  0
   -2.6518   -0.7007    2.6209 C   0  0  0  0  0  0  0  0  0  0  0  0
   -2.3181   -0.1020    1.3892 C   0  0  0  0  0  0  0  0  0  0  0  0
   -0.9317   -0.0863    0.9445 C   0  0  0  0  0  0  0  0  0  0  0  0
    0.3353    0.6068    1.9136 S   0  0  0  0  0  0  0  0  0  0  0  0
    1.5720    0.0731    0.8266 C   0  0  0  0  0  0  0  0  0  0  0  0
    3.0059    0.3802    1.0755 C   0  0  0  0  0  0  0  0  0  0  0  0
    3.3709    1.7719    0.5584 C   0  0  0  0  0  0  0  0  0  0  0  0
    1.0165   -0.5826   -0.2300 C   0  0  0  0  0  0  0  0  0  0  0  0
    1.9208   -1.2803   -1.5076 Cl  0  0  0  0  0  0  0  0  0  0  0  0
   -0.4015   -0.6682   -0.1722 C   0  0  0  0  0  0  0  0  0  0  0  0
   -1.3230   -1.4816   -1.3647 Cl  0  0  0  0  0  0  0  0  0  0  0  0
   -3.3621    0.3992    0.6248 C   0  0  0  0  0  0  0  0  0  0  0  0
   -4.7144    0.3288    1.0461 C   0  0  0  0  0  0  0  0  0  0  0  0
   -5.0541   -0.3174    2.2459 C   0  0  0  0  0  0  0  0  0  0  0  0
   -6.4429   -0.4619    2.6521 C   0  0  0  0  0  0  0  0  0  0  0  0
   -7.1247   -2.0341    2.9452 S   0  0  0  0  0  0  0  0  0  0  0  0
   -8.6898   -1.3787    3.2856 C   0  0  0  0  0  0  0  0  0  0  0  0
   -9.8501   -2.2636    3.5812 C   0  0  0  0  0  0  0  0  0  0  0  0
  -10.5247   -2.7321    2.2895 C   0  0  0  0  0  0  0  0  0  0  0  0
   -8.6690   -0.0209    3.1712 C   0  0  0  0  0  0  0  0  0  0  0  0
   -7.3962    0.5029    2.8195 C   0  0  0  0  0  0  0  0  0  0  0  0
   -7.0975    2.1913    2.6967 Cl  0  0  0  0  0  0  0  0  0  0  0  0
  -10.0401    0.9834    3.4209 Cl  0  0  0  0  0  0  0  0  0  0  0  0
   -4.0101   -0.8340    2.9969 C   0  0  0  0  0  0  0  0  0  0  0  0
   -4.1806   -1.6792    4.5072 S   0  0  0  0  0  0  0  0  0  0  0  0
   -5.5912    0.9474    0.1328 C   0  0  0  0  0  0  0  0  0  0  0  0
   -4.9741    1.4773   -0.9649 C   0  0  0  0  0  0  0  0  0  0  0  0
   -3.2379    1.2188   -0.9098 S   0  0  0  0  0  0  0  0  0  0  0  0
   -5.6061    2.2745   -1.9595 C   0  0  0  0  0  0  0  0  0  0  0  0
   -4.7059    3.5112   -2.7762 S   0  0  0  0  0  0  0  0  0  0  0  0
   -6.1345    4.3205   -3.3246 C   0  0  0  0  0  0  0  0  0  0  0  0
   -7.2726    3.6129   -2.9348 C   0  0  0  0  0  0  0  0  0  0  0  0
   -6.9754    2.4069   -2.2210 C   0  0  0  0  0  0  0  0  0  0  0  0
   -8.0442    1.5211   -1.8995 C   0  0  0  0  0  0  0  0  0  0  0  0
   -7.7958    0.1072   -1.5110 C   0  0  0  0  0  0  0  0  0  0  0  0
   -6.8913   -0.5322   -1.9959 O   0  0  0  0  0  0  0  0  0  0  0  0
   -8.7783   -0.5079   -0.5389 C   0  0  0  0  0  0  0  0  0  0  0  0
   -9.3330    1.9299   -2.1534 C   0  0  0  0  0  0  0  0  0  0  0  0
   -9.6176    3.1579   -2.7763 C   0  0  0  0  0  0  0  0  0  0  0  0
   -8.6090    3.9729   -3.2009 C   0  0  0  0  0  0  0  0  0  0  0  0
   -6.0827    5.6304   -3.9000 C   0  0  0  0  0  0  0  0  0  0  0  0
   -5.1647    6.0719   -4.7842 C   0  0  0  0  0  0  0  0  0  0  0  0
   -4.3182    5.2463   -5.5882 C   0  0  0  0  0  0  0  0  0  0  0  0
   -4.9115    3.7570   -6.2480 S   0  0  0  0  0  0  0  0  0  0  0  0
   -3.5331    3.5488   -7.2700 C   0  0  0  0  0  0  0  0  0  0  0  0
   -2.6383    4.6084   -7.1131 C   0  0  0  0  0  0  0  0  0  0  0  0
   -3.0783    5.5629   -6.1417 C   0  0  0  0  0  0  0  0  0  0  0  0
   -2.2686    6.6917   -5.8527 C   0  0  0  0  0  0  0  0  0  0  0  0
   -2.6019    7.6406   -4.7517 C   0  0  0  0  0  0  0  0  0  0  0  0
   -2.7608    8.8229   -4.9404 O   0  0  0  0  0  0  0  0  0  0  0  0
   -2.6150    7.0247   -3.3742 C   0  0  0  0  0  0  0  0  0  0  0  0
   -1.1320    6.8926   -6.5925 C   0  0  0  0  0  0  0  0  0  0  0  0
   -0.7328    5.9814   -7.5900 C   0  0  0  0  0  0  0  0  0  0  0  0
   -1.4543    4.8522   -7.8439 C   0  0  0  0  0  0  0  0  0  0  0  0
   -3.5101    2.4609   -8.2078 C   0  0  0  0  0  0  0  0  0  0  0  0
   -2.4875    1.6187   -8.4555 C   0  0  0  0  0  0  0  0  0  0  0  0
   -1.2867    1.4517   -7.7001 C   0  0  0  0  0  0  0  0  0  0  0  0
   -0.3148    0.5265   -7.9713 C   0  0  0  0  0  0  0  0  0  0  0  0
    0.6930    0.4432   -6.9826 C   0  0  0  0  0  0  0  0  0  0  0  0
    1.7781   -0.4486   -6.9055 C   0  0  0  0  0  0  0  0  0  0  0  0
    2.0484   -1.4057   -7.9657 C   0  0  0  0  0  0  0  0  0  0  0  0
    2.2502   -0.8822   -9.6127 S   0  0  0  0  0  0  0  0  0  0  0  0
    2.5599   -2.4908  -10.1710 C   0  0  0  0  0  0  0  0  0  0  0  0
    2.8915   -2.7637  -11.5964 C   0  0  0  0  0  0  0  0  0  0  0  0
    4.3859   -2.5598  -11.8574 C   0  0  0  0  0  0  0  0  0  0  0  0
    2.5098   -3.3687   -9.1302 C   0  0  0  0  0  0  0  0  0  0  0  0
    2.7626   -5.0578   -9.2923 Cl  0  0  0  0  0  0  0  0  0  0  0  0
    2.2162   -2.7598   -7.8800 C   0  0  0  0  0  0  0  0  0  0  0  0
    2.0092   -3.6701   -6.4427 Cl  0  0  0  0  0  0  0  0  0  0  0  0
    2.5785   -0.3710   -5.7726 C   0  0  0  0  0  0  0  0  0  0  0  0
    2.3572    0.5716   -4.7372 C   0  0  0  0  0  0  0  0  0  0  0  0
    1.2748    1.4603   -4.8152 C   0  0  0  0  0  0  0  0  0  0  0  0
    1.0164    2.4511   -3.7792 C   0  0  0  0  0  0  0  0  0  0  0  0
    0.6400    1.9986   -2.1467 S   0  0  0  0  0  0  0  0  0  0  0  0
    0.5129    3.6454   -1.6355 C   0  0  0  0  0  0  0  0  0  0  0  0
    0.1424    3.9998   -0.2375 C   0  0  0  0  0  0  0  0  0  0  0  0
   -1.3301    4.4058   -0.1473 C   0  0  0  0  0  0  0  0  0  0  0  0
    0.7435    4.4831   -2.6857 C   0  0  0  0  0  0  0  0  0  0  0  0
    1.0154    3.8111   -3.9062 C   0  0  0  0  0  0  0  0  0  0  0  0
    1.3568    4.6385   -5.3686 Cl  0  0  0  0  0  0  0  0  0  0  0  0
    0.7744    6.1929   -2.5558 Cl  0  0  0  0  0  0  0  0  0  0  0  0
    0.4588    1.3606   -5.9292 C   0  0  0  0  0  0  0  0  0  0  0  0
   -0.9854    2.2868   -6.1894 S   0  0  0  0  0  0  0  0  0  0  0  0
    3.3290    0.4758   -3.7152 C   0  0  0  0  0  0  0  0  0  0  0  0
    4.2443   -0.5122   -3.9280 C   0  0  0  0  0  0  0  0  0  0  0  0
    3.9803   -1.3486   -5.4424 S   0  0  0  0  0  0  0  0  0  0  0  0
    5.2638   -0.9400   -3.0299 C   0  0  0  0  0  0  0  0  0  0  0  0
    6.0646   -2.0386   -3.1227 C   0  0  0  0  0  0  0  0  0  0  0  0
    6.8910   -2.2337   -1.9868 C   0  0  0  0  0  0  0  0  0  0  0  0
    7.7873   -3.2832   -1.7228 C   0  0  0  0  0  0  0  0  0  0  0  0
    8.0908   -4.2767   -2.7375 C   0  0  0  0  0  0  0  0  0  0  0  0
    7.9998   -5.9811   -2.4108 S   0  0  0  0  0  0  0  0  0  0  0  0
    8.4806   -6.3943   -4.0201 C   0  0  0  0  0  0  0  0  0  0  0  0
    8.5550   -7.8130   -4.4649 C   0  0  0  0  0  0  0  0  0  0  0  0
    7.1961   -8.2961   -4.9783 C   0  0  0  0  0  0  0  0  0  0  0  0
    8.6930   -5.2668   -4.7567 C   0  0  0  0  0  0  0  0  0  0  0  0
    9.1885   -5.2772   -6.3997 Cl  0  0  0  0  0  0  0  0  0  0  0  0
    8.4759   -4.0644   -4.0335 C   0  0  0  0  0  0  0  0  0  0  0  0
    8.7582   -2.5145   -4.7148 Cl  0  0  0  0  0  0  0  0  0  0  0  0
    8.3655   -3.3167   -0.4582 C   0  0  0  0  0  0  0  0  0  0  0  0
    8.1189   -2.3326    0.5281 C   0  0  0  0  0  0  0  0  0  0  0  0
    7.2642   -1.2604    0.2451 C   0  0  0  0  0  0  0  0  0  0  0  0
    6.9633   -0.2303    1.2341 C   0  0  0  0  0  0  0  0  0  0  0  0
    7.5080    1.4078    1.0488 S   0  0  0  0  0  0  0  0  0  0  0  0
    6.7330    1.9087    2.5147 C   0  0  0  0  0  0  0  0  0  0  0  0
    6.7971    3.3200    2.9878 C   0  0  0  0  0  0  0  0  0  0  0  0
    5.6065    4.1378    2.4824 C   0  0  0  0  0  0  0  0  0  0  0  0
    6.0791    0.8586    3.0862 C   0  0  0  0  0  0  0  0  0  0  0  0
    6.2202   -0.3604    2.3701 C   0  0  0  0  0  0  0  0  0  0  0  0
    5.4965   -1.8353    2.8726 Cl  0  0  0  0  0  0  0  0  0  0  0  0
    5.1509    0.9769    4.5219 Cl  0  0  0  0  0  0  0  0  0  0  0  0
    6.6719   -1.2360   -1.0064 C   0  0  0  0  0  0  0  0  0  0  0  0
    5.5078   -0.0591   -1.5357 S   0  0  0  0  0  0  0  0  0  0  0  0
    8.8442   -2.5885    1.7278 C   0  0  0  0  0  0  0  0  0  0  0  0
    9.6004   -3.7020    1.6500 C   0  0  0  0  0  0  0  0  0  0  0  0
    9.4905   -4.5117    0.1243 S   0  0  0  0  0  0  0  0  0  0  0  0
    0.9521   -6.8408   11.9057 H   0  0  0  0  0  0  0  0  0  0  0  0
    2.1453   -4.9367   10.5979 H   0  0  0  0  0  0  0  0  0  0  0  0
    5.2583   -1.1721    6.7736 H   0  0  0  0  0  0  0  0  0  0  0  0
    5.9697   -1.0911    8.3962 H   0  0  0  0  0  0  0  0  0  0  0  0
    4.7318    1.0233    8.8423 H   0  0  0  0  0  0  0  0  0  0  0  0
    4.0158    0.9527    7.2308 H   0  0  0  0  0  0  0  0  0  0  0  0
    5.7593    1.1784    7.4161 H   0  0  0  0  0  0  0  0  0  0  0  0
   -7.1170   -7.9611    9.2913 H   0  0  0  0  0  0  0  0  0  0  0  0
   -6.5366   -7.2476   10.8089 H   0  0  0  0  0  0  0  0  0  0  0  0
   -7.4333   -5.0274   10.1002 H   0  0  0  0  0  0  0  0  0  0  0  0
   -8.7105   -6.2484   10.1400 H   0  0  0  0  0  0  0  0  0  0  0  0
   -8.0174   -5.7444    8.5951 H   0  0  0  0  0  0  0  0  0  0  0  0
   -3.5176   -3.7437    6.3924 H   0  0  0  0  0  0  0  0  0  0  0  0
   -0.7145   -1.2861    3.5083 H   0  0  0  0  0  0  0  0  0  0  0  0
    3.6136   -0.3674    0.5634 H   0  0  0  0  0  0  0  0  0  0  0  0
    3.2095    0.3247    2.1457 H   0  0  0  0  0  0  0  0  0  0  0  0
    2.8292    2.5363    1.1098 H   0  0  0  0  0  0  0  0  0  0  0  0
    4.4371    1.9412    0.6720 H   0  0  0  0  0  0  0  0  0  0  0  0
    3.1166    1.8593   -0.4942 H   0  0  0  0  0  0  0  0  0  0  0  0
   -9.5073   -3.1313    4.1469 H   0  0  0  0  0  0  0  0  0  0  0  0
  -10.5688   -1.7102    4.1884 H   0  0  0  0  0  0  0  0  0  0  0  0
  -11.3670   -3.3778    2.5220 H   0  0  0  0  0  0  0  0  0  0  0  0
   -9.8193   -3.2864    1.6753 H   0  0  0  0  0  0  0  0  0  0  0  0
  -10.8859   -1.8781    1.7222 H   0  0  0  0  0  0  0  0  0  0  0  0
   -6.6446    1.0398    0.3072 H   0  0  0  0  0  0  0  0  0  0  0  0
   -8.2898   -1.3221   -0.0085 H   0  0  0  0  0  0  0  0  0  0  0  0
   -9.6119   -0.9300   -1.0985 H   0  0  0  0  0  0  0  0  0  0  0  0
   -9.1621    0.2240    0.1666 H   0  0  0  0  0  0  0  0  0  0  0  0
  -10.1568    1.2713   -1.9255 H   0  0  0  0  0  0  0  0  0  0  0  0
  -10.6477    3.4240   -2.9586 H   0  0  0  0  0  0  0  0  0  0  0  0
   -8.8145    4.8812   -3.7457 H   0  0  0  0  0  0  0  0  0  0  0  0
   -6.8223    6.3269   -3.5257 H   0  0  0  0  0  0  0  0  0  0  0  0
   -5.1017    7.1335   -4.9887 H   0  0  0  0  0  0  0  0  0  0  0  0
   -2.8692    5.9696   -3.3944 H   0  0  0  0  0  0  0  0  0  0  0  0
   -1.6046    7.1258   -2.9773 H   0  0  0  0  0  0  0  0  0  0  0  0
   -3.2884    7.5711   -2.7187 H   0  0  0  0  0  0  0  0  0  0  0  0
   -0.5192    7.7585   -6.3904 H   0  0  0  0  0  0  0  0  0  0  0  0
    0.1691    6.1845   -8.1478 H   0  0  0  0  0  0  0  0  0  0  0  0
   -1.1431    4.1470   -8.5995 H   0  0  0  0  0  0  0  0  0  0  0  0
   -4.4355    2.3014   -8.7486 H   0  0  0  0  0  0  0  0  0  0  0  0
   -2.6034    0.9008   -9.2575 H   0  0  0  0  0  0  0  0  0  0  0  0
   -0.3358   -0.0942   -8.8489 H   0  0  0  0  0  0  0  0  0  0  0  0
    2.3161   -2.0939  -12.2379 H   0  0  0  0  0  0  0  0  0  0  0  0
    2.6170   -3.7944  -11.8284 H   0  0  0  0  0  0  0  0  0  0  0  0
    4.6145   -2.7664  -12.8994 H   0  0  0  0  0  0  0  0  0  0  0  0
    4.6717   -1.5349  -11.6329 H   0  0  0  0  0  0  0  0  0  0  0  0
    4.9718   -3.2288  -11.2323 H   0  0  0  0  0  0  0  0  0  0  0  0
    0.3235    3.1411    0.4102 H   0  0  0  0  0  0  0  0  0  0  0  0
    0.7683    4.8307    0.0972 H   0  0  0  0  0  0  0  0  0  0  0  0
   -1.9649    3.5964   -0.4981 H   0  0  0  0  0  0  0  0  0  0  0  0
   -1.5196    5.2847   -0.7574 H   0  0  0  0  0  0  0  0  0  0  0  0
   -1.5895    4.6323    0.8832 H   0  0  0  0  0  0  0  0  0  0  0  0
    3.3401    1.1027   -2.8419 H   0  0  0  0  0  0  0  0  0  0  0  0
    6.0284   -2.7094   -3.9619 H   0  0  0  0  0  0  0  0  0  0  0  0
    8.8717   -8.4384   -3.6288 H   0  0  0  0  0  0  0  0  0  0  0  0
    9.2954   -7.8921   -5.2632 H   0  0  0  0  0  0  0  0  0  0  0  0
    6.8741   -7.6894   -5.8207 H   0  0  0  0  0  0  0  0  0  0  0  0
    7.2655   -9.3314   -5.3008 H   0  0  0  0  0  0  0  0  0  0  0  0
    6.4484   -8.2240   -4.1920 H   0  0  0  0  0  0  0  0  0  0  0  0
    7.7252    3.7737    2.6371 H   0  0  0  0  0  0  0  0  0  0  0  0
    6.7979    3.3223    4.0799 H   0  0  0  0  0  0  0  0  0  0  0  0
    5.6776    5.1586    2.8478 H   0  0  0  0  0  0  0  0  0  0  0  0
    5.5929    4.1576    1.3955 H   0  0  0  0  0  0  0  0  0  0  0  0
    4.6748    3.7050    2.8365 H   0  0  0  0  0  0  0  0  0  0  0  0
    8.7870   -1.9559    2.5949 H   0  0  0  0  0  0  0  0  0  0  0  0
   10.2375   -4.1203    2.4045 H   0  0  0  0  0  0  0  0  0  0  0  0
  1  2  2  0  0  0  0
  2  3  1  0  0  0  0
  3  4  2  0  0  0  0
  4  5  1  0  0  0  0
  5  6  1  0  0  0  0
  6  7  1  0  0  0  0
  7  8  1  0  0  0  0
  8  9  1  0  0  0  0
  7 10  2  0  0  0  0
 10 11  1  0  0  0  0
 10 12  1  0  0  0  0
 12 13  1  0  0  0  0
  4 14  1  0  0  0  0
 14 15  2  0  0  0  0
 15 16  1  0  0  0  0
 16 17  1  0  0  0  0
 17 18  1  0  0  0  0
 18 19  1  0  0  0  0
 19 20  1  0  0  0  0
 20 21  1  0  0  0  0
 19 22  2  0  0  0  0
 22 23  1  0  0  0  0
 23 24  1  0  0  0  0
 22 25  1  0  0  0  0
 16 26  2  0  0  0  0
 26 27  1  0  0  0  0
 15 28  1  0  0  0  0
 28 29  2  0  0  0  0
 29 30  1  0  0  0  0
 29 31  1  0  0  0  0
 31 32  2  0  0  0  0
 32 33  1  0  0  0  0
 33 34  2  0  0  0  0
 34 35  1  0  0  0  0
 35 36  1  0  0  0  0
 36 37  1  0  0  0  0
 37 38  1  0  0  0  0
 38 39  1  0  0  0  0
 37 40  2  0  0  0  0
 40 41  1  0  0  0  0
 40 42  1  0  0  0  0
 42 43  1  0  0  0  0
 34 44  1  0  0  0  0
 44 45  2  0  0  0  0
 45 46  1  0  0  0  0
 46 47  1  0  0  0  0
 47 48  1  0  0  0  0
 48 49  1  0  0  0  0
 49 50  1  0  0  0  0
 50 51  1  0  0  0  0
 49 52  2  0  0  0  0
 52 53  1  0  0  0  0
 53 54  1  0  0  0  0
 52 55  1  0  0  0  0
 46 56  2  0  0  0  0
 56 57  1  0  0  0  0
 45 58  1  0  0  0  0
 58 59  2  0  0  0  0
 59 60  1  0  0  0  0
 59 61  1  0  0  0  0
 61 62  1  0  0  0  0
 62 63  1  0  0  0  0
 63 64  2  0  0  0  0
 64 65  1  0  0  0  0
 65 66  1  0  0  0  0
 66 67  1  0  0  0  0
 67 68  2  0  0  0  0
 67 69  1  0  0  0  0
 66 70  2  0  0  0  0
 70 71  1  0  0  0  0
 71 72  2  0  0  0  0
 63 73  1  0  0  0  0
 73 74  2  0  0  0  0
 74 75  1  0  0  0  0
 75 76  1  0  0  0  0
 76 77  1  0  0  0  0
 77 78  2  0  0  0  0
 78 79  1  0  0  0  0
 79 80  1  0  0  0  0
 80 81  1  0  0  0  0
 81 82  2  0  0  0  0
 81 83  1  0  0  0  0
 80 84  2  0  0  0  0
 84 85  1  0  0  0  0
 85 86  2  0  0  0  0
 77 87  1  0  0  0  0
 87 88  2  0  0  0  0
 88 89  1  0  0  0  0
 89 90  2  0  0  0  0
 90 91  1  0  0  0  0
 91 92  2  0  0  0  0
 92 93  1  0  0  0  0
 93 94  1  0  0  0  0
 94 95  1  0  0  0  0
 95 96  1  0  0  0  0
 96 97  1  0  0  0  0
 95 98  2  0  0  0  0
 98 99  1  0  0  0  0
 98100  1  0  0  0  0
100101  1  0  0  0  0
 92102  1  0  0  0  0
102103  2  0  0  0  0
103104  1  0  0  0  0
104105  1  0  0  0  0
105106  1  0  0  0  0
106107  1  0  0  0  0
107108  1  0  0  0  0
108109  1  0  0  0  0
107110  2  0  0  0  0
110111  1  0  0  0  0
111112  1  0  0  0  0
110113  1  0  0  0  0
104114  2  0  0  0  0
114115  1  0  0  0  0
103116  1  0  0  0  0
116117  2  0  0  0  0
117118  1  0  0  0  0
117119  1  0  0  0  0
119120  2  0  0  0  0
120121  1  0  0  0  0
121122  2  0  0  0  0
122123  1  0  0  0  0
123124  1  0  0  0  0
124125  1  0  0  0  0
125126  1  0  0  0  0
126127  1  0  0  0  0
125128  2  0  0  0  0
128129  1  0  0  0  0
128130  1  0  0  0  0
130131  1  0  0  0  0
122132  1  0  0  0  0
132133  2  0  0  0  0
133134  1  0  0  0  0
134135  1  0  0  0  0
135136  1  0  0  0  0
136137  1  0  0  0  0
137138  1  0  0  0  0
138139  1  0  0  0  0
137140  2  0  0  0  0
140141  1  0  0  0  0
141142  1  0  0  0  0
140143  1  0  0  0  0
134144  2  0  0  0  0
144145  1  0  0  0  0
133146  1  0  0  0  0
146147  2  0  0  0  0
147148  1  0  0  0  0
 27  1  1  0  0  0  0
 57 31  1  0  0  0  0
 65 61  2  0  0  0  0
 79 75  2  0  0  0  0
115 89  1  0  0  0  0
145119  1  0  0  0  0
 26  3  1  0  0  0  0
 56 33  1  0  0  0  0
 72 64  1  0  0  0  0
 86 78  1  0  0  0  0
114 91  1  0  0  0  0
144121  1  0  0  0  0
 12  5  2  0  0  0  0
 30 14  1  0  0  0  0
 42 35  2  0  0  0  0
 60 44  1  0  0  0  0
100 93  2  0  0  0  0
118102  1  0  0  0  0
130123  2  0  0  0  0
148132  1  0  0  0  0
 23 17  2  0  0  0  0
 53 47  2  0  0  0  0
111105  2  0  0  0  0
141135  2  0  0  0  0
  1149  1  0  0  0  0
  2150  1  0  0  0  0
  8151  1  0  0  0  0
  8152  1  0  0  0  0
  9153  1  0  0  0  0
  9154  1  0  0  0  0
  9155  1  0  0  0  0
 20156  1  0  0  0  0
 20157  1  0  0  0  0
 21158  1  0  0  0  0
 21159  1  0  0  0  0
 21160  1  0  0  0  0
 28161  1  0  0  0  0
 32162  1  0  0  0  0
 38163  1  0  0  0  0
 38164  1  0  0  0  0
 39165  1  0  0  0  0
 39166  1  0  0  0  0
 39167  1  0  0  0  0
 50168  1  0  0  0  0
 50169  1  0  0  0  0
 51170  1  0  0  0  0
 51171  1  0  0  0  0
 51172  1  0  0  0  0
 58173  1  0  0  0  0
 69174  1  0  0  0  0
 69175  1  0  0  0  0
 69176  1  0  0  0  0
 70177  1  0  0  0  0
 71178  1  0  0  0  0
 72179  1  0  0  0  0
 73180  1  0  0  0  0
 74181  1  0  0  0  0
 83182  1  0  0  0  0
 83183  1  0  0  0  0
 83184  1  0  0  0  0
 84185  1  0  0  0  0
 85186  1  0  0  0  0
 86187  1  0  0  0  0
 87188  1  0  0  0  0
 88189  1  0  0  0  0
 90190  1  0  0  0  0
 96191  1  0  0  0  0
 96192  1  0  0  0  0
 97193  1  0  0  0  0
 97194  1  0  0  0  0
 97195  1  0  0  0  0
108196  1  0  0  0  0
108197  1  0  0  0  0
109198  1  0  0  0  0
109199  1  0  0  0  0
109200  1  0  0  0  0
116201  1  0  0  0  0
120202  1  0  0  0  0
126203  1  0  0  0  0
126204  1  0  0  0  0
127205  1  0  0  0  0
127206  1  0  0  0  0
127207  1  0  0  0  0
138208  1  0  0  0  0
138209  1  0  0  0  0
139210  1  0  0  0  0
139211  1  0  0  0  0
139212  1  0  0  0  0
146213  1  0  0  0  0
147214  1  0  0  0  0
M  END
