
  xtb     03022204413D
 energy: -460.560390311680 gnorm: 0.000408301924 xtb: 6.4.1 (unknown)
234260  0     0  0            999 V2000
    1.6737  -11.7017   10.3099 C   0  0  0  0  0  0  0  0  0  0  0  0
    0.9853  -10.5774   10.5937 C   0  0  0  0  0  0  0  0  0  0  0  0
    0.5931   -9.8597    9.4263 C   0  0  0  0  0  0  0  0  0  0  0  0
   -0.0932   -8.6374    9.3469 C   0  0  0  0  0  0  0  0  0  0  0  0
   -0.4417   -7.8868   10.5428 C   0  0  0  0  0  0  0  0  0  0  0  0
   -2.0701   -7.3621   10.8472 S   0  0  0  0  0  0  0  0  0  0  0  0
   -1.6279   -6.5992   12.3361 C   0  0  0  0  0  0  0  0  0  0  0  0
   -2.6494   -5.9495   13.2026 C   0  0  0  0  0  0  0  0  0  0  0  0
   -3.3493   -6.9807   14.0909 C   0  0  0  0  0  0  0  0  0  0  0  0
   -0.2939   -6.7529   12.5704 C   0  0  0  0  0  0  0  0  0  0  0  0
    0.5153   -6.1291   13.9496 Cl  0  0  0  0  0  0  0  0  0  0  0  0
    0.3831   -7.4783   11.5537 C   0  0  0  0  0  0  0  0  0  0  0  0
    2.0806   -7.7339   11.5741 Cl  0  0  0  0  0  0  0  0  0  0  0  0
   -0.3983   -8.1660    8.0770 C   0  0  0  0  0  0  0  0  0  0  0  0
   -0.0135   -8.8462    6.8973 C   0  0  0  0  0  0  0  0  0  0  0  0
    0.7039  -10.0518    6.9732 C   0  0  0  0  0  0  0  0  0  0  0  0
    1.1310  -10.7288    5.7593 C   0  0  0  0  0  0  0  0  0  0  0  0
    2.0358   -9.8753    4.5422 S   0  0  0  0  0  0  0  0  0  0  0  0
    2.0925  -11.2559    3.5004 C   0  0  0  0  0  0  0  0  0  0  0  0
    2.7149  -11.1655    2.1509 C   0  0  0  0  0  0  0  0  0  0  0  0
    1.8228  -10.3755    1.1898 C   0  0  0  0  0  0  0  0  0  0  0  0
    1.4497  -12.3091    4.0782 C   0  0  0  0  0  0  0  0  0  0  0  0
    0.9088  -12.0169    5.3608 C   0  0  0  0  0  0  0  0  0  0  0  0
   -0.0092  -13.1581    6.2496 Cl  0  0  0  0  0  0  0  0  0  0  0  0
    1.2870  -13.8529    3.3467 Cl  0  0  0  0  0  0  0  0  0  0  0  0
    0.9876  -10.5343    8.2446 C   0  0  0  0  0  0  0  0  0  0  0  0
    1.8801  -11.9807    8.6165 S   0  0  0  0  0  0  0  0  0  0  0  0
   -0.4407   -8.1631    5.7340 C   0  0  0  0  0  0  0  0  0  0  0  0
   -1.0927   -6.9955    5.9938 C   0  0  0  0  0  0  0  0  0  0  0  0
   -1.2367   -6.6819    7.7109 S   0  0  0  0  0  0  0  0  0  0  0  0
   -1.5971   -6.0853    5.0200 C   0  0  0  0  0  0  0  0  0  0  0  0
   -2.2087   -4.8818    5.2045 C   0  0  0  0  0  0  0  0  0  0  0  0
   -2.5400   -4.2274    3.9915 C   0  0  0  0  0  0  0  0  0  0  0  0
   -3.1592   -2.9773    3.8133 C   0  0  0  0  0  0  0  0  0  0  0  0
   -3.6307   -2.2050    4.9491 C   0  0  0  0  0  0  0  0  0  0  0  0
   -3.1571   -0.5461    5.1716 S   0  0  0  0  0  0  0  0  0  0  0  0
   -4.0612   -0.4034    6.6400 C   0  0  0  0  0  0  0  0  0  0  0  0
   -4.0455    0.8539    7.4370 C   0  0  0  0  0  0  0  0  0  0  0  0
   -2.8206    0.9066    8.3533 C   0  0  0  0  0  0  0  0  0  0  0  0
   -4.6822   -1.5813    6.9302 C   0  0  0  0  0  0  0  0  0  0  0  0
   -5.6728   -1.8266    8.3096 Cl  0  0  0  0  0  0  0  0  0  0  0  0
   -4.4439   -2.6042    5.9731 C   0  0  0  0  0  0  0  0  0  0  0  0
   -5.1818   -4.1511    6.0732 Cl  0  0  0  0  0  0  0  0  0  0  0  0
   -3.2605   -2.5044    2.5123 C   0  0  0  0  0  0  0  0  0  0  0  0
   -2.7912   -3.2250    1.3870 C   0  0  0  0  0  0  0  0  0  0  0  0
   -2.2376   -4.5056    1.5571 C   0  0  0  0  0  0  0  0  0  0  0  0
   -1.7576   -5.2863    0.4312 C   0  0  0  0  0  0  0  0  0  0  0  0
   -0.1613   -5.9736    0.4390 S   0  0  0  0  0  0  0  0  0  0  0  0
   -0.3758   -6.6880   -1.1196 C   0  0  0  0  0  0  0  0  0  0  0  0
    0.6900   -7.5134   -1.7555 C   0  0  0  0  0  0  0  0  0  0  0  0
    2.0883   -7.0915   -1.3206 C   0  0  0  0  0  0  0  0  0  0  0  0
   -1.6179   -6.4012   -1.6053 C   0  0  0  0  0  0  0  0  0  0  0  0
   -2.4034   -5.6034   -0.7320 C   0  0  0  0  0  0  0  0  0  0  0  0
   -4.0259   -5.1682   -1.0861 Cl  0  0  0  0  0  0  0  0  0  0  0  0
   -2.1988   -6.9505   -3.1251 Cl  0  0  0  0  0  0  0  0  0  0  0  0
   -2.1162   -4.9669    2.8608 C   0  0  0  0  0  0  0  0  0  0  0  0
   -1.3951   -6.4787    3.3243 S   0  0  0  0  0  0  0  0  0  0  0  0
   -2.8941   -2.4675    0.1952 C   0  0  0  0  0  0  0  0  0  0  0  0
   -3.4712   -1.2464    0.3757 C   0  0  0  0  0  0  0  0  0  0  0  0
   -3.9249   -0.9641    2.0455 S   0  0  0  0  0  0  0  0  0  0  0  0
   -3.6425   -0.2136   -0.5930 C   0  0  0  0  0  0  0  0  0  0  0  0
   -4.3765    0.9296   -0.4815 C   0  0  0  0  0  0  0  0  0  0  0  0
   -4.2563    1.7899   -1.6005 C   0  0  0  0  0  0  0  0  0  0  0  0
   -4.8810    3.0325   -1.8196 C   0  0  0  0  0  0  0  0  0  0  0  0
   -5.8250    3.5980   -0.8708 C   0  0  0  0  0  0  0  0  0  0  0  0
   -5.4439    3.7903    0.8164 S   0  0  0  0  0  0  0  0  0  0  0  0
   -6.9715    4.5265    1.1634 C   0  0  0  0  0  0  0  0  0  0  0  0
   -7.2928    5.0171    2.5314 C   0  0  0  0  0  0  0  0  0  0  0  0
   -6.5732    6.3355    2.8244 C   0  0  0  0  0  0  0  0  0  0  0  0
   -7.7209    4.6098    0.0290 C   0  0  0  0  0  0  0  0  0  0  0  0
   -9.2968    5.2848   -0.0313 Cl  0  0  0  0  0  0  0  0  0  0  0  0
   -7.0811    4.0772   -1.1238 C   0  0  0  0  0  0  0  0  0  0  0  0
   -7.8647    3.9718   -2.6470 Cl  0  0  0  0  0  0  0  0  0  0  0  0
   -4.5505    3.7050   -2.9895 C   0  0  0  0  0  0  0  0  0  0  0  0
   -3.6880    3.1604   -3.9728 C   0  0  0  0  0  0  0  0  0  0  0  0
   -3.1073    1.8943   -3.7801 C   0  0  0  0  0  0  0  0  0  0  0  0
   -2.2447    1.3099   -4.7918 C   0  0  0  0  0  0  0  0  0  0  0  0
   -0.6424    0.7491   -4.4140 S   0  0  0  0  0  0  0  0  0  0  0  0
   -0.3409    0.2737   -6.0532 C   0  0  0  0  0  0  0  0  0  0  0  0
    0.9676   -0.3120   -6.4542 C   0  0  0  0  0  0  0  0  0  0  0  0
    2.1097    0.6724   -6.2094 C   0  0  0  0  0  0  0  0  0  0  0  0
   -1.4264    0.5424   -6.8313 C   0  0  0  0  0  0  0  0  0  0  0  0
   -2.5091    1.1280   -6.1208 C   0  0  0  0  0  0  0  0  0  0  0  0
   -4.0148    1.4888   -6.8625 Cl  0  0  0  0  0  0  0  0  0  0  0  0
   -1.5114    0.2093   -8.5123 Cl  0  0  0  0  0  0  0  0  0  0  0  0
   -3.3858    1.2544   -2.5823 C   0  0  0  0  0  0  0  0  0  0  0  0
   -2.7637   -0.2988   -2.1074 S   0  0  0  0  0  0  0  0  0  0  0  0
   -3.4736    4.0566   -5.0383 C   0  0  0  0  0  0  0  0  0  0  0  0
   -4.1365    5.2494   -4.9135 C   0  0  0  0  0  0  0  0  0  0  0  0
   -5.0438    5.3175   -3.4181 S   0  0  0  0  0  0  0  0  0  0  0  0
   -3.9603    6.3585   -5.7878 C   0  0  0  0  0  0  0  0  0  0  0  0
   -2.5894    6.2594   -6.8461 S   0  0  0  0  0  0  0  0  0  0  0  0
   -2.6242    7.9388   -7.2256 C   0  0  0  0  0  0  0  0  0  0  0  0
   -3.7506    8.5371   -6.6522 C   0  0  0  0  0  0  0  0  0  0  0  0
   -4.5364    7.6317   -5.8620 C   0  0  0  0  0  0  0  0  0  0  0  0
   -5.7528    8.0997   -5.2913 C   0  0  0  0  0  0  0  0  0  0  0  0
   -6.8085    7.1588   -4.8280 C   0  0  0  0  0  0  0  0  0  0  0  0
   -7.0592    6.1531   -5.4516 O   0  0  0  0  0  0  0  0  0  0  0  0
   -7.5911    7.5794   -3.6099 C   0  0  0  0  0  0  0  0  0  0  0  0
   -6.0498    9.4395   -5.3847 C   0  0  0  0  0  0  0  0  0  0  0  0
   -5.2209   10.3387   -6.0775 C   0  0  0  0  0  0  0  0  0  0  0  0
   -4.1071    9.8978   -6.7318 C   0  0  0  0  0  0  0  0  0  0  0  0
   -1.6234    8.5474   -8.0474 C   0  0  0  0  0  0  0  0  0  0  0  0
   -0.3218    8.1954   -8.1299 C   0  0  0  0  0  0  0  0  0  0  0  0
    0.3935    7.2893   -7.2735 C   0  0  0  0  0  0  0  0  0  0  0  0
    1.5003    6.5583   -7.5938 C   0  0  0  0  0  0  0  0  0  0  0  0
    1.9924    5.7599   -6.5290 C   0  0  0  0  0  0  0  0  0  0  0  0
    3.0574    4.8432   -6.5395 C   0  0  0  0  0  0  0  0  0  0  0  0
    3.9399    4.7185   -7.6851 C   0  0  0  0  0  0  0  0  0  0  0  0
    4.3073    3.1698   -8.3859 S   0  0  0  0  0  0  0  0  0  0  0  0
    5.3551    3.8676   -9.5728 C   0  0  0  0  0  0  0  0  0  0  0  0
    6.0222    3.0222  -10.6004 C   0  0  0  0  0  0  0  0  0  0  0  0
    5.0558    2.6642  -11.7316 C   0  0  0  0  0  0  0  0  0  0  0  0
    5.4012    5.2221   -9.4272 C   0  0  0  0  0  0  0  0  0  0  0  0
    6.3393    6.2623  -10.4191 Cl  0  0  0  0  0  0  0  0  0  0  0  0
    4.6029    5.7084   -8.3573 C   0  0  0  0  0  0  0  0  0  0  0  0
    4.5617    7.3667   -7.9173 Cl  0  0  0  0  0  0  0  0  0  0  0  0
    3.2251    4.0600   -5.4031 C   0  0  0  0  0  0  0  0  0  0  0  0
    2.3820    4.1445   -4.2686 C   0  0  0  0  0  0  0  0  0  0  0  0
    1.3661    5.1178   -4.2247 C   0  0  0  0  0  0  0  0  0  0  0  0
    0.4770    5.2684   -3.0869 C   0  0  0  0  0  0  0  0  0  0  0  0
   -0.3627    3.9066   -2.3939 S   0  0  0  0  0  0  0  0  0  0  0  0
   -1.2239    4.9024   -1.2721 C   0  0  0  0  0  0  0  0  0  0  0  0
   -2.1561    4.3273   -0.2651 C   0  0  0  0  0  0  0  0  0  0  0  0
   -1.6134    4.4688    1.1582 C   0  0  0  0  0  0  0  0  0  0  0  0
   -0.8771    6.2094   -1.4397 C   0  0  0  0  0  0  0  0  0  0  0  0
    0.0909    6.4209   -2.4560 C   0  0  0  0  0  0  0  0  0  0  0  0
    0.7747    7.9658   -2.7401 Cl  0  0  0  0  0  0  0  0  0  0  0  0
   -1.5536    7.5001   -0.5368 Cl  0  0  0  0  0  0  0  0  0  0  0  0
    1.2143    5.9131   -5.3547 C   0  0  0  0  0  0  0  0  0  0  0  0
   -0.0243    7.1055   -5.5796 S   0  0  0  0  0  0  0  0  0  0  0  0
    2.7482    3.2108   -3.2688 C   0  0  0  0  0  0  0  0  0  0  0  0
    3.8375    2.4592   -3.6012 C   0  0  0  0  0  0  0  0  0  0  0  0
    4.4802    2.8774   -5.1732 S   0  0  0  0  0  0  0  0  0  0  0  0
    4.4517    1.4325   -2.8183 C   0  0  0  0  0  0  0  0  0  0  0  0
    3.9009    0.7507   -1.7736 C   0  0  0  0  0  0  0  0  0  0  0  0
    4.7896   -0.1762   -1.1716 C   0  0  0  0  0  0  0  0  0  0  0  0
    4.5647   -1.0127   -0.0625 C   0  0  0  0  0  0  0  0  0  0  0  0
    3.2902   -1.0247    0.6342 C   0  0  0  0  0  0  0  0  0  0  0  0
    2.5241    0.4563    1.1386 S   0  0  0  0  0  0  0  0  0  0  0  0
    1.1960   -0.3775    1.8692 C   0  0  0  0  0  0  0  0  0  0  0  0
    0.0304    0.3640    2.4219 C   0  0  0  0  0  0  0  0  0  0  0  0
   -0.8483    0.8693    1.2754 C   0  0  0  0  0  0  0  0  0  0  0  0
    1.3527   -1.7226    1.7260 C   0  0  0  0  0  0  0  0  0  0  0  0
    0.2545   -2.8845    2.3508 Cl  0  0  0  0  0  0  0  0  0  0  0  0
    2.5299   -2.0944    1.0226 C   0  0  0  0  0  0  0  0  0  0  0  0
    2.8501   -3.7257    0.6142 Cl  0  0  0  0  0  0  0  0  0  0  0  0
    5.6299   -1.8073    0.3525 C   0  0  0  0  0  0  0  0  0  0  0  0
    6.8853   -1.8196   -0.3032 C   0  0  0  0  0  0  0  0  0  0  0  0
    7.1052   -0.9908   -1.4124 C   0  0  0  0  0  0  0  0  0  0  0  0
    8.3972   -0.9331   -2.0779 C   0  0  0  0  0  0  0  0  0  0  0  0
    8.5463   -1.1880   -3.7904 S   0  0  0  0  0  0  0  0  0  0  0  0
   10.2587   -0.9395   -3.7561 C   0  0  0  0  0  0  0  0  0  0  0  0
   11.0639   -0.9733   -5.0077 C   0  0  0  0  0  0  0  0  0  0  0  0
   10.9205    0.3393   -5.7816 C   0  0  0  0  0  0  0  0  0  0  0  0
   10.6729   -0.6640   -2.4873 C   0  0  0  0  0  0  0  0  0  0  0  0
    9.6209   -0.6647   -1.5318 C   0  0  0  0  0  0  0  0  0  0  0  0
    9.8735   -0.2829    0.1227 Cl  0  0  0  0  0  0  0  0  0  0  0  0
   12.3040   -0.3475   -2.0573 Cl  0  0  0  0  0  0  0  0  0  0  0  0
    6.0451   -0.1954   -1.8260 C   0  0  0  0  0  0  0  0  0  0  0  0
    6.0968    0.9366   -3.1455 S   0  0  0  0  0  0  0  0  0  0  0  0
    7.7958   -2.7256    0.3145 C   0  0  0  0  0  0  0  0  0  0  0  0
    7.2766   -3.3229    1.4060 C   0  0  0  0  0  0  0  0  0  0  0  0
    5.6487   -2.8527    1.7442 S   0  0  0  0  0  0  0  0  0  0  0  0
    2.0822  -12.4148   10.9990 H   0  0  0  0  0  0  0  0  0  0  0  0
    0.7474  -10.2604   11.5920 H   0  0  0  0  0  0  0  0  0  0  0  0
   -3.3890   -5.4482   12.5763 H   0  0  0  0  0  0  0  0  0  0  0  0
   -2.1547   -5.2035   13.8274 H   0  0  0  0  0  0  0  0  0  0  0  0
   -4.0897   -6.4917   14.7181 H   0  0  0  0  0  0  0  0  0  0  0  0
   -2.6259   -7.4798   14.7306 H   0  0  0  0  0  0  0  0  0  0  0  0
   -3.8480   -7.7287   13.4793 H   0  0  0  0  0  0  0  0  0  0  0  0
    3.6851  -10.6707    2.2296 H   0  0  0  0  0  0  0  0  0  0  0  0
    2.8680  -12.1760    1.7689 H   0  0  0  0  0  0  0  0  0  0  0  0
    1.6618   -9.3675    1.5658 H   0  0  0  0  0  0  0  0  0  0  0  0
    2.2931  -10.3140    0.2119 H   0  0  0  0  0  0  0  0  0  0  0  0
    0.8576  -10.8646    1.0836 H   0  0  0  0  0  0  0  0  0  0  0  0
   -0.2758   -8.5172    4.7328 H   0  0  0  0  0  0  0  0  0  0  0  0
   -2.3912   -4.4698    6.1803 H   0  0  0  0  0  0  0  0  0  0  0  0
   -4.9546    0.8968    8.0394 H   0  0  0  0  0  0  0  0  0  0  0  0
   -4.0306    1.7106    6.7611 H   0  0  0  0  0  0  0  0  0  0  0  0
   -2.8282    0.0651    9.0412 H   0  0  0  0  0  0  0  0  0  0  0  0
   -2.8251    1.8277    8.9296 H   0  0  0  0  0  0  0  0  0  0  0  0
   -1.9075    0.8665    7.7642 H   0  0  0  0  0  0  0  0  0  0  0  0
    0.5287   -8.5634   -1.4890 H   0  0  0  0  0  0  0  0  0  0  0  0
    0.5875   -7.4315   -2.8400 H   0  0  0  0  0  0  0  0  0  0  0  0
    2.8370   -7.7079   -1.8113 H   0  0  0  0  0  0  0  0  0  0  0  0
    2.2701   -6.0516   -1.5799 H   0  0  0  0  0  0  0  0  0  0  0  0
    2.1990   -7.2001   -0.2441 H   0  0  0  0  0  0  0  0  0  0  0  0
   -2.5317   -2.8014   -0.7600 H   0  0  0  0  0  0  0  0  0  0  0  0
   -4.9826    1.1436    0.3799 H   0  0  0  0  0  0  0  0  0  0  0  0
   -8.3719    5.1620    2.6041 H   0  0  0  0  0  0  0  0  0  0  0  0
   -6.9900    4.2686    3.2663 H   0  0  0  0  0  0  0  0  0  0  0  0
   -5.4963    6.2006    2.7555 H   0  0  0  0  0  0  0  0  0  0  0  0
   -6.8196    6.6809    3.8247 H   0  0  0  0  0  0  0  0  0  0  0  0
   -6.8746    7.0965    2.1092 H   0  0  0  0  0  0  0  0  0  0  0  0
    1.1492   -1.2223   -5.8774 H   0  0  0  0  0  0  0  0  0  0  0  0
    0.9185   -0.5769   -7.5112 H   0  0  0  0  0  0  0  0  0  0  0  0
    1.9585    1.5819   -6.7862 H   0  0  0  0  0  0  0  0  0  0  0  0
    2.1511    0.9307   -5.1539 H   0  0  0  0  0  0  0  0  0  0  0  0
    3.0596    0.2338   -6.5019 H   0  0  0  0  0  0  0  0  0  0  0  0
   -2.8300    3.8388   -5.8713 H   0  0  0  0  0  0  0  0  0  0  0  0
   -6.9557    8.0947   -2.8952 H   0  0  0  0  0  0  0  0  0  0  0  0
   -8.0411    6.7036   -3.1506 H   0  0  0  0  0  0  0  0  0  0  0  0
   -8.3957    8.2465   -3.9156 H   0  0  0  0  0  0  0  0  0  0  0  0
   -6.9727    9.8119   -4.9679 H   0  0  0  0  0  0  0  0  0  0  0  0
   -5.5033   11.3796   -6.1235 H   0  0  0  0  0  0  0  0  0  0  0  0
   -3.4991   10.5731   -7.3135 H   0  0  0  0  0  0  0  0  0  0  0  0
   -1.9691    9.3578   -8.6774 H   0  0  0  0  0  0  0  0  0  0  0  0
    0.2853    8.6629   -8.8949 H   0  0  0  0  0  0  0  0  0  0  0  0
    1.9173    6.5408   -8.5844 H   0  0  0  0  0  0  0  0  0  0  0  0
    6.8740    3.5720  -11.0045 H   0  0  0  0  0  0  0  0  0  0  0  0
    6.3869    2.1059  -10.1325 H   0  0  0  0  0  0  0  0  0  0  0  0
    4.2028    2.1162  -11.3386 H   0  0  0  0  0  0  0  0  0  0  0  0
    4.6954    3.5658  -12.2200 H   0  0  0  0  0  0  0  0  0  0  0  0
    5.5587    2.0459  -12.4700 H   0  0  0  0  0  0  0  0  0  0  0  0
   -3.1119    4.8518   -0.3319 H   0  0  0  0  0  0  0  0  0  0  0  0
   -2.3224    3.2741   -0.4910 H   0  0  0  0  0  0  0  0  0  0  0  0
   -1.4900    5.5165    1.4149 H   0  0  0  0  0  0  0  0  0  0  0  0
   -2.3114    4.0178    1.8580 H   0  0  0  0  0  0  0  0  0  0  0  0
   -0.6505    3.9741    1.2515 H   0  0  0  0  0  0  0  0  0  0  0  0
    2.2357    3.1146   -2.3303 H   0  0  0  0  0  0  0  0  0  0  0  0
    2.8864    0.8989   -1.4552 H   0  0  0  0  0  0  0  0  0  0  0  0
   -0.5465   -0.3066    3.0609 H   0  0  0  0  0  0  0  0  0  0  0  0
    0.3726    1.2089    3.0215 H   0  0  0  0  0  0  0  0  0  0  0  0
   -1.7428    1.3448    1.6671 H   0  0  0  0  0  0  0  0  0  0  0  0
   -1.1421    0.0375    0.6411 H   0  0  0  0  0  0  0  0  0  0  0  0
   -0.3018    1.5844    0.6653 H   0  0  0  0  0  0  0  0  0  0  0  0
   12.1110   -1.1345   -4.7460 H   0  0  0  0  0  0  0  0  0  0  0  0
   10.7277   -1.8015   -5.6342 H   0  0  0  0  0  0  0  0  0  0  0  0
    9.8788    0.5105   -6.0425 H   0  0  0  0  0  0  0  0  0  0  0  0
   11.5094    0.3010   -6.6940 H   0  0  0  0  0  0  0  0  0  0  0  0
   11.2682    1.1730   -5.1770 H   0  0  0  0  0  0  0  0  0  0  0  0
    8.7865   -2.9135   -0.0552 H   0  0  0  0  0  0  0  0  0  0  0  0
    7.7474   -4.0365    2.0536 H   0  0  0  0  0  0  0  0  0  0  0  0
  1  2  2  0  0  0  0
  2  3  1  0  0  0  0
  3  4  2  0  0  0  0
  4  5  1  0  0  0  0
  5  6  1  0  0  0  0
  6  7  1  0  0  0  0
  7  8  1  0  0  0  0
  8  9  1  0  0  0  0
  7 10  2  0  0  0  0
 10 11  1  0  0  0  0
 10 12  1  0  0  0  0
 12 13  1  0  0  0  0
  4 14  1  0  0  0  0
 14 15  2  0  0  0  0
 15 16  1  0  0  0  0
 16 17  1  0  0  0  0
 17 18  1  0  0  0  0
 18 19  1  0  0  0  0
 19 20  1  0  0  0  0
 20 21  1  0  0  0  0
 19 22  2  0  0  0  0
 22 23  1  0  0  0  0
 23 24  1  0  0  0  0
 22 25  1  0  0  0  0
 16 26  2  0  0  0  0
 26 27  1  0  0  0  0
 15 28  1  0  0  0  0
 28 29  2  0  0  0  0
 29 30  1  0  0  0  0
 29 31  1  0  0  0  0
 31 32  2  0  0  0  0
 32 33  1  0  0  0  0
 33 34  2  0  0  0  0
 34 35  1  0  0  0  0
 35 36  1  0  0  0  0
 36 37  1  0  0  0  0
 37 38  1  0  0  0  0
 38 39  1  0  0  0  0
 37 40  2  0  0  0  0
 40 41  1  0  0  0  0
 40 42  1  0  0  0  0
 42 43  1  0  0  0  0
 34 44  1  0  0  0  0
 44 45  2  0  0  0  0
 45 46  1  0  0  0  0
 46 47  1  0  0  0  0
 47 48  1  0  0  0  0
 48 49  1  0  0  0  0
 49 50  1  0  0  0  0
 50 51  1  0  0  0  0
 49 52  2  0  0  0  0
 52 53  1  0  0  0  0
 53 54  1  0  0  0  0
 52 55  1  0  0  0  0
 46 56  2  0  0  0  0
 56 57  1  0  0  0  0
 45 58  1  0  0  0  0
 58 59  2  0  0  0  0
 59 60  1  0  0  0  0
 59 61  1  0  0  0  0
 61 62  2  0  0  0  0
 62 63  1  0  0  0  0
 63 64  2  0  0  0  0
 64 65  1  0  0  0  0
 65 66  1  0  0  0  0
 66 67  1  0  0  0  0
 67 68  1  0  0  0  0
 68 69  1  0  0  0  0
 67 70  2  0  0  0  0
 70 71  1  0  0  0  0
 70 72  1  0  0  0  0
 72 73  1  0  0  0  0
 64 74  1  0  0  0  0
 74 75  2  0  0  0  0
 75 76  1  0  0  0  0
 76 77  1  0  0  0  0
 77 78  1  0  0  0  0
 78 79  1  0  0  0  0
 79 80  1  0  0  0  0
 80 81  1  0  0  0  0
 79 82  2  0  0  0  0
 82 83  1  0  0  0  0
 83 84  1  0  0  0  0
 82 85  1  0  0  0  0
 76 86  2  0  0  0  0
 86 87  1  0  0  0  0
 75 88  1  0  0  0  0
 88 89  2  0  0  0  0
 89 90  1  0  0  0  0
 89 91  1  0  0  0  0
 91 92  1  0  0  0  0
 92 93  1  0  0  0  0
 93 94  2  0  0  0  0
 94 95  1  0  0  0  0
 95 96  1  0  0  0  0
 96 97  1  0  0  0  0
 97 98  2  0  0  0  0
 97 99  1  0  0  0  0
 96100  2  0  0  0  0
100101  1  0  0  0  0
101102  2  0  0  0  0
 93103  1  0  0  0  0
103104  2  0  0  0  0
104105  1  0  0  0  0
105106  2  0  0  0  0
106107  1  0  0  0  0
107108  2  0  0  0  0
108109  1  0  0  0  0
109110  1  0  0  0  0
110111  1  0  0  0  0
111112  1  0  0  0  0
112113  1  0  0  0  0
111114  2  0  0  0  0
114115  1  0  0  0  0
114116  1  0  0  0  0
116117  1  0  0  0  0
108118  1  0  0  0  0
118119  2  0  0  0  0
119120  1  0  0  0  0
120121  1  0  0  0  0
121122  1  0  0  0  0
122123  1  0  0  0  0
123124  1  0  0  0  0
124125  1  0  0  0  0
123126  2  0  0  0  0
126127  1  0  0  0  0
127128  1  0  0  0  0
126129  1  0  0  0  0
120130  2  0  0  0  0
130131  1  0  0  0  0
119132  1  0  0  0  0
132133  2  0  0  0  0
133134  1  0  0  0  0
133135  1  0  0  0  0
135136  2  0  0  0  0
136137  1  0  0  0  0
137138  2  0  0  0  0
138139  1  0  0  0  0
139140  1  0  0  0  0
140141  1  0  0  0  0
141142  1  0  0  0  0
142143  1  0  0  0  0
141144  2  0  0  0  0
144145  1  0  0  0  0
144146  1  0  0  0  0
146147  1  0  0  0  0
138148  1  0  0  0  0
148149  2  0  0  0  0
149150  1  0  0  0  0
150151  1  0  0  0  0
151152  1  0  0  0  0
152153  1  0  0  0  0
153154  1  0  0  0  0
154155  1  0  0  0  0
153156  2  0  0  0  0
156157  1  0  0  0  0
157158  1  0  0  0  0
156159  1  0  0  0  0
150160  2  0  0  0  0
160161  1  0  0  0  0
149162  1  0  0  0  0
162163  2  0  0  0  0
163164  1  0  0  0  0
 27  1  1  0  0  0  0
 57 31  1  0  0  0  0
 87 61  1  0  0  0  0
 95 91  2  0  0  0  0
131105  1  0  0  0  0
161135  1  0  0  0  0
 26  3  1  0  0  0  0
 56 33  1  0  0  0  0
 86 63  1  0  0  0  0
102 94  1  0  0  0  0
130107  1  0  0  0  0
160137  1  0  0  0  0
 12  5  2  0  0  0  0
 30 14  1  0  0  0  0
 42 35  2  0  0  0  0
 60 44  1  0  0  0  0
 72 65  2  0  0  0  0
 90 74  1  0  0  0  0
116109  2  0  0  0  0
134118  1  0  0  0  0
146139  2  0  0  0  0
164148  1  0  0  0  0
 23 17  2  0  0  0  0
 53 47  2  0  0  0  0
 83 77  2  0  0  0  0
127121  2  0  0  0  0
157151  2  0  0  0  0
  1165  1  0  0  0  0
  2166  1  0  0  0  0
  8167  1  0  0  0  0
  8168  1  0  0  0  0
  9169  1  0  0  0  0
  9170  1  0  0  0  0
  9171  1  0  0  0  0
 20172  1  0  0  0  0
 20173  1  0  0  0  0
 21174  1  0  0  0  0
 21175  1  0  0  0  0
 21176  1  0  0  0  0
 28177  1  0  0  0  0
 32178  1  0  0  0  0
 38179  1  0  0  0  0
 38180  1  0  0  0  0
 39181  1  0  0  0  0
 39182  1  0  0  0  0
 39183  1  0  0  0  0
 50184  1  0  0  0  0
 50185  1  0  0  0  0
 51186  1  0  0  0  0
 51187  1  0  0  0  0
 51188  1  0  0  0  0
 58189  1  0  0  0  0
 62190  1  0  0  0  0
 68191  1  0  0  0  0
 68192  1  0  0  0  0
 69193  1  0  0  0  0
 69194  1  0  0  0  0
 69195  1  0  0  0  0
 80196  1  0  0  0  0
 80197  1  0  0  0  0
 81198  1  0  0  0  0
 81199  1  0  0  0  0
 81200  1  0  0  0  0
 88201  1  0  0  0  0
 99202  1  0  0  0  0
 99203  1  0  0  0  0
 99204  1  0  0  0  0
100205  1  0  0  0  0
101206  1  0  0  0  0
102207  1  0  0  0  0
103208  1  0  0  0  0
104209  1  0  0  0  0
106210  1  0  0  0  0
112211  1  0  0  0  0
112212  1  0  0  0  0
113213  1  0  0  0  0
113214  1  0  0  0  0
113215  1  0  0  0  0
124216  1  0  0  0  0
124217  1  0  0  0  0
125218  1  0  0  0  0
125219  1  0  0  0  0
125220  1  0  0  0  0
132221  1  0  0  0  0
136222  1  0  0  0  0
142223  1  0  0  0  0
142224  1  0  0  0  0
143225  1  0  0  0  0
143226  1  0  0  0  0
143227  1  0  0  0  0
154228  1  0  0  0  0
154229  1  0  0  0  0
155230  1  0  0  0  0
155231  1  0  0  0  0
155232  1  0  0  0  0
162233  1  0  0  0  0
163234  1  0  0  0  0
M  END
