234

C          1.67370      -11.70170       10.30990
C          0.98530      -10.57740       10.59370
C          0.59310       -9.85970        9.42630
C         -0.09320       -8.63740        9.34690
C         -0.44170       -7.88680       10.54280
S         -2.07010       -7.36210       10.84720
C         -1.62790       -6.59920       12.33610
C         -2.64940       -5.94950       13.20260
C         -3.34930       -6.98070       14.09090
C         -0.29390       -6.75290       12.57040
Cl         0.51530       -6.12910       13.94960
C          0.38310       -7.47830       11.55370
Cl         2.08060       -7.73390       11.57410
C         -0.39830       -8.16600        8.07700
C         -0.01350       -8.84620        6.89730
C          0.70390      -10.05180        6.97320
C          1.13100      -10.72880        5.75930
S          2.03580       -9.87530        4.54220
C          2.09250      -11.25590        3.50040
C          2.71490      -11.16550        2.15090
C          1.82280      -10.37550        1.18980
C          1.44970      -12.30910        4.07820
C          0.90880      -12.01690        5.36080
Cl        -0.00920      -13.15810        6.24960
Cl         1.28700      -13.85290        3.34670
C          0.98760      -10.53430        8.24460
S          1.88010      -11.98070        8.61650
C         -0.44070       -8.16310        5.73400
C         -1.09270       -6.99550        5.99380
S         -1.23670       -6.68190        7.71090
C         -1.59710       -6.08530        5.02000
C         -2.20870       -4.88180        5.20450
C         -2.54000       -4.22740        3.99150
C         -3.15920       -2.97730        3.81330
C         -3.63070       -2.20500        4.94910
S         -3.15710       -0.54610        5.17160
C         -4.06120       -0.40340        6.64000
C         -4.04550        0.85390        7.43700
C         -2.82060        0.90660        8.35330
C         -4.68220       -1.58130        6.93020
Cl        -5.67280       -1.82660        8.30960
C         -4.44390       -2.60420        5.97310
Cl        -5.18180       -4.15110        6.07320
C         -3.26050       -2.50440        2.51230
C         -2.79120       -3.22500        1.38700
C         -2.23760       -4.50560        1.55710
C         -1.75760       -5.28630        0.43120
S         -0.16130       -5.97360        0.43900
C         -0.37580       -6.68800       -1.11960
C          0.69000       -7.51340       -1.75550
C          2.08830       -7.09150       -1.32060
C         -1.61790       -6.40120       -1.60530
C         -2.40340       -5.60340       -0.73200
Cl        -4.02590       -5.16820       -1.08610
Cl        -2.19880       -6.95050       -3.12510
C         -2.11620       -4.96690        2.86080
S         -1.39510       -6.47870        3.32430
C         -2.89410       -2.46750        0.19520
C         -3.47120       -1.24640        0.37570
S         -3.92490       -0.96410        2.04550
C         -3.64250       -0.21360       -0.59300
C         -4.37650        0.92960       -0.48150
C         -4.25630        1.78990       -1.60050
C         -4.88100        3.03250       -1.81960
C         -5.82500        3.59800       -0.87080
S         -5.44390        3.79030        0.81640
C         -6.97150        4.52650        1.16340
C         -7.29280        5.01710        2.53140
C         -6.57320        6.33550        2.82440
C         -7.72090        4.60980        0.02900
Cl        -9.29680        5.28480       -0.03130
C         -7.08110        4.07720       -1.12380
Cl        -7.86470        3.97180       -2.64700
C         -4.55050        3.70500       -2.98950
C         -3.68800        3.16040       -3.97280
C         -3.10730        1.89430       -3.78010
C         -2.24470        1.30990       -4.79180
S         -0.64240        0.74910       -4.41400
C         -0.34090        0.27370       -6.05320
C          0.96760       -0.31200       -6.45420
C          2.10970        0.67240       -6.20940
C         -1.42640        0.54240       -6.83130
C         -2.50910        1.12800       -6.12080
Cl        -4.01480        1.48880       -6.86250
Cl        -1.51140        0.20930       -8.51230
C         -3.38580        1.25440       -2.58230
S         -2.76370       -0.29880       -2.10740
C         -3.47360        4.05660       -5.03830
C         -4.13650        5.24940       -4.91350
S         -5.04380        5.31750       -3.41810
C         -3.96030        6.35850       -5.78780
S         -2.58940        6.25940       -6.84610
C         -2.62420        7.93880       -7.22560
C         -3.75060        8.53710       -6.65220
C         -4.53640        7.63170       -5.86200
C         -5.75280        8.09970       -5.29130
C         -6.80850        7.15880       -4.82800
O         -7.05920        6.15310       -5.45160
C         -7.59110        7.57940       -3.60990
C         -6.04980        9.43950       -5.38470
C         -5.22090       10.33870       -6.07750
C         -4.10710        9.89780       -6.73180
C         -1.62340        8.54740       -8.04740
C         -0.32180        8.19540       -8.12990
C          0.39350        7.28930       -7.27350
C          1.50030        6.55830       -7.59380
C          1.99240        5.75990       -6.52900
C          3.05740        4.84320       -6.53950
C          3.93990        4.71850       -7.68510
S          4.30730        3.16980       -8.38590
C          5.35510        3.86760       -9.57280
C          6.02220        3.02220      -10.60040
C          5.05580        2.66420      -11.73160
C          5.40120        5.22210       -9.42720
Cl         6.33930        6.26230      -10.41910
C          4.60290        5.70840       -8.35730
Cl         4.56170        7.36670       -7.91730
C          3.22510        4.06000       -5.40310
C          2.38200        4.14450       -4.26860
C          1.36610        5.11780       -4.22470
C          0.47700        5.26840       -3.08690
S         -0.36270        3.90660       -2.39390
C         -1.22390        4.90240       -1.27210
C         -2.15610        4.32730       -0.26510
C         -1.61340        4.46880        1.15820
C         -0.87710        6.20940       -1.43970
C          0.09090        6.42090       -2.45600
Cl         0.77470        7.96580       -2.74010
Cl        -1.55360        7.50010       -0.53680
C          1.21430        5.91310       -5.35470
S         -0.02430        7.10550       -5.57960
C          2.74820        3.21080       -3.26880
C          3.83750        2.45920       -3.60120
S          4.48020        2.87740       -5.17320
C          4.45170        1.43250       -2.81830
C          3.90090        0.75070       -1.77360
C          4.78960       -0.17620       -1.17160
C          4.56470       -1.01270       -0.06250
C          3.29020       -1.02470        0.63420
S          2.52410        0.45630        1.13860
C          1.19600       -0.37750        1.86920
C          0.03040        0.36400        2.42190
C         -0.84830        0.86930        1.27540
C          1.35270       -1.72260        1.72600
Cl         0.25450       -2.88450        2.35080
C          2.52990       -2.09440        1.02260
Cl         2.85010       -3.72570        0.61420
C          5.62990       -1.80730        0.35250
C          6.88530       -1.81960       -0.30320
C          7.10520       -0.99080       -1.41240
C          8.39720       -0.93310       -2.07790
S          8.54630       -1.18800       -3.79040
C         10.25870       -0.93950       -3.75610
C         11.06390       -0.97330       -5.00770
C         10.92050        0.33930       -5.78160
C         10.67290       -0.66400       -2.48730
C          9.62090       -0.66470       -1.53180
Cl         9.87350       -0.28290        0.12270
Cl        12.30400       -0.34750       -2.05730
C          6.04510       -0.19540       -1.82600
S          6.09680        0.93660       -3.14550
C          7.79580       -2.72560        0.31450
C          7.27660       -3.32290        1.40600
S          5.64870       -2.85270        1.74420
H          2.08220      -12.41480       10.99900
H          0.74740      -10.26040       11.59200
H         -3.38900       -5.44820       12.57630
H         -2.15470       -5.20350       13.82740
H         -4.08970       -6.49170       14.71810
H         -2.62590       -7.47980       14.73060
H         -3.84800       -7.72870       13.47930
H          3.68510      -10.67070        2.22960
H          2.86800      -12.17600        1.76890
H          1.66180       -9.36750        1.56580
H          2.29310      -10.31400        0.21190
H          0.85760      -10.86460        1.08360
H         -0.27580       -8.51720        4.73280
H         -2.39120       -4.46980        6.18030
H         -4.95460        0.89680        8.03940
H         -4.03060        1.71060        6.76110
H         -2.82820        0.06510        9.04120
H         -2.82510        1.82770        8.92960
H         -1.90750        0.86650        7.76420
H          0.52870       -8.56340       -1.48900
H          0.58750       -7.43150       -2.84000
H          2.83700       -7.70790       -1.81130
H          2.27010       -6.05160       -1.57990
H          2.19900       -7.20010       -0.24410
H         -2.53170       -2.80140       -0.76000
H         -4.98260        1.14360        0.37990
H         -8.37190        5.16200        2.60410
H         -6.99000        4.26860        3.26630
H         -5.49630        6.20060        2.75550
H         -6.81960        6.68090        3.82470
H         -6.87460        7.09650        2.10920
H          1.14920       -1.22230       -5.87740
H          0.91850       -0.57690       -7.51120
H          1.95850        1.58190       -6.78620
H          2.15110        0.93070       -5.15390
H          3.05960        0.23380       -6.50190
H         -2.83000        3.83880       -5.87130
H         -6.95570        8.09470       -2.89520
H         -8.04110        6.70360       -3.15060
H         -8.39570        8.24650       -3.91560
H         -6.97270        9.81190       -4.96790
H         -5.50330       11.37960       -6.12350
H         -3.49910       10.57310       -7.31350
H         -1.96910        9.35780       -8.67740
H          0.28530        8.66290       -8.89490
H          1.91730        6.54080       -8.58440
H          6.87400        3.57200      -11.00450
H          6.38690        2.10590      -10.13250
H          4.20280        2.11620      -11.33860
H          4.69540        3.56580      -12.22000
H          5.55870        2.04590      -12.47000
H         -3.11190        4.85180       -0.33190
H         -2.32240        3.27410       -0.49100
H         -1.49000        5.51650        1.41490
H         -2.31140        4.01780        1.85800
H         -0.65050        3.97410        1.25150
H          2.23570        3.11460       -2.33030
H          2.88640        0.89890       -1.45520
H         -0.54650       -0.30660        3.06090
H          0.37260        1.20890        3.02150
H         -1.74280        1.34480        1.66710
H         -1.14210        0.03750        0.64110
H         -0.30180        1.58440        0.66530
H         12.11100       -1.13450       -4.74600
H         10.72770       -1.80150       -5.63420
H          9.87880        0.51050       -6.04250
H         11.50940        0.30100       -6.69400
H         11.26820        1.17300       -5.17700
H          8.78650       -2.91350       -0.05520
H          7.74740       -4.03650        2.05360
