235

C          3.94660       -2.85650       10.03370
C          4.48070       -2.68020        8.80880
C          3.93200       -1.56030        8.11560
C          4.24720       -1.07470        6.83400
C          5.25730       -1.69930        5.99590
S          4.88800       -2.10560        4.34400
C          6.43290       -2.83120        4.08630
C          6.79180       -3.41490        2.76510
C          7.26740       -2.32990        1.79650
C          7.19680       -2.72490        5.20990
Cl         8.79630       -3.33190        5.33700
C          6.53670       -2.08300        6.29240
Cl         7.33340       -1.75870        7.77800
C          3.50380        0.00770        6.37550
C          2.49640        0.63770        7.14490
C          2.23470        0.19970        8.45300
C          1.30740        0.91720        9.31030
S          0.04310        0.11740       10.19660
C         -0.49790        1.59400       10.91710
C         -1.68300        1.62190       11.81710
C         -2.98250        1.67460       11.01010
C          0.26420        2.63830       10.48560
C          1.29110        2.25900        9.58020
Cl         2.43790        3.38150        8.97070
Cl         0.03410        4.26370       10.98620
C          2.93980       -0.91430        8.89160
S          2.74390       -1.68420       10.44140
C          1.84560        1.66900        6.42320
C          2.36950        1.87370        5.18380
S          3.68880        0.77870        4.82660
C          1.92210        2.78820        4.18300
C          2.61000        3.22810        3.09270
C          1.84260        4.05300        2.23360
C          2.22060        4.61120        0.99760
C          3.52890        4.34630        0.42290
S          4.54610        5.64430       -0.12600
C          5.79870        4.55770       -0.62080
C          7.08370        5.06640       -1.17410
C          8.02040        5.52400       -0.05360
C          5.43400        3.26900       -0.36780
Cl         6.41760        1.90740       -0.72000
C          4.14530        3.14230        0.21710
Cl         3.42890        1.61340        0.53890
C          1.26650        5.36520        0.32750
C         -0.03680        5.56700        0.84040
C         -0.42580        4.99320        2.06350
C         -1.81700        5.07230        2.47920
S         -2.75130        3.62110        2.69740
C         -4.22220        4.50780        2.90710
C         -5.51010        3.81030        3.17360
C         -5.65600        3.47400        4.65900
C         -3.98300        5.84800        2.83830
C         -2.62270        6.17140        2.58630
Cl        -2.05590        7.78880        2.48460
Cl        -5.19960        7.04630        3.00090
C          0.52950        4.24480        2.73230
S          0.28570        3.40990        4.23800
C         -0.88320        6.19300       -0.09930
C         -0.29230        6.43110       -1.30620
S          1.40460        5.98780       -1.30100
C         -1.04330        6.65930       -2.49850
C         -0.73620        6.30110       -3.78000
C         -1.88210        6.07110       -4.58650
C         -1.92980        5.43620       -5.84600
C         -0.74070        5.36350       -6.66690
S         -0.27420        3.92880       -7.53290
C          1.14050        4.68420       -8.18220
C          2.03760        3.95900       -9.12270
C          1.48950        4.01700      -10.55070
C          1.22530        5.97790       -7.75960
Cl         2.48440        7.05230       -8.21240
C          0.16810        6.36550       -6.89620
Cl         0.02520        7.96450       -6.29210
C         -3.13250        4.81870       -6.17780
C         -4.30180        4.94430       -5.38800
C         -4.30030        5.74850       -4.23710
C         -5.47010        5.83820       -3.37090
S         -6.93220        6.61450       -3.89570
C         -7.72100        6.32630       -2.38230
C         -9.13350        6.73550       -2.14980
C        -10.09640        5.60610       -2.52530
C         -6.89230        5.64770       -1.54000
C         -5.61670        5.36440       -2.09670
Cl        -4.44040        4.44470       -1.25120
Cl        -7.31570        5.19220        0.05560
C         -3.07840        6.27250       -3.85470
S         -2.76020        6.97850       -2.29890
C         -5.28030        3.97830       -5.71630
C         -4.87340        3.09970       -6.67890
S         -3.34470        3.59040       -7.40190
C         -5.29790        1.74060       -6.77630
C         -4.71570        0.72210       -7.47400
C         -4.92480       -0.55350       -6.89010
C         -4.28750       -1.76410       -7.23270
C         -3.65490       -1.92410       -8.52370
S         -2.10730       -2.69370       -8.71740
C         -2.12970       -2.48780      -10.43490
C         -1.02660       -3.01980      -11.28070
C         -1.13100       -4.54080      -11.41660
C         -3.27980       -1.86740      -10.82420
Cl        -3.66990       -1.50500      -12.45600
C         -4.14300       -1.53900       -9.74640
Cl        -5.67940       -0.81790       -9.99530
C         -4.23560       -2.73380       -6.23590
C         -4.89880       -2.59120       -4.99180
C         -5.73640       -1.48150       -4.75380
C         -6.46940       -1.35980       -3.50960
S         -6.41360        0.09490       -2.55610
C         -7.41020       -0.58400       -1.31880
C         -7.77770        0.18100       -0.09310
C         -7.43770        1.66080       -0.20150
C         -7.76620       -1.86110       -1.64270
C         -7.23100       -2.30730       -2.87820
Cl        -7.58130       -3.85470       -3.53120
Cl        -8.76690       -2.84470       -0.65370
C         -5.68330       -0.46690       -5.69690
S         -6.31180        1.14030       -5.46690
C         -4.45710       -3.54020       -4.04610
C         -3.50700       -4.39780       -4.53330
S         -3.21520       -4.14470       -6.24630
C         -2.64070       -5.20380       -3.74870
C         -1.68230       -6.14500       -4.11460
C         -0.79950       -6.48690       -3.04990
S          0.40900       -7.63430       -3.53800
C         -0.27100       -7.69000       -5.14680
C          0.37450       -8.58170       -6.11610
O          1.36310       -9.22520       -5.85950
O         -0.26830       -8.59440       -7.28480
C          0.28280       -9.41390       -8.31520
C          1.38120       -8.68290       -9.07360
C         -1.34810       -6.86220       -5.29400
F         -2.03840       -6.75470       -6.42880
C         -1.05270       -5.83410       -1.85860
S         -2.46250       -4.82230       -2.05760
C         -0.32720       -5.77350       -0.64260
C          0.87170       -6.35880       -0.42200
C          1.64300       -6.15610        0.75590
C          2.88260       -6.67050        1.01830
C          3.41470       -6.27120        2.26750
C          4.63940       -6.63930        2.84790
C          5.56620       -7.53720        2.17900
S          7.21980       -7.07530        1.90370
C          7.59790       -8.58610        1.15060
C          8.98070       -8.89210        0.69260
C          9.83440       -9.40470        1.85510
C          6.50060       -9.39420        1.13160
Cl         6.49030      -10.98030        0.47680
C          5.34480       -8.80040        1.70740
Cl         3.85320       -9.63640        1.85950
C          4.92260       -6.11970        4.10440
C          4.04720       -5.25350        4.79730
C          2.85690       -4.82060        4.18730
C          2.00830       -3.81060        4.80090
S          1.44750       -3.93910        6.44290
C          0.58130       -2.44510        6.35550
C         -0.24450       -1.96200        7.49370
C         -1.62580       -2.61990        7.49300
C          0.73060       -1.88740        5.12190
C          1.54330       -2.65070        4.24170
Cl         1.95180       -2.08580        2.67860
Cl         0.00750       -0.40430        4.64860
C          2.55280       -5.37200        2.94800
S          1.08730       -5.10910        2.05140
C          4.56060       -4.91370        6.08150
C          5.75570       -5.48350        6.33770
S          6.34640       -6.46600        5.04540
H          4.18330       -3.61840       10.75010
H          5.24400       -3.31670        8.40510
H          7.58040       -4.15630        2.90760
H          5.91800       -3.91650        2.34410
H          8.14530       -1.82640        2.19330
H          6.48330       -1.59220        1.64260
H          7.52260       -2.77430        0.83850
H         -1.68180        0.72940       12.44530
H         -1.61420        2.50240       12.45820
H         -3.83730        1.69680       11.68040
H         -3.00400        2.56590       10.38820
H         -3.06320        0.80050       10.36830
H          1.00860        2.22920        6.79890
H          3.63900        2.97100        2.92040
H          7.55840        4.26740       -1.74630
H          6.88280        5.90530       -1.84290
H          8.95250        5.89230       -0.47330
H          7.55690        6.32140        0.52240
H          8.24210        4.69560        0.61450
H         -6.32940        4.46030        2.86120
H         -5.54950        2.89120        2.58600
H         -6.59970        2.96490        4.83630
H         -4.84290        2.82710        4.97990
H         -5.63320        4.38280        5.25490
H         -1.92780        6.37220        0.07420
H          0.26620        6.06480       -4.08990
H          3.02620        4.42020       -9.09020
H          2.12520        2.91720       -8.80980
H          2.15300        3.48500      -11.22700
H          1.40920        5.04920      -10.88160
H          0.50400        3.55970      -10.59440
H         -9.35770        7.62030       -2.74700
H         -9.25880        6.98380       -1.09390
H        -11.12240        5.91820       -2.35150
H         -9.98350        5.34640       -3.57510
H         -9.89380        4.72340       -1.92420
H         -6.19070        3.85300       -5.15750
H         -4.04730        0.89290       -8.29900
H         -0.06650       -2.76310      -10.82860
H         -1.08500       -2.55500      -12.26620
H         -0.31470       -4.91810      -12.02680
H         -2.07230       -4.81360      -11.88680
H         -1.08440       -5.00980      -10.43650
H         -7.25410       -0.25640        0.76340
H         -8.84870        0.05120        0.08660
H         -6.36760        1.79890       -0.33920
H         -7.94990        2.10790       -1.05020
H         -7.74170        2.18390        0.70130
H         -4.76320       -3.54270       -3.01540
H         -0.56020       -9.64730       -8.96840
H          0.67680      -10.33160       -7.86600
H          1.00020       -7.74620       -9.47350
H          1.73260       -9.30400       -9.89240
H          2.21520       -8.47200       -8.40850
H         -0.75610       -5.14680        0.12870
H          1.31730       -6.99170       -1.17710
H          3.39950       -7.31410        0.33070
H          8.93180       -9.65150       -0.08980
H          9.43460       -7.99000        0.27880
H          9.40230      -10.31300        2.26750
H          9.88690       -8.65640        2.64240
H         10.84170       -9.62280        1.51110
H          0.25960       -2.18700        8.43490
H         -0.35670       -0.88030        7.40610
H         -2.15400       -2.38790        6.57180
H         -2.20790       -2.25370        8.33400
H         -1.52970       -3.69960        7.57730
H          4.03490       -4.28390        6.77320
H          6.35400       -5.39730        7.22370
