
  xtb     03042214253D
 energy: -443.384616527833 gnorm: 0.000763388100 xtb: 6.4.1 (unknown)
248271  0     0  0            999 V2000
  -16.7046    6.9235   -5.2554 C   0  0  0  0  0  0  0  0  0  0  0  0
  -16.0868    7.3256   -4.1265 C   0  0  0  0  0  0  0  0  0  0  0  0
  -14.8988    6.5855   -3.8492 C   0  0  0  0  0  0  0  0  0  0  0  0
  -14.0334    6.7153   -2.7527 C   0  0  0  0  0  0  0  0  0  0  0  0
  -14.2159    7.7501   -1.7272 C   0  0  0  0  0  0  0  0  0  0  0  0
  -14.3508    9.0935   -2.0730 C   0  0  0  0  0  0  0  0  0  0  0  0
  -14.4527   10.0608   -1.0964 C   0  0  0  0  0  0  0  0  0  0  0  0
  -14.4441    9.7305    0.2580 C   0  0  0  0  0  0  0  0  0  0  0  0
  -14.6039   11.0570    1.4156 S   0  0  0  0  0  0  0  0  0  0  0  0
  -13.4931   10.5878    2.7945 C   0  0  0  0  0  0  0  0  0  0  0  0
  -12.0703   10.3538    2.3288 C   0  0  0  0  0  0  0  0  0  0  0  0
  -14.3529    8.3811    0.5859 C   0  0  0  0  0  0  0  0  0  0  0  0
  -14.3949    7.9748    1.8735 F   0  0  0  0  0  0  0  0  0  0  0  0
  -14.2193    7.4051   -0.3803 C   0  0  0  0  0  0  0  0  0  0  0  0
  -12.9680    5.8291   -2.6912 C   0  0  0  0  0  0  0  0  0  0  0  0
  -12.7350    4.8402   -3.6760 C   0  0  0  0  0  0  0  0  0  0  0  0
  -13.6066    4.6998   -4.7673 C   0  0  0  0  0  0  0  0  0  0  0  0
  -13.3561    3.6522   -5.7642 C   0  0  0  0  0  0  0  0  0  0  0  0
  -13.2721    3.9371   -7.1251 C   0  0  0  0  0  0  0  0  0  0  0  0
  -12.9094    2.9559   -8.0237 C   0  0  0  0  0  0  0  0  0  0  0  0
  -12.6390    1.6533   -7.6084 C   0  0  0  0  0  0  0  0  0  0  0  0
  -12.1442    0.4830   -8.8384 S   0  0  0  0  0  0  0  0  0  0  0  0
  -10.8447   -0.5071   -8.0066 C   0  0  0  0  0  0  0  0  0  0  0  0
   -9.7111    0.3517   -7.4819 C   0  0  0  0  0  0  0  0  0  0  0  0
  -12.8091    1.3650   -6.2576 C   0  0  0  0  0  0  0  0  0  0  0  0
  -13.1411    2.3425   -5.3435 C   0  0  0  0  0  0  0  0  0  0  0  0
  -12.6399    0.1084   -5.7888 F   0  0  0  0  0  0  0  0  0  0  0  0
  -14.6658    5.5917   -4.8323 C   0  0  0  0  0  0  0  0  0  0  0  0
  -15.9003    5.6216   -6.0639 S   0  0  0  0  0  0  0  0  0  0  0  0
  -11.5386    4.1236   -3.4291 C   0  0  0  0  0  0  0  0  0  0  0  0
  -10.8816    4.5210   -2.3044 C   0  0  0  0  0  0  0  0  0  0  0  0
  -11.7155    5.8178   -1.4715 S   0  0  0  0  0  0  0  0  0  0  0  0
   -9.6517    3.9850   -1.8234 C   0  0  0  0  0  0  0  0  0  0  0  0
   -8.9136    4.3504   -0.7390 C   0  0  0  0  0  0  0  0  0  0  0  0
   -7.7197    3.5969   -0.5834 C   0  0  0  0  0  0  0  0  0  0  0  0
   -6.7367    3.7200    0.4147 C   0  0  0  0  0  0  0  0  0  0  0  0
   -6.9014    4.6732    1.5180 C   0  0  0  0  0  0  0  0  0  0  0  0
   -8.0842    4.7119    2.2571 C   0  0  0  0  0  0  0  0  0  0  0  0
   -8.2418    5.6165    3.2829 C   0  0  0  0  0  0  0  0  0  0  0  0
   -7.2379    6.5297    3.6102 C   0  0  0  0  0  0  0  0  0  0  0  0
   -7.6024    7.6759    4.8990 S   0  0  0  0  0  0  0  0  0  0  0  0
   -5.9683    8.0945    5.6278 C   0  0  0  0  0  0  0  0  0  0  0  0
   -6.1859    8.6251    7.0310 C   0  0  0  0  0  0  0  0  0  0  0  0
   -6.0673    6.4844    2.8586 C   0  0  0  0  0  0  0  0  0  0  0  0
   -5.0602    7.3585    3.0838 F   0  0  0  0  0  0  0  0  0  0  0  0
   -5.8876    5.5673    1.8425 C   0  0  0  0  0  0  0  0  0  0  0  0
   -5.6223    2.9010    0.2972 C   0  0  0  0  0  0  0  0  0  0  0  0
   -5.4765    1.9482   -0.7414 C   0  0  0  0  0  0  0  0  0  0  0  0
   -6.4688    1.8043   -1.7243 C   0  0  0  0  0  0  0  0  0  0  0  0
   -6.3343    0.8136   -2.7997 C   0  0  0  0  0  0  0  0  0  0  0  0
   -6.4886    1.1772   -4.1360 C   0  0  0  0  0  0  0  0  0  0  0  0
   -6.3388    0.2442   -5.1412 C   0  0  0  0  0  0  0  0  0  0  0  0
   -6.0228   -1.0799   -4.8540 C   0  0  0  0  0  0  0  0  0  0  0  0
   -5.7820   -2.2067   -6.2039 S   0  0  0  0  0  0  0  0  0  0  0  0
   -6.8349   -3.6260   -5.7228 C   0  0  0  0  0  0  0  0  0  0  0  0
   -8.2968   -3.2354   -5.6385 C   0  0  0  0  0  0  0  0  0  0  0  0
   -5.8560   -1.4263   -3.5174 C   0  0  0  0  0  0  0  0  0  0  0  0
   -6.0236   -0.5100   -2.5001 C   0  0  0  0  0  0  0  0  0  0  0  0
   -5.5042   -2.6862   -3.1749 F   0  0  0  0  0  0  0  0  0  0  0  0
   -7.5596    2.6504   -1.6265 C   0  0  0  0  0  0  0  0  0  0  0  0
   -8.9095    2.6753   -2.7253 S   0  0  0  0  0  0  0  0  0  0  0  0
   -4.2493    1.2527   -0.6539 C   0  0  0  0  0  0  0  0  0  0  0  0
   -3.4851    1.6139    0.4178 C   0  0  0  0  0  0  0  0  0  0  0  0
   -4.2484    2.8625    1.3771 S   0  0  0  0  0  0  0  0  0  0  0  0
   -2.1976    1.0698    0.7131 C   0  0  0  0  0  0  0  0  0  0  0  0
   -1.6797   -0.0560    0.1401 C   0  0  0  0  0  0  0  0  0  0  0  0
   -0.3419   -0.3251    0.5094 C   0  0  0  0  0  0  0  0  0  0  0  0
    0.4839   -1.3604    0.0332 C   0  0  0  0  0  0  0  0  0  0  0  0
   -0.0083   -2.2956   -0.9847 C   0  0  0  0  0  0  0  0  0  0  0  0
   -0.6639   -1.8279   -2.1219 C   0  0  0  0  0  0  0  0  0  0  0  0
   -1.2023   -2.6961   -3.0510 C   0  0  0  0  0  0  0  0  0  0  0  0
   -1.0989   -4.0725   -2.8813 C   0  0  0  0  0  0  0  0  0  0  0  0
   -1.7812   -5.2882   -3.9536 S   0  0  0  0  0  0  0  0  0  0  0  0
   -2.9255   -4.3512   -5.0275 C   0  0  0  0  0  0  0  0  0  0  0  0
   -2.2533   -3.7814   -6.2625 C   0  0  0  0  0  0  0  0  0  0  0  0
   -0.3936   -4.5272   -1.7641 C   0  0  0  0  0  0  0  0  0  0  0  0
   -0.2525   -5.8541   -1.5792 F   0  0  0  0  0  0  0  0  0  0  0  0
    0.1419   -3.6723   -0.8274 C   0  0  0  0  0  0  0  0  0  0  0  0
    1.7616   -1.4212    0.5654 C   0  0  0  0  0  0  0  0  0  0  0  0
    2.2421   -0.4851    1.5175 C   0  0  0  0  0  0  0  0  0  0  0  0
    1.4260    0.5702    1.9661 C   0  0  0  0  0  0  0  0  0  0  0  0
    1.9370    1.5740    2.9078 C   0  0  0  0  0  0  0  0  0  0  0  0
    1.2350    1.8937    4.0680 C   0  0  0  0  0  0  0  0  0  0  0  0
    1.7306    2.8284    4.9528 C   0  0  0  0  0  0  0  0  0  0  0  0
    2.9394    3.4776    4.7173 C   0  0  0  0  0  0  0  0  0  0  0  0
    3.5176    4.6252    5.9364 S   0  0  0  0  0  0  0  0  0  0  0  0
    4.0537    6.0605    4.9317 C   0  0  0  0  0  0  0  0  0  0  0  0
    2.9250    6.6062    4.0803 C   0  0  0  0  0  0  0  0  0  0  0  0
    3.6360    3.1407    3.5611 C   0  0  0  0  0  0  0  0  0  0  0  0
    3.1459    2.2188    2.6598 C   0  0  0  0  0  0  0  0  0  0  0  0
    4.8263    3.7158    3.2832 F   0  0  0  0  0  0  0  0  0  0  0  0
    0.1394    0.6151    1.4550 C   0  0  0  0  0  0  0  0  0  0  0  0
   -1.0634    1.8329    1.8068 S   0  0  0  0  0  0  0  0  0  0  0  0
    3.5736   -0.7542    1.9034 C   0  0  0  0  0  0  0  0  0  0  0  0
    4.1379   -1.8138    1.2459 C   0  0  0  0  0  0  0  0  0  0  0  0
    3.0011   -2.5692    0.1361 S   0  0  0  0  0  0  0  0  0  0  0  0
    5.4632   -2.3135    1.3259 C   0  0  0  0  0  0  0  0  0  0  0  0
    6.5801   -1.8360    2.0215 C   0  0  0  0  0  0  0  0  0  0  0  0
    7.7427   -2.6098    1.7603 C   0  0  0  0  0  0  0  0  0  0  0  0
    9.1591   -2.0270    2.5805 S   0  0  0  0  0  0  0  0  0  0  0  0
    8.2126   -0.7551    3.3070 C   0  0  0  0  0  0  0  0  0  0  0  0
    8.8961    0.1840    4.2025 C   0  0  0  0  0  0  0  0  0  0  0  0
   10.0845    0.1428    4.4168 O   0  0  0  0  0  0  0  0  0  0  0  0
    8.0419    1.0533    4.7366 O   0  0  0  0  0  0  0  0  0  0  0  0
    8.5554    2.0901    5.5728 C   0  0  0  0  0  0  0  0  0  0  0  0
    8.3212    3.4407    4.9141 C   0  0  0  0  0  0  0  0  0  0  0  0
    6.9014   -0.7822    2.9189 C   0  0  0  0  0  0  0  0  0  0  0  0
    6.0238    0.1216    3.3557 F   0  0  0  0  0  0  0  0  0  0  0  0
    7.5632   -3.6760    0.8971 C   0  0  0  0  0  0  0  0  0  0  0  0
    5.8967   -3.7134    0.3895 S   0  0  0  0  0  0  0  0  0  0  0  0
    8.5424   -4.6072    0.5007 C   0  0  0  0  0  0  0  0  0  0  0  0
    8.3665   -5.6332   -0.3728 C   0  0  0  0  0  0  0  0  0  0  0  0
    9.3861   -6.5630   -0.6625 C   0  0  0  0  0  0  0  0  0  0  0  0
    9.3419   -7.7033   -1.4662 C   0  0  0  0  0  0  0  0  0  0  0  0
   10.5371   -8.4713   -1.4119 C   0  0  0  0  0  0  0  0  0  0  0  0
   10.4519   -9.8954   -2.4044 S   0  0  0  0  0  0  0  0  0  0  0  0
    8.8287   -9.4672   -2.9012 C   0  0  0  0  0  0  0  0  0  0  0  0
    8.1587  -10.3654   -3.8441 C   0  0  0  0  0  0  0  0  0  0  0  0
    8.6729  -11.3681   -4.2790 O   0  0  0  0  0  0  0  0  0  0  0  0
    6.9279   -9.9434   -4.1431 O   0  0  0  0  0  0  0  0  0  0  0  0
    6.1875  -10.7287   -5.0761 C   0  0  0  0  0  0  0  0  0  0  0  0
    6.5642  -10.3863   -6.5103 C   0  0  0  0  0  0  0  0  0  0  0  0
    8.3910   -8.3063   -2.3238 C   0  0  0  0  0  0  0  0  0  0  0  0
    7.1895   -7.7703   -2.5441 F   0  0  0  0  0  0  0  0  0  0  0  0
   11.5067   -7.9750   -0.5648 C   0  0  0  0  0  0  0  0  0  0  0  0
   10.9446   -6.4621    0.1016 S   0  0  0  0  0  0  0  0  0  0  0  0
   12.7862   -8.5417   -0.2742 C   0  0  0  0  0  0  0  0  0  0  0  0
   13.5822   -8.2265    0.7647 C   0  0  0  0  0  0  0  0  0  0  0  0
   13.1992   -7.3243    1.8329 C   0  0  0  0  0  0  0  0  0  0  0  0
   13.8068   -6.1828    2.2382 C   0  0  0  0  0  0  0  0  0  0  0  0
   13.0666   -5.4496    3.2126 C   0  0  0  0  0  0  0  0  0  0  0  0
   13.3473   -4.1785    3.7305 C   0  0  0  0  0  0  0  0  0  0  0  0
   14.6003   -3.4822    3.4183 C   0  0  0  0  0  0  0  0  0  0  0  0
   15.8311   -4.1178    3.5757 C   0  0  0  0  0  0  0  0  0  0  0  0
   17.0058   -3.4479    3.3099 C   0  0  0  0  0  0  0  0  0  0  0  0
   17.0019   -2.1298    2.8574 C   0  0  0  0  0  0  0  0  0  0  0  0
   18.5698   -1.3897    2.5056 S   0  0  0  0  0  0  0  0  0  0  0  0
   18.3930    0.3343    3.0972 C   0  0  0  0  0  0  0  0  0  0  0  0
   18.0090    0.3971    4.5617 C   0  0  0  0  0  0  0  0  0  0  0  0
   15.7647   -1.5203    2.6713 C   0  0  0  0  0  0  0  0  0  0  0  0
   15.6813   -0.2628    2.1849 F   0  0  0  0  0  0  0  0  0  0  0  0
   14.5818   -2.1679    2.9633 C   0  0  0  0  0  0  0  0  0  0  0  0
   12.3774   -3.6066    4.5466 C   0  0  0  0  0  0  0  0  0  0  0  0
   11.1371   -4.2279    4.8237 C   0  0  0  0  0  0  0  0  0  0  0  0
   10.8479   -5.4938    4.2884 C   0  0  0  0  0  0  0  0  0  0  0  0
    9.5099   -6.0878    4.3666 C   0  0  0  0  0  0  0  0  0  0  0  0
    9.2962   -7.4334    4.6444 C   0  0  0  0  0  0  0  0  0  0  0  0
    8.0274   -7.9809    4.5945 C   0  0  0  0  0  0  0  0  0  0  0  0
    6.9242   -7.2055    4.2551 C   0  0  0  0  0  0  0  0  0  0  0  0
    5.2647   -7.7739    4.0997 S   0  0  0  0  0  0  0  0  0  0  0  0
    5.2989   -9.4722    4.7667 C   0  0  0  0  0  0  0  0  0  0  0  0
    5.4170   -9.4976    6.2790 C   0  0  0  0  0  0  0  0  0  0  0  0
    7.1549   -5.8562    3.9815 C   0  0  0  0  0  0  0  0  0  0  0  0
    8.4083   -5.2976    4.0405 C   0  0  0  0  0  0  0  0  0  0  0  0
    6.1167   -5.0639    3.6288 F   0  0  0  0  0  0  0  0  0  0  0  0
   11.8497   -6.0938    3.5396 C   0  0  0  0  0  0  0  0  0  0  0  0
   11.7308   -7.6452    2.7513 S   0  0  0  0  0  0  0  0  0  0  0  0
   10.3353   -3.4279    5.6902 C   0  0  0  0  0  0  0  0  0  0  0  0
   10.9390   -2.2754    6.0475 C   0  0  0  0  0  0  0  0  0  0  0  0
   12.5028   -2.0669    5.3538 S   0  0  0  0  0  0  0  0  0  0  0  0
  -17.6073    7.3109   -5.6859 H   0  0  0  0  0  0  0  0  0  0  0  0
  -16.4558    8.1089   -3.4897 H   0  0  0  0  0  0  0  0  0  0  0  0
  -14.3366    9.3808   -3.1134 H   0  0  0  0  0  0  0  0  0  0  0  0
  -14.5346   11.1023   -1.3657 H   0  0  0  0  0  0  0  0  0  0  0  0
  -13.9052    9.7184    3.3018 H   0  0  0  0  0  0  0  0  0  0  0  0
  -13.5522   11.4486    3.4607 H   0  0  0  0  0  0  0  0  0  0  0  0
  -12.0148    9.4987    1.6577 H   0  0  0  0  0  0  0  0  0  0  0  0
  -11.4329   10.1548    3.1880 H   0  0  0  0  0  0  0  0  0  0  0  0
  -11.6904   11.2288    1.8055 H   0  0  0  0  0  0  0  0  0  0  0  0
  -14.1488    6.3747   -0.0683 H   0  0  0  0  0  0  0  0  0  0  0  0
  -13.4505    4.9426   -7.4733 H   0  0  0  0  0  0  0  0  0  0  0  0
  -12.8112    3.1867   -9.0730 H   0  0  0  0  0  0  0  0  0  0  0  0
  -11.3014   -1.1038   -7.2199 H   0  0  0  0  0  0  0  0  0  0  0  0
  -10.4990   -1.1702   -8.8000 H   0  0  0  0  0  0  0  0  0  0  0  0
   -9.2985    0.9673   -8.2785 H   0  0  0  0  0  0  0  0  0  0  0  0
   -8.9219   -0.2845   -7.0864 H   0  0  0  0  0  0  0  0  0  0  0  0
  -10.0532    1.0048   -6.6811 H   0  0  0  0  0  0  0  0  0  0  0  0
  -13.2523    2.0673   -4.3059 H   0  0  0  0  0  0  0  0  0  0  0  0
  -11.1581    3.3546   -4.0771 H   0  0  0  0  0  0  0  0  0  0  0  0
   -9.2064    5.1511   -0.0836 H   0  0  0  0  0  0  0  0  0  0  0  0
   -8.8719    4.0065    2.0414 H   0  0  0  0  0  0  0  0  0  0  0  0
   -9.1552    5.6375    3.8567 H   0  0  0  0  0  0  0  0  0  0  0  0
   -5.3758    7.1812    5.6387 H   0  0  0  0  0  0  0  0  0  0  0  0
   -5.4891    8.8397    4.9947 H   0  0  0  0  0  0  0  0  0  0  0  0
   -6.6751    7.8776    7.6515 H   0  0  0  0  0  0  0  0  0  0  0  0
   -5.2278    8.8799    7.4787 H   0  0  0  0  0  0  0  0  0  0  0  0
   -6.8090    9.5165    7.0099 H   0  0  0  0  0  0  0  0  0  0  0  0
   -4.9629    5.5899    1.2875 H   0  0  0  0  0  0  0  0  0  0  0  0
   -6.7123    2.2014   -4.3899 H   0  0  0  0  0  0  0  0  0  0  0  0
   -6.4550    0.5324   -6.1743 H   0  0  0  0  0  0  0  0  0  0  0  0
   -6.6653   -4.3528   -6.5168 H   0  0  0  0  0  0  0  0  0  0  0  0
   -6.4672   -4.0338   -4.7840 H   0  0  0  0  0  0  0  0  0  0  0  0
   -8.4524   -2.4752   -4.8742 H   0  0  0  0  0  0  0  0  0  0  0  0
   -8.6438   -2.8440   -6.5927 H   0  0  0  0  0  0  0  0  0  0  0  0
   -8.8949   -4.1076   -5.3830 H   0  0  0  0  0  0  0  0  0  0  0  0
   -5.9129   -0.8388   -1.4783 H   0  0  0  0  0  0  0  0  0  0  0  0
   -3.9291    0.5363   -1.3868 H   0  0  0  0  0  0  0  0  0  0  0  0
   -2.2449   -0.6934   -0.5131 H   0  0  0  0  0  0  0  0  0  0  0  0
   -0.7353   -0.7643   -2.2953 H   0  0  0  0  0  0  0  0  0  0  0  0
   -1.7080   -2.2880   -3.9107 H   0  0  0  0  0  0  0  0  0  0  0  0
   -3.4017   -3.5858   -4.4188 H   0  0  0  0  0  0  0  0  0  0  0  0
   -3.6775   -5.0876   -5.3108 H   0  0  0  0  0  0  0  0  0  0  0  0
   -1.8449   -4.5840   -6.8717 H   0  0  0  0  0  0  0  0  0  0  0  0
   -2.9840   -3.2301   -6.8519 H   0  0  0  0  0  0  0  0  0  0  0  0
   -1.4400   -3.1093   -5.9987 H   0  0  0  0  0  0  0  0  0  0  0  0
    0.6436   -4.0871    0.0323 H   0  0  0  0  0  0  0  0  0  0  0  0
    0.3027    1.3954    4.2842 H   0  0  0  0  0  0  0  0  0  0  0  0
    1.1864    3.0712    5.8521 H   0  0  0  0  0  0  0  0  0  0  0  0
    4.9142    5.7729    4.3316 H   0  0  0  0  0  0  0  0  0  0  0  0
    4.3699    6.7873    5.6798 H   0  0  0  0  0  0  0  0  0  0  0  0
    2.0680    6.8616    4.7001 H   0  0  0  0  0  0  0  0  0  0  0  0
    3.2585    7.5010    3.5585 H   0  0  0  0  0  0  0  0  0  0  0  0
    2.6085    5.8736    3.3398 H   0  0  0  0  0  0  0  0  0  0  0  0
    3.7140    2.0145    1.7657 H   0  0  0  0  0  0  0  0  0  0  0  0
    4.0722   -0.1824    2.6577 H   0  0  0  0  0  0  0  0  0  0  0  0
    9.6215    1.9103    5.7465 H   0  0  0  0  0  0  0  0  0  0  0  0
    8.0090    2.0214    6.5180 H   0  0  0  0  0  0  0  0  0  0  0  0
    8.9015    3.5209    3.9980 H   0  0  0  0  0  0  0  0  0  0  0  0
    8.6191    4.2344    5.5931 H   0  0  0  0  0  0  0  0  0  0  0  0
    7.2682    3.5535    4.6702 H   0  0  0  0  0  0  0  0  0  0  0  0
    9.5130   -4.4695    0.9640 H   0  0  0  0  0  0  0  0  0  0  0  0
    7.4089   -5.7817   -0.8536 H   0  0  0  0  0  0  0  0  0  0  0  0
    6.3769  -11.7889   -4.8769 H   0  0  0  0  0  0  0  0  0  0  0  0
    5.1416  -10.4894   -4.8741 H   0  0  0  0  0  0  0  0  0  0  0  0
    6.4273   -9.3224   -6.6893 H   0  0  0  0  0  0  0  0  0  0  0  0
    7.6042  -10.6462   -6.6937 H   0  0  0  0  0  0  0  0  0  0  0  0
    5.9352  -10.9469   -7.1956 H   0  0  0  0  0  0  0  0  0  0  0  0
   13.1137   -9.2862   -0.9883 H   0  0  0  0  0  0  0  0  0  0  0  0
   14.5693   -8.6645    0.8253 H   0  0  0  0  0  0  0  0  0  0  0  0
   14.7150   -5.8152    1.7947 H   0  0  0  0  0  0  0  0  0  0  0  0
   15.8634   -5.1328    3.9415 H   0  0  0  0  0  0  0  0  0  0  0  0
   17.9580   -3.9354    3.4505 H   0  0  0  0  0  0  0  0  0  0  0  0
   17.6771    0.8546    2.4650 H   0  0  0  0  0  0  0  0  0  0  0  0
   19.3850    0.7551    2.9318 H   0  0  0  0  0  0  0  0  0  0  0  0
   18.7233   -0.1558    5.1682 H   0  0  0  0  0  0  0  0  0  0  0  0
   17.9974    1.4339    4.8919 H   0  0  0  0  0  0  0  0  0  0  0  0
   17.0186   -0.0247    4.7225 H   0  0  0  0  0  0  0  0  0  0  0  0
   13.6514   -1.6465    2.8018 H   0  0  0  0  0  0  0  0  0  0  0  0
   10.1290   -8.0636    4.9163 H   0  0  0  0  0  0  0  0  0  0  0  0
    7.9105   -9.0301    4.8109 H   0  0  0  0  0  0  0  0  0  0  0  0
    4.3441   -9.8899    4.4470 H   0  0  0  0  0  0  0  0  0  0  0  0
    6.0994  -10.0225    4.2742 H   0  0  0  0  0  0  0  0  0  0  0  0
    5.4028  -10.5263    6.6341 H   0  0  0  0  0  0  0  0  0  0  0  0
    4.5833   -8.9631    6.7283 H   0  0  0  0  0  0  0  0  0  0  0  0
    6.3413   -9.0282    6.6088 H   0  0  0  0  0  0  0  0  0  0  0  0
    8.5334   -4.2553    3.8014 H   0  0  0  0  0  0  0  0  0  0  0  0
    9.3660   -3.7288    6.0450 H   0  0  0  0  0  0  0  0  0  0  0  0
   10.5603   -1.5037    6.6883 H   0  0  0  0  0  0  0  0  0  0  0  0
  1  2  2  0  0  0  0
  2  3  1  0  0  0  0
  3  4  2  0  0  0  0
  4  5  1  0  0  0  0
  5  6  2  0  0  0  0
  6  7  1  0  0  0  0
  7  8  2  0  0  0  0
  8  9  1  0  0  0  0
  9 10  1  0  0  0  0
 10 11  1  0  0  0  0
  8 12  1  0  0  0  0
 12 13  1  0  0  0  0
 12 14  2  0  0  0  0
  4 15  1  0  0  0  0
 15 16  2  0  0  0  0
 16 17  1  0  0  0  0
 17 18  1  0  0  0  0
 18 19  2  0  0  0  0
 19 20  1  0  0  0  0
 20 21  2  0  0  0  0
 21 22  1  0  0  0  0
 22 23  1  0  0  0  0
 23 24  1  0  0  0  0
 21 25  1  0  0  0  0
 25 26  2  0  0  0  0
 25 27  1  0  0  0  0
 17 28  2  0  0  0  0
 28 29  1  0  0  0  0
 16 30  1  0  0  0  0
 30 31  2  0  0  0  0
 31 32  1  0  0  0  0
 31 33  1  0  0  0  0
 33 34  2  0  0  0  0
 34 35  1  0  0  0  0
 35 36  2  0  0  0  0
 36 37  1  0  0  0  0
 37 38  2  0  0  0  0
 38 39  1  0  0  0  0
 39 40  2  0  0  0  0
 40 41  1  0  0  0  0
 41 42  1  0  0  0  0
 42 43  1  0  0  0  0
 40 44  1  0  0  0  0
 44 45  1  0  0  0  0
 44 46  2  0  0  0  0
 36 47  1  0  0  0  0
 47 48  2  0  0  0  0
 48 49  1  0  0  0  0
 49 50  1  0  0  0  0
 50 51  2  0  0  0  0
 51 52  1  0  0  0  0
 52 53  2  0  0  0  0
 53 54  1  0  0  0  0
 54 55  1  0  0  0  0
 55 56  1  0  0  0  0
 53 57  1  0  0  0  0
 57 58  2  0  0  0  0
 57 59  1  0  0  0  0
 49 60  2  0  0  0  0
 60 61  1  0  0  0  0
 48 62  1  0  0  0  0
 62 63  2  0  0  0  0
 63 64  1  0  0  0  0
 63 65  1  0  0  0  0
 65 66  2  0  0  0  0
 66 67  1  0  0  0  0
 67 68  2  0  0  0  0
 68 69  1  0  0  0  0
 69 70  2  0  0  0  0
 70 71  1  0  0  0  0
 71 72  2  0  0  0  0
 72 73  1  0  0  0  0
 73 74  1  0  0  0  0
 74 75  1  0  0  0  0
 72 76  1  0  0  0  0
 76 77  1  0  0  0  0
 76 78  2  0  0  0  0
 68 79  1  0  0  0  0
 79 80  2  0  0  0  0
 80 81  1  0  0  0  0
 81 82  1  0  0  0  0
 82 83  2  0  0  0  0
 83 84  1  0  0  0  0
 84 85  2  0  0  0  0
 85 86  1  0  0  0  0
 86 87  1  0  0  0  0
 87 88  1  0  0  0  0
 85 89  1  0  0  0  0
 89 90  2  0  0  0  0
 89 91  1  0  0  0  0
 81 92  2  0  0  0  0
 92 93  1  0  0  0  0
 80 94  1  0  0  0  0
 94 95  2  0  0  0  0
 95 96  1  0  0  0  0
 95 97  1  0  0  0  0
 97 98  2  0  0  0  0
 98 99  1  0  0  0  0
 99100  1  0  0  0  0
100101  1  0  0  0  0
101102  1  0  0  0  0
102103  2  0  0  0  0
102104  1  0  0  0  0
104105  1  0  0  0  0
105106  1  0  0  0  0
101107  2  0  0  0  0
107108  1  0  0  0  0
 99109  2  0  0  0  0
109110  1  0  0  0  0
109111  1  0  0  0  0
111112  2  0  0  0  0
112113  1  0  0  0  0
113114  2  0  0  0  0
114115  1  0  0  0  0
115116  1  0  0  0  0
116117  1  0  0  0  0
117118  1  0  0  0  0
118119  2  0  0  0  0
118120  1  0  0  0  0
120121  1  0  0  0  0
121122  1  0  0  0  0
117123  2  0  0  0  0
123124  1  0  0  0  0
115125  2  0  0  0  0
125126  1  0  0  0  0
125127  1  0  0  0  0
127128  2  0  0  0  0
128129  1  0  0  0  0
129130  2  0  0  0  0
130131  1  0  0  0  0
131132  2  0  0  0  0
132133  1  0  0  0  0
133134  2  0  0  0  0
134135  1  0  0  0  0
135136  2  0  0  0  0
136137  1  0  0  0  0
137138  1  0  0  0  0
138139  1  0  0  0  0
136140  1  0  0  0  0
140141  1  0  0  0  0
140142  2  0  0  0  0
132143  1  0  0  0  0
143144  2  0  0  0  0
144145  1  0  0  0  0
145146  1  0  0  0  0
146147  2  0  0  0  0
147148  1  0  0  0  0
148149  2  0  0  0  0
149150  1  0  0  0  0
150151  1  0  0  0  0
151152  1  0  0  0  0
149153  1  0  0  0  0
153154  2  0  0  0  0
153155  1  0  0  0  0
145156  2  0  0  0  0
156157  1  0  0  0  0
144158  1  0  0  0  0
158159  2  0  0  0  0
159160  1  0  0  0  0
 29  1  1  0  0  0  0
 61 33  1  0  0  0  0
 93 65  1  0  0  0  0
110 97  1  0  0  0  0
126113  1  0  0  0  0
157129  1  0  0  0  0
 28  3  1  0  0  0  0
 60 35  1  0  0  0  0
 92 67  1  0  0  0  0
107 98  1  0  0  0  0
123114  1  0  0  0  0
156131  1  0  0  0  0
 14  5  1  0  0  0  0
 32 15  1  0  0  0  0
 46 37  1  0  0  0  0
 64 47  1  0  0  0  0
 78 69  1  0  0  0  0
 96 79  1  0  0  0  0
142133  1  0  0  0  0
160143  1  0  0  0  0
 26 18  1  0  0  0  0
 58 50  1  0  0  0  0
 90 82  1  0  0  0  0
154146  1  0  0  0  0
  1161  1  0  0  0  0
  2162  1  0  0  0  0
  6163  1  0  0  0  0
  7164  1  0  0  0  0
 10165  1  0  0  0  0
 10166  1  0  0  0  0
 11167  1  0  0  0  0
 11168  1  0  0  0  0
 11169  1  0  0  0  0
 14170  1  0  0  0  0
 19171  1  0  0  0  0
 20172  1  0  0  0  0
 23173  1  0  0  0  0
 23174  1  0  0  0  0
 24175  1  0  0  0  0
 24176  1  0  0  0  0
 24177  1  0  0  0  0
 26178  1  0  0  0  0
 30179  1  0  0  0  0
 34180  1  0  0  0  0
 38181  1  0  0  0  0
 39182  1  0  0  0  0
 42183  1  0  0  0  0
 42184  1  0  0  0  0
 43185  1  0  0  0  0
 43186  1  0  0  0  0
 43187  1  0  0  0  0
 46188  1  0  0  0  0
 51189  1  0  0  0  0
 52190  1  0  0  0  0
 55191  1  0  0  0  0
 55192  1  0  0  0  0
 56193  1  0  0  0  0
 56194  1  0  0  0  0
 56195  1  0  0  0  0
 58196  1  0  0  0  0
 62197  1  0  0  0  0
 66198  1  0  0  0  0
 70199  1  0  0  0  0
 71200  1  0  0  0  0
 74201  1  0  0  0  0
 74202  1  0  0  0  0
 75203  1  0  0  0  0
 75204  1  0  0  0  0
 75205  1  0  0  0  0
 78206  1  0  0  0  0
 83207  1  0  0  0  0
 84208  1  0  0  0  0
 87209  1  0  0  0  0
 87210  1  0  0  0  0
 88211  1  0  0  0  0
 88212  1  0  0  0  0
 88213  1  0  0  0  0
 90214  1  0  0  0  0
 94215  1  0  0  0  0
105216  1  0  0  0  0
105217  1  0  0  0  0
106218  1  0  0  0  0
106219  1  0  0  0  0
106220  1  0  0  0  0
111221  1  0  0  0  0
112222  1  0  0  0  0
121223  1  0  0  0  0
121224  1  0  0  0  0
122225  1  0  0  0  0
122226  1  0  0  0  0
122227  1  0  0  0  0
127228  1  0  0  0  0
128229  1  0  0  0  0
130230  1  0  0  0  0
134231  1  0  0  0  0
135232  1  0  0  0  0
138233  1  0  0  0  0
138234  1  0  0  0  0
139235  1  0  0  0  0
139236  1  0  0  0  0
139237  1  0  0  0  0
142238  1  0  0  0  0
147239  1  0  0  0  0
148240  1  0  0  0  0
151241  1  0  0  0  0
151242  1  0  0  0  0
152243  1  0  0  0  0
152244  1  0  0  0  0
152245  1  0  0  0  0
154246  1  0  0  0  0
158247  1  0  0  0  0
159248  1  0  0  0  0
M  END
