
  xtb     03032201133D
 energy: -462.343789572216 gnorm: 0.000171734040 xtb: 6.4.1 (unknown)
236262  0     0  0            999 V2000
   -6.2377    3.8732   17.6586 C   0  0  0  0  0  0  0  0  0  0  0  0
   -5.5321    4.6940   16.8542 C   0  0  0  0  0  0  0  0  0  0  0  0
   -5.7936    4.4702   15.4711 C   0  0  0  0  0  0  0  0  0  0  0  0
   -5.2107    5.1009   14.3614 C   0  0  0  0  0  0  0  0  0  0  0  0
   -4.1394    6.0722   14.5177 C   0  0  0  0  0  0  0  0  0  0  0  0
   -4.2227    7.6505   13.7962 S   0  0  0  0  0  0  0  0  0  0  0  0
   -2.6652    8.0961   14.4064 C   0  0  0  0  0  0  0  0  0  0  0  0
   -2.0645    9.4206   14.0882 C   0  0  0  0  0  0  0  0  0  0  0  0
   -1.4677    9.4232   12.6791 C   0  0  0  0  0  0  0  0  0  0  0  0
   -2.1203    7.0663   15.1135 C   0  0  0  0  0  0  0  0  0  0  0  0
   -0.5768    7.1263   15.8616 Cl  0  0  0  0  0  0  0  0  0  0  0  0
   -2.9553    5.9188   15.1835 C   0  0  0  0  0  0  0  0  0  0  0  0
   -2.4690    4.4681   15.9618 Cl  0  0  0  0  0  0  0  0  0  0  0  0
   -5.6715    4.7242   13.1071 C   0  0  0  0  0  0  0  0  0  0  0  0
   -6.6502    3.7194   12.9158 C   0  0  0  0  0  0  0  0  0  0  0  0
   -7.2121    3.0658   14.0246 C   0  0  0  0  0  0  0  0  0  0  0  0
   -8.1860    1.9993   13.8561 C   0  0  0  0  0  0  0  0  0  0  0  0
   -7.8294    0.6124   12.8678 S   0  0  0  0  0  0  0  0  0  0  0  0
   -9.3588   -0.1213   13.2063 C   0  0  0  0  0  0  0  0  0  0  0  0
   -9.7066   -1.4648   12.6673 C   0  0  0  0  0  0  0  0  0  0  0  0
   -9.2131   -2.5717   13.6023 C   0  0  0  0  0  0  0  0  0  0  0  0
  -10.0890    0.6707   14.0410 C   0  0  0  0  0  0  0  0  0  0  0  0
   -9.4298    1.8747   14.4092 C   0  0  0  0  0  0  0  0  0  0  0  0
  -10.1787    3.0718   15.3793 Cl  0  0  0  0  0  0  0  0  0  0  0  0
  -11.6634    0.2766   14.5973 Cl  0  0  0  0  0  0  0  0  0  0  0  0
   -6.7711    3.4633   15.2815 C   0  0  0  0  0  0  0  0  0  0  0  0
   -7.2772    2.7886   16.8036 S   0  0  0  0  0  0  0  0  0  0  0  0
   -6.9266    3.5074   11.5419 C   0  0  0  0  0  0  0  0  0  0  0  0
   -6.1831    4.2898   10.7105 C   0  0  0  0  0  0  0  0  0  0  0  0
   -5.1015    5.3546   11.5878 S   0  0  0  0  0  0  0  0  0  0  0  0
   -6.1700    4.2791    9.2854 C   0  0  0  0  0  0  0  0  0  0  0  0
   -5.3960    5.0367    8.4582 C   0  0  0  0  0  0  0  0  0  0  0  0
   -5.5438    4.7119    7.0879 C   0  0  0  0  0  0  0  0  0  0  0  0
   -4.8820    5.2796    5.9840 C   0  0  0  0  0  0  0  0  0  0  0  0
   -3.9297    6.3654    6.1402 C   0  0  0  0  0  0  0  0  0  0  0  0
   -2.6111    6.2673    7.2701 S   0  0  0  0  0  0  0  0  0  0  0  0
   -2.0108    7.8300    6.8303 C   0  0  0  0  0  0  0  0  0  0  0  0
   -0.8327    8.4190    7.5238 C   0  0  0  0  0  0  0  0  0  0  0  0
   -1.1987    8.8592    8.9428 C   0  0  0  0  0  0  0  0  0  0  0  0
   -2.7989    8.3840    5.8669 C   0  0  0  0  0  0  0  0  0  0  0  0
   -2.5314    9.9344    5.1821 Cl  0  0  0  0  0  0  0  0  0  0  0  0
   -3.8818    7.5549    5.4666 C   0  0  0  0  0  0  0  0  0  0  0  0
   -5.0479    8.0618    4.3183 Cl  0  0  0  0  0  0  0  0  0  0  0  0
   -5.1496    4.7259    4.7382 C   0  0  0  0  0  0  0  0  0  0  0  0
   -6.0827    3.6769    4.5478 C   0  0  0  0  0  0  0  0  0  0  0  0
   -6.8136    3.1732    5.6398 C   0  0  0  0  0  0  0  0  0  0  0  0
   -7.8345    2.1595    5.4461 C   0  0  0  0  0  0  0  0  0  0  0  0
   -7.8843    0.7078    6.4019 S   0  0  0  0  0  0  0  0  0  0  0  0
   -9.2874    0.1202    5.5790 C   0  0  0  0  0  0  0  0  0  0  0  0
   -9.8748   -1.2119    5.8920 C   0  0  0  0  0  0  0  0  0  0  0  0
   -9.3580   -2.2779    4.9226 C   0  0  0  0  0  0  0  0  0  0  0  0
   -9.6825    1.0068    4.6215 C   0  0  0  0  0  0  0  0  0  0  0  0
   -8.8633    2.1634    4.5423 C   0  0  0  0  0  0  0  0  0  0  0  0
   -9.2021    3.4578    3.4657 Cl  0  0  0  0  0  0  0  0  0  0  0  0
  -11.0503    0.7727    3.6131 Cl  0  0  0  0  0  0  0  0  0  0  0  0
   -6.4925    3.6775    6.8925 C   0  0  0  0  0  0  0  0  0  0  0  0
   -7.1745    3.1460    8.4037 S   0  0  0  0  0  0  0  0  0  0  0  0
   -6.0648    3.1886    3.2210 C   0  0  0  0  0  0  0  0  0  0  0  0
   -5.1626    3.8256    2.4172 C   0  0  0  0  0  0  0  0  0  0  0  0
   -4.3159    5.1029    3.2589 S   0  0  0  0  0  0  0  0  0  0  0  0
   -4.8192    3.4775    1.0766 C   0  0  0  0  0  0  0  0  0  0  0  0
   -5.3522    2.4630    0.3340 C   0  0  0  0  0  0  0  0  0  0  0  0
   -4.6920    2.2594   -0.8998 C   0  0  0  0  0  0  0  0  0  0  0  0
   -4.9388    1.2477   -1.8472 C   0  0  0  0  0  0  0  0  0  0  0  0
   -6.0570    0.3346   -1.6709 C   0  0  0  0  0  0  0  0  0  0  0  0
   -7.6758    0.9456   -1.4861 S   0  0  0  0  0  0  0  0  0  0  0  0
   -8.3406   -0.6424   -1.3059 C   0  0  0  0  0  0  0  0  0  0  0  0
   -9.7880   -0.8401   -1.0202 C   0  0  0  0  0  0  0  0  0  0  0  0
  -10.0885   -0.5649    0.4550 C   0  0  0  0  0  0  0  0  0  0  0  0
   -7.3532   -1.5780   -1.3828 C   0  0  0  0  0  0  0  0  0  0  0  0
   -7.6206   -3.2673   -1.2372 Cl  0  0  0  0  0  0  0  0  0  0  0  0
   -6.0585   -1.0298   -1.5936 C   0  0  0  0  0  0  0  0  0  0  0  0
   -4.6494   -2.0040   -1.6403 Cl  0  0  0  0  0  0  0  0  0  0  0  0
   -4.0509    1.1513   -2.9070 C   0  0  0  0  0  0  0  0  0  0  0  0
   -2.9625    2.0453   -3.0797 C   0  0  0  0  0  0  0  0  0  0  0  0
   -2.7680    3.1076   -2.1789 C   0  0  0  0  0  0  0  0  0  0  0  0
   -1.7022    4.0712   -2.3840 C   0  0  0  0  0  0  0  0  0  0  0  0
   -0.5889    4.4894   -1.1168 S   0  0  0  0  0  0  0  0  0  0  0  0
    0.2601    5.6081   -2.1249 C   0  0  0  0  0  0  0  0  0  0  0  0
    1.4532    6.3470   -1.6275 C   0  0  0  0  0  0  0  0  0  0  0  0
    2.7330    5.5531   -1.8977 C   0  0  0  0  0  0  0  0  0  0  0  0
   -0.2896    5.6361   -3.3719 C   0  0  0  0  0  0  0  0  0  0  0  0
   -1.4050    4.7711   -3.5221 C   0  0  0  0  0  0  0  0  0  0  0  0
   -2.3255    4.7009   -4.9696 Cl  0  0  0  0  0  0  0  0  0  0  0  0
    0.2881    6.6274   -4.6485 Cl  0  0  0  0  0  0  0  0  0  0  0  0
   -3.6176    3.1629   -1.0815 C   0  0  0  0  0  0  0  0  0  0  0  0
   -3.4984    4.2767    0.2508 S   0  0  0  0  0  0  0  0  0  0  0  0
   -2.1232    1.6551   -4.1496 C   0  0  0  0  0  0  0  0  0  0  0  0
   -2.5325    0.5212   -4.7857 C   0  0  0  0  0  0  0  0  0  0  0  0
   -4.0599   -0.0680   -4.1478 S   0  0  0  0  0  0  0  0  0  0  0  0
   -1.8693   -0.2424   -5.7947 C   0  0  0  0  0  0  0  0  0  0  0  0
   -2.4864   -0.9574   -6.7921 C   0  0  0  0  0  0  0  0  0  0  0  0
   -1.4954   -1.5868   -7.6083 C   0  0  0  0  0  0  0  0  0  0  0  0
   -1.6750   -2.4163   -8.6475 O   0  0  0  0  0  0  0  0  0  0  0  0
   -3.0001   -2.7315   -9.0123 C   0  0  0  0  0  0  0  0  0  0  0  0
   -0.2417   -1.2542   -7.1165 C   0  0  0  0  0  0  0  0  0  0  0  0
   -0.4261   -0.3564   -5.9930 C   0  0  0  0  0  0  0  0  0  0  0  0
    0.6150    0.2752   -5.3522 C   0  0  0  0  0  0  0  0  0  0  0  0
    0.7488    0.7495   -4.0146 C   0  0  0  0  0  0  0  0  0  0  0  0
    2.0145    1.2492   -3.8656 C   0  0  0  0  0  0  0  0  0  0  0  0
    2.5199    1.6956   -2.7086 O   0  0  0  0  0  0  0  0  0  0  0  0
    3.8766    2.0927   -2.7010 C   0  0  0  0  0  0  0  0  0  0  0  0
    2.7002    1.1966   -5.1572 C   0  0  0  0  0  0  0  0  0  0  0  0
    1.8893    0.5789   -6.0286 C   0  0  0  0  0  0  0  0  0  0  0  0
    0.9902   -1.9291   -7.3816 C   0  0  0  0  0  0  0  0  0  0  0  0
    1.9392   -2.2245   -6.4404 C   0  0  0  0  0  0  0  0  0  0  0  0
    3.0492   -2.9299   -6.9494 C   0  0  0  0  0  0  0  0  0  0  0  0
    4.1512   -3.4250   -6.2311 C   0  0  0  0  0  0  0  0  0  0  0  0
    4.2645   -3.2219   -4.7961 C   0  0  0  0  0  0  0  0  0  0  0  0
    4.1807   -1.6373   -4.0805 S   0  0  0  0  0  0  0  0  0  0  0  0
    4.3435   -2.2638   -2.4728 C   0  0  0  0  0  0  0  0  0  0  0  0
    4.3677   -1.3686   -1.2829 C   0  0  0  0  0  0  0  0  0  0  0  0
    5.7774   -0.8331   -1.0216 C   0  0  0  0  0  0  0  0  0  0  0  0
    4.4748   -3.6189   -2.5091 C   0  0  0  0  0  0  0  0  0  0  0  0
    4.6610   -4.5981   -1.1130 Cl  0  0  0  0  0  0  0  0  0  0  0  0
    4.4245   -4.1654   -3.8200 C   0  0  0  0  0  0  0  0  0  0  0  0
    4.4641   -5.8545   -4.1062 Cl  0  0  0  0  0  0  0  0  0  0  0  0
    5.0959   -4.1463   -6.9483 C   0  0  0  0  0  0  0  0  0  0  0  0
    4.9754   -4.4005   -8.3368 C   0  0  0  0  0  0  0  0  0  0  0  0
    3.8645   -3.9111   -9.0529 C   0  0  0  0  0  0  0  0  0  0  0  0
    3.7225   -4.1723  -10.4755 C   0  0  0  0  0  0  0  0  0  0  0  0
    3.8294   -5.7899  -11.1076 S   0  0  0  0  0  0  0  0  0  0  0  0
    3.5824   -5.2579  -12.7362 C   0  0  0  0  0  0  0  0  0  0  0  0
    3.6352   -6.2192  -13.8718 C   0  0  0  0  0  0  0  0  0  0  0  0
    5.0845   -6.5588  -14.2291 C   0  0  0  0  0  0  0  0  0  0  0  0
    3.4287   -3.9047  -12.7715 C   0  0  0  0  0  0  0  0  0  0  0  0
    3.5007   -3.2868  -11.4932 C   0  0  0  0  0  0  0  0  0  0  0  0
    3.4127   -1.5885  -11.2933 Cl  0  0  0  0  0  0  0  0  0  0  0  0
    3.1740   -3.0070  -14.2115 Cl  0  0  0  0  0  0  0  0  0  0  0  0
    2.9216   -3.1855   -8.3390 C   0  0  0  0  0  0  0  0  0  0  0  0
    1.4142   -2.5549   -8.9546 S   0  0  0  0  0  0  0  0  0  0  0  0
    6.0755   -5.1399   -8.8315 C   0  0  0  0  0  0  0  0  0  0  0  0
    7.0008   -5.4492   -7.8761 C   0  0  0  0  0  0  0  0  0  0  0  0
    6.5668   -4.8137   -6.3064 S   0  0  0  0  0  0  0  0  0  0  0  0
    8.1828   -6.2328   -8.0382 C   0  0  0  0  0  0  0  0  0  0  0  0
    8.5696   -6.9226   -9.1503 C   0  0  0  0  0  0  0  0  0  0  0  0
    9.7715   -7.6505   -8.9737 C   0  0  0  0  0  0  0  0  0  0  0  0
   10.4476   -8.4495   -9.9112 C   0  0  0  0  0  0  0  0  0  0  0  0
    9.9205   -8.6554  -11.2502 C   0  0  0  0  0  0  0  0  0  0  0  0
    8.2992   -9.2373  -11.4997 S   0  0  0  0  0  0  0  0  0  0  0  0
    8.4793   -9.2418  -13.2205 C   0  0  0  0  0  0  0  0  0  0  0  0
    7.3910   -9.7271  -14.1134 C   0  0  0  0  0  0  0  0  0  0  0  0
    7.5511  -11.2211  -14.4050 C   0  0  0  0  0  0  0  0  0  0  0  0
    9.7276   -8.8181  -13.5657 C   0  0  0  0  0  0  0  0  0  0  0  0
   10.2736   -8.6829  -15.1863 Cl  0  0  0  0  0  0  0  0  0  0  0  0
   10.5464   -8.4831  -12.4536 C   0  0  0  0  0  0  0  0  0  0  0  0
   12.1273   -7.8480  -12.6352 Cl  0  0  0  0  0  0  0  0  0  0  0  0
   11.6235   -9.0589   -9.4880 C   0  0  0  0  0  0  0  0  0  0  0  0
   12.1534   -8.8907   -8.1859 C   0  0  0  0  0  0  0  0  0  0  0  0
   11.4963   -8.0635   -7.2621 C   0  0  0  0  0  0  0  0  0  0  0  0
   12.0349   -7.8293   -5.9322 C   0  0  0  0  0  0  0  0  0  0  0  0
   11.0713   -8.0773   -4.5074 S   0  0  0  0  0  0  0  0  0  0  0  0
   12.3581   -7.5893   -3.4585 C   0  0  0  0  0  0  0  0  0  0  0  0
   12.1611   -7.5208   -1.9845 C   0  0  0  0  0  0  0  0  0  0  0  0
   11.4123   -6.2442   -1.5947 C   0  0  0  0  0  0  0  0  0  0  0  0
   13.4588   -7.2462   -4.1855 C   0  0  0  0  0  0  0  0  0  0  0  0
   13.2819   -7.3870   -5.5882 C   0  0  0  0  0  0  0  0  0  0  0  0
   14.4985   -6.9609   -6.7218 Cl  0  0  0  0  0  0  0  0  0  0  0  0
   14.9317   -6.6978   -3.4955 Cl  0  0  0  0  0  0  0  0  0  0  0  0
   10.3060   -7.4789   -7.6739 C   0  0  0  0  0  0  0  0  0  0  0  0
    9.3039   -6.4337   -6.7099 S   0  0  0  0  0  0  0  0  0  0  0  0
   13.3172   -9.6889   -7.9853 C   0  0  0  0  0  0  0  0  0  0  0  0
   13.6502  -10.4109   -9.0742 C   0  0  0  0  0  0  0  0  0  0  0  0
   12.5840  -10.1760  -10.4148 S   0  0  0  0  0  0  0  0  0  0  0  0
   -6.2256    3.8317   18.7302 H   0  0  0  0  0  0  0  0  0  0  0  0
   -4.8529    5.4440   17.2150 H   0  0  0  0  0  0  0  0  0  0  0  0
   -2.8316   10.1939   14.1574 H   0  0  0  0  0  0  0  0  0  0  0  0
   -1.2838    9.6351   14.8199 H   0  0  0  0  0  0  0  0  0  0  0  0
   -2.2398    9.2111   11.9437 H   0  0  0  0  0  0  0  0  0  0  0  0
   -0.6920    8.6662   12.5970 H   0  0  0  0  0  0  0  0  0  0  0  0
   -1.0326   10.3942   12.4596 H   0  0  0  0  0  0  0  0  0  0  0  0
  -10.7913   -1.5314   12.5638 H   0  0  0  0  0  0  0  0  0  0  0  0
   -9.2508   -1.5887   11.6835 H   0  0  0  0  0  0  0  0  0  0  0  0
   -9.4756   -3.5460   13.1989 H   0  0  0  0  0  0  0  0  0  0  0  0
   -8.1327   -2.5184   13.7127 H   0  0  0  0  0  0  0  0  0  0  0  0
   -9.6686   -2.4662   14.5836 H   0  0  0  0  0  0  0  0  0  0  0  0
   -7.6466    2.7979   11.1761 H   0  0  0  0  0  0  0  0  0  0  0  0
   -4.7284    5.7926    8.8294 H   0  0  0  0  0  0  0  0  0  0  0  0
   -0.4831    9.2769    6.9475 H   0  0  0  0  0  0  0  0  0  0  0  0
   -0.0304    7.6798    7.5715 H   0  0  0  0  0  0  0  0  0  0  0  0
   -1.9885    9.6057    8.9138 H   0  0  0  0  0  0  0  0  0  0  0  0
   -1.5455    8.0068    9.5223 H   0  0  0  0  0  0  0  0  0  0  0  0
   -0.3320    9.2886    9.4376 H   0  0  0  0  0  0  0  0  0  0  0  0
  -10.9619   -1.1466    5.8108 H   0  0  0  0  0  0  0  0  0  0  0  0
   -9.6151   -1.4886    6.9146 H   0  0  0  0  0  0  0  0  0  0  0  0
   -9.7950   -3.2434    5.1621 H   0  0  0  0  0  0  0  0  0  0  0  0
   -8.2758   -2.3576    4.9899 H   0  0  0  0  0  0  0  0  0  0  0  0
   -9.6258   -2.0181    3.9017 H   0  0  0  0  0  0  0  0  0  0  0  0
   -6.6635    2.3611    2.8907 H   0  0  0  0  0  0  0  0  0  0  0  0
   -6.1698    1.8547    0.6718 H   0  0  0  0  0  0  0  0  0  0  0  0
  -10.3794   -0.1654   -1.6418 H   0  0  0  0  0  0  0  0  0  0  0  0
  -10.0562   -1.8690   -1.2658 H   0  0  0  0  0  0  0  0  0  0  0  0
   -9.8353    0.4624    0.7062 H   0  0  0  0  0  0  0  0  0  0  0  0
   -9.5079   -1.2313    1.0886 H   0  0  0  0  0  0  0  0  0  0  0  0
  -11.1441   -0.7224    0.6587 H   0  0  0  0  0  0  0  0  0  0  0  0
    1.5076    7.3122   -2.1350 H   0  0  0  0  0  0  0  0  0  0  0  0
    1.3489    6.5191   -0.5554 H   0  0  0  0  0  0  0  0  0  0  0  0
    2.8621    5.4098   -2.9676 H   0  0  0  0  0  0  0  0  0  0  0  0
    3.5960    6.0876   -1.5098 H   0  0  0  0  0  0  0  0  0  0  0  0
    2.6741    4.5796   -1.4177 H   0  0  0  0  0  0  0  0  0  0  0  0
   -1.2332    2.1853   -4.4295 H   0  0  0  0  0  0  0  0  0  0  0  0
   -3.5500   -1.0259   -6.9289 H   0  0  0  0  0  0  0  0  0  0  0  0
   -2.9219   -3.4072   -9.8620 H   0  0  0  0  0  0  0  0  0  0  0  0
   -3.5290   -3.2311   -8.1952 H   0  0  0  0  0  0  0  0  0  0  0  0
   -3.5537   -1.8357   -9.3091 H   0  0  0  0  0  0  0  0  0  0  0  0
    0.0360    0.6135   -3.2267 H   0  0  0  0  0  0  0  0  0  0  0  0
    4.5238    1.2936   -3.0715 H   0  0  0  0  0  0  0  0  0  0  0  0
    4.1209    2.3103   -1.6625 H   0  0  0  0  0  0  0  0  0  0  0  0
    4.0278    2.9924   -3.3040 H   0  0  0  0  0  0  0  0  0  0  0  0
    3.6769    1.5928   -5.3570 H   0  0  0  0  0  0  0  0  0  0  0  0
    2.0568    0.4379   -7.0777 H   0  0  0  0  0  0  0  0  0  0  0  0
    1.8157   -1.9861   -5.4010 H   0  0  0  0  0  0  0  0  0  0  0  0
    4.0316   -1.9392   -0.4152 H   0  0  0  0  0  0  0  0  0  0  0  0
    3.6768   -0.5387   -1.4387 H   0  0  0  0  0  0  0  0  0  0  0  0
    5.7718   -0.1677   -0.1625 H   0  0  0  0  0  0  0  0  0  0  0  0
    6.4587   -1.6557   -0.8206 H   0  0  0  0  0  0  0  0  0  0  0  0
    6.1456   -0.2860   -1.8865 H   0  0  0  0  0  0  0  0  0  0  0  0
    3.1058   -7.1341  -13.5992 H   0  0  0  0  0  0  0  0  0  0  0  0
    3.1391   -5.7704  -14.7338 H   0  0  0  0  0  0  0  0  0  0  0  0
    5.5902   -7.0010  -13.3736 H   0  0  0  0  0  0  0  0  0  0  0  0
    5.6209   -5.6601  -14.5225 H   0  0  0  0  0  0  0  0  0  0  0  0
    5.1103   -7.2644  -15.0550 H   0  0  0  0  0  0  0  0  0  0  0  0
    6.1814   -5.4294   -9.8596 H   0  0  0  0  0  0  0  0  0  0  0  0
    8.0093   -6.9196  -10.0660 H   0  0  0  0  0  0  0  0  0  0  0  0
    6.4258   -9.5512  -13.6364 H   0  0  0  0  0  0  0  0  0  0  0  0
    7.4296   -9.1672  -15.0500 H   0  0  0  0  0  0  0  0  0  0  0  0
    6.7537  -11.5610  -15.0604 H   0  0  0  0  0  0  0  0  0  0  0  0
    8.5054  -11.4100  -14.8896 H   0  0  0  0  0  0  0  0  0  0  0  0
    7.5113  -11.7924  -13.4807 H   0  0  0  0  0  0  0  0  0  0  0  0
   13.1384   -7.5382   -1.4989 H   0  0  0  0  0  0  0  0  0  0  0  0
   11.5898   -8.3901   -1.6537 H   0  0  0  0  0  0  0  0  0  0  0  0
   10.4381   -6.2172   -2.0770 H   0  0  0  0  0  0  0  0  0  0  0  0
   11.9766   -5.3674   -1.9023 H   0  0  0  0  0  0  0  0  0  0  0  0
   11.2714   -6.2081   -0.5178 H   0  0  0  0  0  0  0  0  0  0  0  0
   13.8588   -9.7239   -7.0583 H   0  0  0  0  0  0  0  0  0  0  0  0
   14.4740  -11.0880   -9.1888 H   0  0  0  0  0  0  0  0  0  0  0  0
  1  2  2  0  0  0  0
  2  3  1  0  0  0  0
  3  4  2  0  0  0  0
  4  5  1  0  0  0  0
  5  6  1  0  0  0  0
  6  7  1  0  0  0  0
  7  8  1  0  0  0  0
  8  9  1  0  0  0  0
  7 10  2  0  0  0  0
 10 11  1  0  0  0  0
 10 12  1  0  0  0  0
 12 13  1  0  0  0  0
  4 14  1  0  0  0  0
 14 15  2  0  0  0  0
 15 16  1  0  0  0  0
 16 17  1  0  0  0  0
 17 18  1  0  0  0  0
 18 19  1  0  0  0  0
 19 20  1  0  0  0  0
 20 21  1  0  0  0  0
 19 22  2  0  0  0  0
 22 23  1  0  0  0  0
 23 24  1  0  0  0  0
 22 25  1  0  0  0  0
 16 26  2  0  0  0  0
 26 27  1  0  0  0  0
 15 28  1  0  0  0  0
 28 29  2  0  0  0  0
 29 30  1  0  0  0  0
 29 31  1  0  0  0  0
 31 32  2  0  0  0  0
 32 33  1  0  0  0  0
 33 34  2  0  0  0  0
 34 35  1  0  0  0  0
 35 36  1  0  0  0  0
 36 37  1  0  0  0  0
 37 38  1  0  0  0  0
 38 39  1  0  0  0  0
 37 40  2  0  0  0  0
 40 41  1  0  0  0  0
 40 42  1  0  0  0  0
 42 43  1  0  0  0  0
 34 44  1  0  0  0  0
 44 45  2  0  0  0  0
 45 46  1  0  0  0  0
 46 47  1  0  0  0  0
 47 48  1  0  0  0  0
 48 49  1  0  0  0  0
 49 50  1  0  0  0  0
 50 51  1  0  0  0  0
 49 52  2  0  0  0  0
 52 53  1  0  0  0  0
 53 54  1  0  0  0  0
 52 55  1  0  0  0  0
 46 56  2  0  0  0  0
 56 57  1  0  0  0  0
 45 58  1  0  0  0  0
 58 59  2  0  0  0  0
 59 60  1  0  0  0  0
 59 61  1  0  0  0  0
 61 62  2  0  0  0  0
 62 63  1  0  0  0  0
 63 64  2  0  0  0  0
 64 65  1  0  0  0  0
 65 66  1  0  0  0  0
 66 67  1  0  0  0  0
 67 68  1  0  0  0  0
 68 69  1  0  0  0  0
 67 70  2  0  0  0  0
 70 71  1  0  0  0  0
 70 72  1  0  0  0  0
 72 73  1  0  0  0  0
 64 74  1  0  0  0  0
 74 75  2  0  0  0  0
 75 76  1  0  0  0  0
 76 77  1  0  0  0  0
 77 78  1  0  0  0  0
 78 79  1  0  0  0  0
 79 80  1  0  0  0  0
 80 81  1  0  0  0  0
 79 82  2  0  0  0  0
 82 83  1  0  0  0  0
 83 84  1  0  0  0  0
 82 85  1  0  0  0  0
 76 86  2  0  0  0  0
 86 87  1  0  0  0  0
 75 88  1  0  0  0  0
 88 89  2  0  0  0  0
 89 90  1  0  0  0  0
 89 91  1  0  0  0  0
 91 92  2  0  0  0  0
 92 93  1  0  0  0  0
 93 94  1  0  0  0  0
 94 95  1  0  0  0  0
 93 96  2  0  0  0  0
 96 97  1  0  0  0  0
 97 98  2  0  0  0  0
 98 99  1  0  0  0  0
 99100  2  0  0  0  0
100101  1  0  0  0  0
101102  1  0  0  0  0
100103  1  0  0  0  0
103104  2  0  0  0  0
 96105  1  0  0  0  0
105106  2  0  0  0  0
106107  1  0  0  0  0
107108  2  0  0  0  0
108109  1  0  0  0  0
109110  1  0  0  0  0
110111  1  0  0  0  0
111112  1  0  0  0  0
112113  1  0  0  0  0
111114  2  0  0  0  0
114115  1  0  0  0  0
114116  1  0  0  0  0
116117  1  0  0  0  0
108118  1  0  0  0  0
118119  2  0  0  0  0
119120  1  0  0  0  0
120121  1  0  0  0  0
121122  1  0  0  0  0
122123  1  0  0  0  0
123124  1  0  0  0  0
124125  1  0  0  0  0
123126  2  0  0  0  0
126127  1  0  0  0  0
127128  1  0  0  0  0
126129  1  0  0  0  0
120130  2  0  0  0  0
130131  1  0  0  0  0
119132  1  0  0  0  0
132133  2  0  0  0  0
133134  1  0  0  0  0
133135  1  0  0  0  0
135136  2  0  0  0  0
136137  1  0  0  0  0
137138  2  0  0  0  0
138139  1  0  0  0  0
139140  1  0  0  0  0
140141  1  0  0  0  0
141142  1  0  0  0  0
142143  1  0  0  0  0
141144  2  0  0  0  0
144145  1  0  0  0  0
144146  1  0  0  0  0
146147  1  0  0  0  0
138148  1  0  0  0  0
148149  2  0  0  0  0
149150  1  0  0  0  0
150151  1  0  0  0  0
151152  1  0  0  0  0
152153  1  0  0  0  0
153154  1  0  0  0  0
154155  1  0  0  0  0
153156  2  0  0  0  0
156157  1  0  0  0  0
157158  1  0  0  0  0
156159  1  0  0  0  0
150160  2  0  0  0  0
160161  1  0  0  0  0
149162  1  0  0  0  0
162163  2  0  0  0  0
163164  1  0  0  0  0
 27  1  1  0  0  0  0
 57 31  1  0  0  0  0
 87 61  1  0  0  0  0
 97 91  1  0  0  0  0
104 98  1  0  0  0  0
131105  1  0  0  0  0
161135  1  0  0  0  0
 26  3  1  0  0  0  0
 56 33  1  0  0  0  0
 86 63  1  0  0  0  0
130107  1  0  0  0  0
160137  1  0  0  0  0
 12  5  2  0  0  0  0
 30 14  1  0  0  0  0
 42 35  2  0  0  0  0
 60 44  1  0  0  0  0
 72 65  2  0  0  0  0
 90 74  1  0  0  0  0
116109  2  0  0  0  0
134118  1  0  0  0  0
146139  2  0  0  0  0
164148  1  0  0  0  0
 23 17  2  0  0  0  0
 53 47  2  0  0  0  0
 83 77  2  0  0  0  0
127121  2  0  0  0  0
157151  2  0  0  0  0
  1165  1  0  0  0  0
  2166  1  0  0  0  0
  8167  1  0  0  0  0
  8168  1  0  0  0  0
  9169  1  0  0  0  0
  9170  1  0  0  0  0
  9171  1  0  0  0  0
 20172  1  0  0  0  0
 20173  1  0  0  0  0
 21174  1  0  0  0  0
 21175  1  0  0  0  0
 21176  1  0  0  0  0
 28177  1  0  0  0  0
 32178  1  0  0  0  0
 38179  1  0  0  0  0
 38180  1  0  0  0  0
 39181  1  0  0  0  0
 39182  1  0  0  0  0
 39183  1  0  0  0  0
 50184  1  0  0  0  0
 50185  1  0  0  0  0
 51186  1  0  0  0  0
 51187  1  0  0  0  0
 51188  1  0  0  0  0
 58189  1  0  0  0  0
 62190  1  0  0  0  0
 68191  1  0  0  0  0
 68192  1  0  0  0  0
 69193  1  0  0  0  0
 69194  1  0  0  0  0
 69195  1  0  0  0  0
 80196  1  0  0  0  0
 80197  1  0  0  0  0
 81198  1  0  0  0  0
 81199  1  0  0  0  0
 81200  1  0  0  0  0
 88201  1  0  0  0  0
 92202  1  0  0  0  0
 95203  1  0  0  0  0
 95204  1  0  0  0  0
 95205  1  0  0  0  0
 99206  1  0  0  0  0
102207  1  0  0  0  0
102208  1  0  0  0  0
102209  1  0  0  0  0
103210  1  0  0  0  0
104211  1  0  0  0  0
106212  1  0  0  0  0
112213  1  0  0  0  0
112214  1  0  0  0  0
113215  1  0  0  0  0
113216  1  0  0  0  0
113217  1  0  0  0  0
124218  1  0  0  0  0
124219  1  0  0  0  0
125220  1  0  0  0  0
125221  1  0  0  0  0
125222  1  0  0  0  0
132223  1  0  0  0  0
136224  1  0  0  0  0
142225  1  0  0  0  0
142226  1  0  0  0  0
143227  1  0  0  0  0
143228  1  0  0  0  0
143229  1  0  0  0  0
154230  1  0  0  0  0
154231  1  0  0  0  0
155232  1  0  0  0  0
155233  1  0  0  0  0
155234  1  0  0  0  0
162235  1  0  0  0  0
163236  1  0  0  0  0
M  END
