230

C          4.89780      -11.03710        6.63790
C          4.96350      -10.61820        5.35780
C          3.77490       -9.95710        4.93170
C          3.46990       -9.43300        3.66710
C          4.39570       -9.50590        2.54810
S          4.82770       -8.06770        1.66890
C          5.85700       -8.94180        0.58880
C          6.54870       -8.25770       -0.53870
C          5.71170       -8.33850       -1.81810
C          5.85030      -10.26920        0.89830
Cl         6.74840      -11.45360        0.04100
C          5.02640      -10.59260        2.01080
Cl         4.79550      -12.20580        2.54960
C          2.23720       -8.80940        3.52600
C          1.30850       -8.66890        4.58340
C          1.60620       -9.20970        5.84470
C          0.66870       -9.10540        6.95170
S         -0.96270       -9.69040        6.80390
C         -1.35100       -9.25480        8.43330
C         -2.72090       -9.45750        8.97970
C         -3.64650       -8.30760        8.57480
C         -0.27410       -8.67810        9.03740
C          0.87420       -8.59740        8.20380
Cl         2.33030       -7.85310        8.71580
Cl        -0.27810       -8.10160       10.65360
C          2.83000       -9.85500        5.98260
S          3.40970      -10.64110        7.42310
C          0.16540       -7.92510        4.18750
C          0.19030       -7.55410        2.87800
S          1.63120       -8.11260        2.05490
C         -0.72890       -6.71680        2.16770
C         -1.47980       -5.70240        2.68030
C         -2.14760       -4.94330        1.68670
C         -2.85440       -3.74020        1.84380
C         -3.00230       -3.10220        3.14170
S         -1.61470       -2.75450        4.13180
C         -2.57530       -1.98420        5.34630
C         -1.94800       -1.36340        6.54510
C         -1.45240        0.05000        6.22970
C         -3.89020       -1.99630        4.98790
Cl        -5.14870       -1.32340        5.94110
C         -4.13670       -2.62890        3.73980
Cl        -5.71690       -2.83490        3.10830
C         -3.31880       -3.12710        0.68750
C         -3.14950       -3.67600       -0.60820
C         -2.45830       -4.89000       -0.76160
C         -2.21170       -5.49500       -2.06100
S         -1.42110       -4.62740       -3.34300
C         -1.43920       -5.99910       -4.39480
C         -0.80520       -5.93920       -5.73990
C          0.70560       -6.16330       -5.63720
C         -2.02600       -7.06150       -3.77550
C         -2.46520       -6.78020       -2.45320
Cl        -3.29310       -7.93360       -1.49360
Cl        -2.23090       -8.60140       -4.50430
C         -1.94580       -5.47500        0.38990
S         -0.87670       -6.84500        0.43030
C         -3.67150       -2.82160       -1.61330
C         -4.16350       -1.64690       -1.12510
S         -4.06970       -1.56180        0.62170
C         -4.65350       -0.50780       -1.83320
C         -5.28750        0.57040       -1.29320
C         -5.57290        1.59290       -2.23080
C         -6.22320        2.81840       -2.00510
C         -6.72580        3.18650       -0.69250
S         -5.71680        3.13500        0.72370
C         -6.99140        3.69540        1.75060
C         -6.76720        3.92930        3.20350
C         -6.20770        5.33200        3.45340
C         -8.12290        3.91460        1.02320
Cl        -9.59950        4.47170        1.69630
C         -7.97770        3.62660       -0.36040
Cl        -9.28330        3.74240       -1.46370
C         -6.34150        3.67620       -3.09250
C         -5.88580        3.34170       -4.38890
C         -5.29910        2.08880       -4.62850
C         -4.86630        1.70880       -5.96080
S         -3.26410        1.10840       -6.24890
C         -3.55550        0.91260       -7.94190
C         -2.48420        0.43540       -8.85830
C         -1.49490        1.55790       -9.17920
C         -4.82580        1.30020       -8.25050
C         -5.57400        1.75060       -7.13020
Cl        -7.22260        2.21690       -7.24520
Cl        -5.48750        1.24620       -9.83380
C         -5.12880        1.25380       -3.53140
S         -4.38580       -0.32240       -3.55710
C         -5.99720        4.44130       -5.28590
C         -6.50450        5.55780       -4.71170
S         -6.92370        5.31570       -3.03160
C         -6.58640        6.91350       -5.27030
C         -5.39450        7.71000       -5.28140
C         -5.45750        9.00770       -5.73850
C         -6.66830        9.54900       -6.20060
C         -7.84720        8.75050       -6.18600
C         -7.77770        7.42910       -5.70100
N         -9.02230        9.24660       -6.62140
C         -9.02560       10.47900       -7.05370
C         -7.85790       11.27100       -7.07120
N         -6.70560       10.82100       -6.65510
C         -4.17430        7.10500       -4.79660
C         -3.08770        7.70530       -4.28350
C         -2.00790        6.93430       -3.74670
C         -0.92250        7.37310       -3.04470
C         -0.09400        6.33010       -2.55620
C          1.05690        6.42310       -1.75080
C          1.53160        7.70390       -1.25300
S          3.17890        8.20890       -1.47890
C          2.92030        9.69640       -0.63350
C          4.03600       10.65460       -0.40370
C          4.86860       10.23590        0.81050
C          1.63180        9.77570       -0.19600
Cl         1.00240       11.10020        0.69570
C          0.83970        8.65050       -0.54960
Cl        -0.79600        8.48060       -0.05560
C          1.69930        5.23540       -1.42080
C          1.22020        3.97550       -1.84660
C          0.06760        3.87660       -2.64250
C         -0.34890        2.55770       -3.10130
S         -0.69600        1.28830       -1.96570
C         -0.68810        0.08060       -3.20180
C         -0.83610       -1.36310       -2.88220
C         -0.35120       -1.69830       -1.47780
C         -0.49440        0.65300       -4.42290
C         -0.31180        2.06040       -4.37250
Cl         0.01700        3.01190       -5.75710
Cl        -0.39620       -0.24530       -5.87510
C         -0.56720        5.05860       -2.97250
S         -2.03460        5.18160       -3.88770
C          2.01820        2.91450       -1.36720
C          3.05230        3.31400       -0.57660
S          3.12020        5.05790       -0.41690
C          3.93840        2.40930        0.08250
C          5.10690        2.62110        0.74780
C          5.68040        1.42990        1.27010
C          6.89150        1.26740        1.96230
C          7.77160        2.39400        2.22680
S          8.32340        3.42510        0.93880
C          9.27520        4.39200        2.01240
C         10.11490        5.51150        1.50460
C         11.47580        5.00010        1.02580
C          9.16430        3.92860        3.28920
Cl         9.96230        4.63330        4.63470
C          8.31120        2.79910        3.41580
Cl         7.94500        2.09140        4.93280
C          7.22940       -0.02570        2.35050
C          6.40310       -1.15040        2.10970
C          5.17890       -0.98580        1.44730
C          4.25730       -2.08470        1.19600
S          4.72160       -3.51540        0.32160
C          3.12550       -4.18110        0.39590
C          2.78240       -5.47860       -0.24620
C          2.12260       -5.27230       -1.61140
C          2.29540       -3.33400        1.06630
C          2.93040       -2.14940        1.52290
Cl         2.09980       -0.97940        2.45960
Cl         0.63340       -3.64920        1.35490
C          4.86420        0.29930        1.02360
S          3.46570        0.71940        0.08860
C          6.98820       -2.35190        2.60420
C          8.20140       -2.15040        3.15800
S          8.70910       -0.49860        3.13620
H          5.64650      -11.56300        7.19750
H          5.82080      -10.76160        4.72690
H          7.51420       -8.73880       -0.70680
H          6.71790       -7.21190       -0.27700
H          6.21780       -7.82000       -2.62770
H          4.73730       -7.88070       -1.66460
H          5.56460       -9.37600       -2.10580
H         -3.12640      -10.39860        8.60430
H         -2.65860       -9.51190       10.06790
H         -4.63960       -8.46590        8.98600
H         -3.26050       -7.36300        8.94970
H         -3.72270       -8.24790        7.49160
H         -0.64420       -7.68200        4.85030
H         -1.50650       -5.46770        3.72800
H         -1.10740       -1.97690        6.87420
H         -2.68780       -1.32220        7.34670
H         -0.71290        0.02150        5.43280
H         -0.99790        0.49160        7.11240
H         -2.28100        0.67800        5.91220
H         -0.99710       -4.96320       -6.18950
H         -1.24890       -6.71040       -6.37170
H          0.91280       -7.13980       -5.20680
H          1.15770       -6.11460       -6.62390
H          1.15760       -5.40160       -5.00610
H         -3.68370       -3.06990       -2.65960
H         -5.54080        0.62710       -0.25020
H         -6.06710        3.18470        3.58610
H         -7.71890        3.81780        3.72640
H         -5.25700        5.45640        2.94020
H         -6.05360        5.48780        4.51770
H         -6.90150        6.08480        3.08770
H         -2.94730        0.07630       -9.77900
H         -1.94860       -0.39190       -8.38890
H         -0.72300        1.19320       -9.85160
H         -1.02280        1.91430       -8.26740
H         -2.00770        2.39040       -9.65460
H         -5.66860        4.40860       -6.30890
H         -4.57800        9.63140       -5.76970
H         -8.68280        6.84170       -5.68040
H         -9.97280       10.86920       -7.40120
H         -7.87860       12.29000       -7.43420
H         -4.16950        6.02260       -4.80380
H         -3.00780        8.77930       -4.19390
H         -0.72410        8.41550       -2.87420
H          3.61680       11.64830       -0.23650
H          4.67490       10.68720       -1.28790
H          4.24790       10.21210        1.70250
H          5.67930       10.94180        0.96880
H          5.29050        9.24590        0.65430
H         -0.27300       -1.93580       -3.62240
H         -1.88600       -1.64870       -2.98280
H         -0.92950       -1.15520       -0.73340
H          0.69660       -1.43220       -1.35720
H         -0.46390       -2.76240       -1.29050
H          1.83720        1.88000       -1.59230
H          5.54530        3.59650        0.85570
H         10.25890        6.23390        2.31010
H          9.60060        6.00450        0.67790
H         11.34640        4.27980        0.22150
H         12.07780        5.82770        0.66050
H         12.00560        4.51750        1.84310
H          3.68850       -6.07490       -0.35540
H          2.09150       -6.01890        0.40320
H          2.79970       -4.75840       -2.28940
H          1.21860       -4.67850       -1.50700
H          1.85610       -6.23440       -2.04070
H          6.51210       -3.31270        2.53510
H          8.85380       -2.87940        3.59750
