225

C          1.75270       -9.98520       11.05310
C          2.76130       -9.32990       10.44320
C          2.34120       -8.63730        9.27040
C          3.10390       -7.81230        8.43020
C          4.52640       -7.60050        8.64870
S          5.64090       -8.93240        8.72730
C          7.00280       -7.88400        8.93360
C          8.37550       -8.42880        9.12080
C          8.61180       -8.83190       10.57830
C          6.59860       -6.58280        8.95370
Cl         7.66320       -5.25180        9.15390
C          5.19730       -6.41710        8.78510
Cl         4.44250       -4.87990        8.83750
C          2.43850       -7.19360        7.37900
C          1.05160       -7.35950        7.14390
C          0.29060       -8.20160        7.97230
C         -1.12510       -8.41870        7.72510
S         -2.23150       -7.08830        7.53600
C         -3.58330       -8.13860        7.28750
C         -4.93480       -7.60240        6.96760
C         -5.12770       -7.50150        5.45200
C         -3.18480       -9.44020        7.34450
C         -1.79570       -9.60380        7.59600
Cl        -1.05080      -11.14600        7.62470
Cl        -4.24570      -10.77160        7.13340
C          0.95760       -8.81560        9.02690
S          0.23150       -9.81750       10.25060
C          0.62020       -6.62570        6.01180
C          1.62280       -5.93640        5.39810
S          3.16940       -6.17200        6.17530
C          1.47750       -5.03950        4.29360
C          0.34470       -4.35370        3.97030
C          0.50570       -3.49230        2.86080
C         -0.46070       -2.66070        2.27110
C         -1.81280       -2.56230        2.79150
S         -2.74650       -3.98120        3.18050
C         -4.12600       -3.05200        3.65370
C         -5.35020       -3.69830        4.20090
C         -5.27420       -3.79330        5.72710
C         -3.86260       -1.72200        3.52090
Cl        -4.98840       -0.48560        3.89760
C         -2.55890       -1.43870        3.03230
Cl        -1.99190        0.17220        2.87570
C         -0.06490       -1.96230        1.13700
C          1.25250       -1.98840        0.61130
C          2.24610       -2.74780        1.26620
C          3.62340       -2.75450        0.80850
S          4.00600       -2.88470       -0.88670
C          5.70700       -2.80500       -0.60430
C          6.67630       -2.87210       -1.73060
C          6.95560       -4.32160       -2.13410
C          5.95480       -2.70930        0.73150
C          4.78390       -2.68080        1.53550
Cl         4.88800       -2.47430        3.23080
Cl         7.52920       -2.60390        1.40330
C          1.83040       -3.51430        2.35410
S          2.80930       -4.64760        3.23970
C          1.34600       -1.23550       -0.58960
C          0.15540       -0.71310       -1.00030
S         -1.14000       -1.05620        0.12620
C         -0.20330       -0.02300       -2.19560
C         -1.47530        0.37120       -2.49050
C         -1.61550        0.93890       -3.77180
C         -2.80790        1.38580       -4.36660
C         -4.10830        1.00410       -3.86330
S         -5.48460        2.06070       -3.99640
C         -6.56520        0.89260       -3.31920
C         -8.01280        1.19710       -3.15540
C         -8.67490        1.48660       -4.50250
C         -5.89000       -0.25490       -3.03020
Cl        -6.61990       -1.64850       -2.34550
C         -4.50710       -0.20690       -3.34930
Cl        -3.52690       -1.61040       -3.22630
C         -2.64700        2.16680       -5.50500
C         -1.41040        2.33220       -6.17950
C         -0.25460        1.66710       -5.69780
C          0.95200        1.57860       -6.50380
S          1.59380        2.93240       -7.38930
C          2.77280        1.97010       -8.20770
C          3.63830        2.53860       -9.27890
C          4.87510        3.25720       -8.73940
C          2.69960        0.68130       -7.76890
C          1.67790        0.45400       -6.80870
Cl         1.33450       -1.12560       -6.23980
Cl         3.69340       -0.58710       -8.36270
C         -0.37920        1.04050       -4.45850
S          0.90220        0.32280       -3.50890
C         -1.55410        3.17020       -7.31840
C         -2.82140        3.65000       -7.46910
S         -3.93350        3.03150       -6.27050
C         -3.37990        4.66220       -8.30180
O         -4.62880        5.03230       -7.97080
C         -4.97520        6.12180       -8.67930
C         -3.95860        6.42720       -9.57030
C         -2.90530        5.48730       -9.31010
C         -1.63310        5.42380       -9.88810
N         -0.57550        5.35110      -10.32630
C         -3.93880        7.47190      -10.50420
N         -3.93250        8.31830      -11.27690
C         -6.19730        6.78540       -8.27960
C         -6.54790        6.86240       -6.98120
C         -5.66640        6.50870       -5.88850
C         -5.92430        5.86230       -4.71800
C         -4.76390        5.60310       -3.93410
C         -4.64250        4.87940       -2.72550
C         -5.78180        4.59830       -1.87950
S         -5.87630        3.13450       -0.94010
C         -7.38640        3.58080       -0.23260
C         -8.09610        2.69390        0.73280
C         -7.38020        1.36700        0.94340
C         -7.77240        4.81040       -0.68270
Cl        -9.22140        5.58420       -0.18240
C         -6.86610        5.39580       -1.60330
Cl        -7.08970        6.99660       -2.17880
C         -3.35280        4.47680       -2.37500
C         -2.19800        4.88480       -3.08510
C         -2.30590        5.77280       -4.16750
C         -1.14800        6.30170       -4.86370
S          0.14930        5.27830       -5.41680
C          1.00890        6.60140       -6.12290
C          2.29920        6.40760       -6.83840
C          2.10020        6.40500       -8.35560
C          0.32080        7.76280       -5.93360
C         -0.89740        7.59960       -5.22250
Cl        -1.87560        8.93450       -4.78050
Cl         0.86710        9.29300       -6.48160
C         -3.59640        6.08310       -4.57420
S         -3.97330        6.95760       -6.01920
C         -1.01280        4.35080       -2.53420
C         -1.22350        3.55310       -1.44910
S         -2.91770        3.44190       -1.03730
C         -0.17850        2.88410       -0.73940
C          1.04960        2.63270       -1.27380
C          1.95990        2.05570       -0.36240
C          3.27530        1.64590       -0.62580
C          3.81710        1.69460       -1.97210
S          4.43370        0.24570       -2.71200
C          4.74660        1.04720       -4.21230
C          5.36530        0.32360       -5.35500
C          6.87170        0.15240       -5.14890
C          4.40450        2.36180       -4.11980
Cl         4.57720        3.49320       -5.38990
C          3.87470        2.73400       -2.85580
Cl         3.44530        4.35800       -2.49050
C          4.00150        1.15260        0.44720
C          3.45150        1.01120        1.74080
C          2.09580        1.30820        1.97620
C          1.48490        0.95880        3.24580
S          1.73220       -0.64750        3.86860
C          0.69570       -0.37550        5.22480
C          0.42450       -1.46070        6.20840
C          1.70040       -2.18340        6.63250
C          0.21170        0.89810        5.19490
C          0.65440        1.65810        4.07650
Cl         0.23680        3.30670        3.87420
Cl        -0.85280        1.54530        6.37340
C          1.38270        1.86390        0.91820
S         -0.28660        2.36800        0.92470
C          4.44430        0.60920        2.68100
C          5.66040        0.44080        2.12350
S          5.68960        0.73170        0.41960
H          1.79650      -10.57630       11.94690
H          3.77250       -9.32160       10.80560
H          8.51200       -9.29950        8.47710
H          9.09670       -7.66250        8.83140
H          7.90410       -9.60190       10.87640
H          9.61990       -9.21870       10.69940
H          8.48760       -7.97210       11.23190
H         -5.05090       -6.61670        7.42030
H         -5.68840       -8.27220        7.38590
H         -6.11130       -7.09840        5.22720
H         -4.37220       -6.85220        5.01560
H         -5.04270       -8.48510        4.99760
H         -0.39110       -6.62300        5.65130
H         -0.56760       -4.45110        4.52760
H         -5.45540       -4.69680        3.77450
H         -6.21920       -3.10160        3.91690
H         -6.16800       -4.27320        6.11580
H         -5.19620       -2.79980        6.16070
H         -4.40410       -4.37200        6.02840
H          7.60510       -2.39000       -1.42030
H          6.26470       -2.32820       -2.58290
H          7.66460       -4.35050       -2.95690
H          7.37250       -4.87330       -1.29540
H          6.03530       -4.80860       -2.44770
H          2.24860       -1.10410       -1.15730
H         -2.28480        0.29120       -1.78780
H         -8.12980        2.06860       -2.50610
H         -8.49440        0.34260       -2.67740
H         -8.59250        0.62400       -5.15880
H         -8.19200        2.33430       -4.98330
H         -9.72730        1.71650       -4.36020
H          3.04730        3.24350       -9.86710
H          3.95240        1.71950       -9.92910
H          5.49260        2.57600       -8.15970
H          5.46620        3.63960       -9.56710
H          4.58440        4.09050       -8.10600
H         -0.75560        3.44450       -7.98080
H         -6.82200        7.19880       -9.05650
H         -7.51910        7.25610       -6.71360
H         -6.89940        5.48910       -4.46400
H         -8.18790        3.22150        1.68740
H         -9.11290        2.52030        0.36720
H         -7.92620        0.75530        1.65660
H         -6.37700        1.53350        1.32870
H         -7.29920        0.82060        0.00630
H          2.74400        5.46390       -6.52150
H          2.97420        7.22280       -6.56610
H          1.42710        5.60590       -8.65560
H          3.05530        6.26400       -8.85360
H          1.67600        7.34990       -8.68320
H         -0.03510        4.57490       -2.91520
H          1.29030        2.84750       -2.29600
H          5.18160        0.89180       -6.26800
H          4.89810       -0.65750       -5.45720
H          7.30200       -0.39230       -5.98480
H          7.35630        1.12320       -5.07890
H          7.06850       -0.39870       -4.23220
H         -0.26250       -2.18340        5.75630
H         -0.07060       -1.02350        7.07730
H          2.20270       -2.60580        5.76500
H          2.38340       -1.49450        7.12310
H          1.46460       -2.98980        7.32210
H          4.25220        0.48260        3.73010
H          6.57270        0.15400        2.60820
