
  xtb     03042218113D
 energy: -406.319880309788 gnorm: 0.000862646725 xtb: 6.4.1 (unknown)
228249  0     0  0            999 V2000
  -13.8466    6.4198   -7.9458 C   0  0  0  0  0  0  0  0  0  0  0  0
  -13.0932    5.5428   -8.6381 C   0  0  0  0  0  0  0  0  0  0  0  0
  -11.9553    5.0856   -7.9071 C   0  0  0  0  0  0  0  0  0  0  0  0
  -10.9630    4.1856   -8.3255 C   0  0  0  0  0  0  0  0  0  0  0  0
  -10.9435    3.6324   -9.6850 C   0  0  0  0  0  0  0  0  0  0  0  0
  -10.8150    2.2638   -9.9006 C   0  0  0  0  0  0  0  0  0  0  0  0
  -10.7753    1.7421  -11.1789 C   0  0  0  0  0  0  0  0  0  0  0  0
  -10.8475    2.5737  -12.2906 C   0  0  0  0  0  0  0  0  0  0  0  0
  -10.8192    2.0382  -13.9685 S   0  0  0  0  0  0  0  0  0  0  0  0
  -10.1227    0.3523  -13.8826 C   0  0  0  0  0  0  0  0  0  0  0  0
   -8.6626    0.3535  -13.4725 C   0  0  0  0  0  0  0  0  0  0  0  0
  -10.9825    3.9440  -12.0591 C   0  0  0  0  0  0  0  0  0  0  0  0
  -11.0621    4.7824  -13.1120 F   0  0  0  0  0  0  0  0  0  0  0  0
  -11.0321    4.4762  -10.7908 C   0  0  0  0  0  0  0  0  0  0  0  0
   -9.9841    3.8629   -7.3963 C   0  0  0  0  0  0  0  0  0  0  0  0
   -9.9396    4.4358   -6.1029 C   0  0  0  0  0  0  0  0  0  0  0  0
  -10.9065    5.3699   -5.6963 C   0  0  0  0  0  0  0  0  0  0  0  0
  -10.8113    5.9968   -4.3728 C   0  0  0  0  0  0  0  0  0  0  0  0
  -11.8931    6.0300   -3.4988 C   0  0  0  0  0  0  0  0  0  0  0  0
  -11.7696    6.5577   -2.2273 C   0  0  0  0  0  0  0  0  0  0  0  0
  -10.5595    7.0792   -1.7846 C   0  0  0  0  0  0  0  0  0  0  0  0
  -10.2489    7.7205   -0.1723 S   0  0  0  0  0  0  0  0  0  0  0  0
  -11.9112    8.0709    0.4949 C   0  0  0  0  0  0  0  0  0  0  0  0
  -12.5904    9.2166   -0.2303 C   0  0  0  0  0  0  0  0  0  0  0  0
   -9.4874    7.0587   -2.6782 C   0  0  0  0  0  0  0  0  0  0  0  0
   -9.5980    6.5389   -3.9471 C   0  0  0  0  0  0  0  0  0  0  0  0
   -8.2954    7.5538   -2.2872 F   0  0  0  0  0  0  0  0  0  0  0  0
  -11.9121    5.6510   -6.6088 C   0  0  0  0  0  0  0  0  0  0  0  0
  -13.2409    6.7538   -6.3587 S   0  0  0  0  0  0  0  0  0  0  0  0
   -8.8467    3.9468   -5.3483 C   0  0  0  0  0  0  0  0  0  0  0  0
   -8.0480    3.0781   -6.0316 C   0  0  0  0  0  0  0  0  0  0  0  0
   -8.6367    2.7793   -7.6526 S   0  0  0  0  0  0  0  0  0  0  0  0
   -6.8448    2.5060   -5.5132 C   0  0  0  0  0  0  0  0  0  0  0  0
   -6.2037    2.9473   -4.3930 C   0  0  0  0  0  0  0  0  0  0  0  0
   -5.0342    2.2181   -4.0788 C   0  0  0  0  0  0  0  0  0  0  0  0
   -4.1708    2.4381   -2.9927 C   0  0  0  0  0  0  0  0  0  0  0  0
   -4.4107    3.5724   -2.0901 C   0  0  0  0  0  0  0  0  0  0  0  0
   -4.5377    4.8620   -2.6070 C   0  0  0  0  0  0  0  0  0  0  0  0
   -4.8515    5.9219   -1.7846 C   0  0  0  0  0  0  0  0  0  0  0  0
   -5.0544    5.7379   -0.4188 C   0  0  0  0  0  0  0  0  0  0  0  0
   -5.4783    7.1570    0.5466 S   0  0  0  0  0  0  0  0  0  0  0  0
   -6.8600    6.5531    1.5973 C   0  0  0  0  0  0  0  0  0  0  0  0
   -6.4814    6.4884    3.0632 C   0  0  0  0  0  0  0  0  0  0  0  0
   -4.8719    4.4559    0.0909 C   0  0  0  0  0  0  0  0  0  0  0  0
   -5.0104    4.2172    1.4134 F   0  0  0  0  0  0  0  0  0  0  0  0
   -4.5606    3.3831   -0.7215 C   0  0  0  0  0  0  0  0  0  0  0  0
   -3.1261    1.5433   -2.8457 C   0  0  0  0  0  0  0  0  0  0  0  0
   -2.8918    0.4898   -3.7649 C   0  0  0  0  0  0  0  0  0  0  0  0
   -3.7272    0.3021   -4.8800 C   0  0  0  0  0  0  0  0  0  0  0  0
   -3.4292   -0.7707   -5.8370 C   0  0  0  0  0  0  0  0  0  0  0  0
   -4.3791   -1.7268   -6.1893 C   0  0  0  0  0  0  0  0  0  0  0  0
   -4.0340   -2.7892   -6.9970 C   0  0  0  0  0  0  0  0  0  0  0  0
   -2.7439   -2.9303   -7.5087 C   0  0  0  0  0  0  0  0  0  0  0  0
   -2.4290   -4.3501   -8.5108 S   0  0  0  0  0  0  0  0  0  0  0  0
   -0.6766   -4.7845   -8.1970 C   0  0  0  0  0  0  0  0  0  0  0  0
   -0.3880   -5.0487   -6.7336 C   0  0  0  0  0  0  0  0  0  0  0  0
   -1.8306   -1.9217   -7.2153 C   0  0  0  0  0  0  0  0  0  0  0  0
   -2.1515   -0.8728   -6.3790 C   0  0  0  0  0  0  0  0  0  0  0  0
   -0.5834   -1.9339   -7.7367 F   0  0  0  0  0  0  0  0  0  0  0  0
   -4.8059    1.1633   -4.9967 C   0  0  0  0  0  0  0  0  0  0  0  0
   -6.0211    1.1483   -6.2520 S   0  0  0  0  0  0  0  0  0  0  0  0
   -1.7777   -0.2957   -3.3840 C   0  0  0  0  0  0  0  0  0  0  0  0
   -1.1580    0.1394   -2.2513 C   0  0  0  0  0  0  0  0  0  0  0  0
   -1.9302    1.5597   -1.5735 S   0  0  0  0  0  0  0  0  0  0  0  0
   -0.0088   -0.4493   -1.6479 C   0  0  0  0  0  0  0  0  0  0  0  0
    0.6803   -0.0603   -0.5399 C   0  0  0  0  0  0  0  0  0  0  0  0
    1.8014   -0.8832   -0.2572 C   0  0  0  0  0  0  0  0  0  0  0  0
    2.7410   -0.7541    0.7715 C   0  0  0  0  0  0  0  0  0  0  0  0
    2.7052    0.2723    1.8244 C   0  0  0  0  0  0  0  0  0  0  0  0
    2.7059    1.6361    1.5578 C   0  0  0  0  0  0  0  0  0  0  0  0
    2.8080    2.5643    2.5801 C   0  0  0  0  0  0  0  0  0  0  0  0
    2.9022    2.1616    3.9081 C   0  0  0  0  0  0  0  0  0  0  0  0
    3.1150    3.1993    5.3137 S   0  0  0  0  0  0  0  0  0  0  0  0
    3.1392    4.8986    4.6528 C   0  0  0  0  0  0  0  0  0  0  0  0
    1.7490    5.4210    4.3437 C   0  0  0  0  0  0  0  0  0  0  0  0
    2.8532    0.7883    4.1608 C   0  0  0  0  0  0  0  0  0  0  0  0
    2.9133    0.3554    5.4380 F   0  0  0  0  0  0  0  0  0  0  0  0
    2.7620   -0.1436    3.1559 C   0  0  0  0  0  0  0  0  0  0  0  0
    3.7681   -1.6873    0.7851 C   0  0  0  0  0  0  0  0  0  0  0  0
    3.8937   -2.7667   -0.1211 C   0  0  0  0  0  0  0  0  0  0  0  0
    2.9372   -2.9067   -1.1382 C   0  0  0  0  0  0  0  0  0  0  0  0
    2.9941   -3.9611   -2.1595 C   0  0  0  0  0  0  0  0  0  0  0  0
    4.1423   -4.1739   -2.9199 C   0  0  0  0  0  0  0  0  0  0  0  0
    4.1448   -5.1023   -3.9392 C   0  0  0  0  0  0  0  0  0  0  0  0
    3.0091   -5.8506   -4.2476 C   0  0  0  0  0  0  0  0  0  0  0  0
    3.1138   -6.9197   -5.6530 S   0  0  0  0  0  0  0  0  0  0  0  0
    2.0949   -8.3783   -5.2196 C   0  0  0  0  0  0  0  0  0  0  0  0
    2.5824   -9.0591   -3.9571 C   0  0  0  0  0  0  0  0  0  0  0  0
    1.8732   -5.6323   -3.4748 C   0  0  0  0  0  0  0  0  0  0  0  0
    1.8618   -4.7185   -2.4416 C   0  0  0  0  0  0  0  0  0  0  0  0
    0.7259   -6.3062   -3.7144 F   0  0  0  0  0  0  0  0  0  0  0  0
    1.9276   -1.9529   -1.1801 C   0  0  0  0  0  0  0  0  0  0  0  0
    0.6794   -1.8808   -2.3940 S   0  0  0  0  0  0  0  0  0  0  0  0
    5.0272   -3.5848    0.1792 C   0  0  0  0  0  0  0  0  0  0  0  0
    5.7637   -3.1112    1.2123 C   0  0  0  0  0  0  0  0  0  0  0  0
    5.0938   -1.6349    1.8996 S   0  0  0  0  0  0  0  0  0  0  0  0
    6.9151   -3.5408    1.9776 C   0  0  0  0  0  0  0  0  0  0  0  0
    7.0156   -4.5630    2.8686 C   0  0  0  0  0  0  0  0  0  0  0  0
    7.9706   -4.3200    3.9002 C   0  0  0  0  0  0  0  0  0  0  0  0
    8.1255   -4.9952    5.1231 C   0  0  0  0  0  0  0  0  0  0  0  0
    7.4708   -6.2783    5.4188 C   0  0  0  0  0  0  0  0  0  0  0  0
    6.0943   -6.4420    5.3091 C   0  0  0  0  0  0  0  0  0  0  0  0
    5.4926   -7.6483    5.6140 C   0  0  0  0  0  0  0  0  0  0  0  0
    6.2495   -8.7378    6.0293 C   0  0  0  0  0  0  0  0  0  0  0  0
    5.6217  -10.3262    6.4543 S   0  0  0  0  0  0  0  0  0  0  0  0
    3.8924  -10.3009    5.8681 C   0  0  0  0  0  0  0  0  0  0  0  0
    3.7948  -10.3569    4.3552 C   0  0  0  0  0  0  0  0  0  0  0  0
    7.6285   -8.5514    6.1532 C   0  0  0  0  0  0  0  0  0  0  0  0
    8.3910   -9.5819    6.5636 F   0  0  0  0  0  0  0  0  0  0  0  0
    8.2384   -7.3517    5.8659 C   0  0  0  0  0  0  0  0  0  0  0  0
    8.8320   -4.3297    6.1171 C   0  0  0  0  0  0  0  0  0  0  0  0
    9.4273   -3.0586    5.9232 C   0  0  0  0  0  0  0  0  0  0  0  0
    9.3977   -2.4510    4.6625 C   0  0  0  0  0  0  0  0  0  0  0  0
    9.9527   -1.1121    4.4086 C   0  0  0  0  0  0  0  0  0  0  0  0
    9.4743    0.0026    5.0925 C   0  0  0  0  0  0  0  0  0  0  0  0
    9.9552    1.2615    4.8010 C   0  0  0  0  0  0  0  0  0  0  0  0
   10.9394    1.4508    3.8347 C   0  0  0  0  0  0  0  0  0  0  0  0
   11.5280    3.0990    3.5654 S   0  0  0  0  0  0  0  0  0  0  0  0
   11.5486    3.2348    1.7391 C   0  0  0  0  0  0  0  0  0  0  0  0
   10.1796    2.9793    1.1416 C   0  0  0  0  0  0  0  0  0  0  0  0
   11.4225    0.3248    3.1751 C   0  0  0  0  0  0  0  0  0  0  0  0
   10.9268   -0.9378    3.4333 C   0  0  0  0  0  0  0  0  0  0  0  0
   12.3996    0.4325    2.2492 F   0  0  0  0  0  0  0  0  0  0  0  0
    8.6459   -3.0903    3.6954 C   0  0  0  0  0  0  0  0  0  0  0  0
    8.1451   -2.3118    2.2248 S   0  0  0  0  0  0  0  0  0  0  0  0
    9.7980   -2.4521    7.1443 C   0  0  0  0  0  0  0  0  0  0  0  0
    9.4773   -3.2042    8.2369 C   0  0  0  0  0  0  0  0  0  0  0  0
    8.8437   -4.7837    7.8102 S   0  0  0  0  0  0  0  0  0  0  0  0
    9.3116   -2.6273    9.5379 C   0  0  0  0  0  0  0  0  0  0  0  0
    8.9629   -1.3233    9.5154 O   0  0  0  0  0  0  0  0  0  0  0  0
    8.6412   -0.9307   10.7659 C   0  0  0  0  0  0  0  0  0  0  0  0
    8.8326   -1.9944   11.6409 C   0  0  0  0  0  0  0  0  0  0  0  0
    9.2565   -3.1020   10.8382 C   0  0  0  0  0  0  0  0  0  0  0  0
    9.5555   -4.3993   11.2777 C   0  0  0  0  0  0  0  0  0  0  0  0
    9.8032   -5.4588   11.6369 N   0  0  0  0  0  0  0  0  0  0  0  0
    8.6221   -1.9842   13.0257 C   0  0  0  0  0  0  0  0  0  0  0  0
    8.4442   -1.9597   14.1579 N   0  0  0  0  0  0  0  0  0  0  0  0
    8.0386    0.3503   10.9377 C   0  0  0  0  0  0  0  0  0  0  0  0
    7.7531    1.1100    9.8542 C   0  0  0  0  0  0  0  0  0  0  0  0
    6.9958    2.3102    9.8261 C   0  0  0  0  0  0  0  0  0  0  0  0
    6.4810    2.8936   10.9267 O   0  0  0  0  0  0  0  0  0  0  0  0
    5.7482    3.9620   10.5497 C   0  0  0  0  0  0  0  0  0  0  0  0
    5.7813    4.0892    9.1657 C   0  0  0  0  0  0  0  0  0  0  0  0
    6.5958    3.0184    8.6950 C   0  0  0  0  0  0  0  0  0  0  0  0
    6.9411    2.7260    7.3702 C   0  0  0  0  0  0  0  0  0  0  0  0
    7.2519    2.4781    6.2946 N   0  0  0  0  0  0  0  0  0  0  0  0
    5.1524    5.0372    8.3484 C   0  0  0  0  0  0  0  0  0  0  0  0
    4.6478    5.7875    7.6426 N   0  0  0  0  0  0  0  0  0  0  0  0
    5.1011    4.7373   11.5711 C   0  0  0  0  0  0  0  0  0  0  0  0
    4.3430    5.8084   11.3459 C   0  0  0  0  0  0  0  0  0  0  0  0
  -14.7483    6.9077   -8.2606 H   0  0  0  0  0  0  0  0  0  0  0  0
  -13.3308    5.2078   -9.6312 H   0  0  0  0  0  0  0  0  0  0  0  0
  -10.7674    1.5922   -9.0572 H   0  0  0  0  0  0  0  0  0  0  0  0
  -10.6945    0.6744  -11.3012 H   0  0  0  0  0  0  0  0  0  0  0  0
  -10.7423   -0.2509  -13.2201 H   0  0  0  0  0  0  0  0  0  0  0  0
  -10.2402   -0.0206  -14.9001 H   0  0  0  0  0  0  0  0  0  0  0  0
   -8.5355    0.7698  -12.4752 H   0  0  0  0  0  0  0  0  0  0  0  0
   -8.0783    0.9495  -14.1696 H   0  0  0  0  0  0  0  0  0  0  0  0
   -8.2766   -0.6640  -13.4757 H   0  0  0  0  0  0  0  0  0  0  0  0
  -11.1091    5.5456  -10.6713 H   0  0  0  0  0  0  0  0  0  0  0  0
  -12.8392    5.6103   -3.8038 H   0  0  0  0  0  0  0  0  0  0  0  0
  -12.6267    6.5402   -1.5739 H   0  0  0  0  0  0  0  0  0  0  0  0
  -12.4986    7.1537    0.4704 H   0  0  0  0  0  0  0  0  0  0  0  0
  -11.7173    8.3299    1.5359 H   0  0  0  0  0  0  0  0  0  0  0  0
  -11.9821   10.1156   -0.1636 H   0  0  0  0  0  0  0  0  0  0  0  0
  -13.5597    9.4173    0.2221 H   0  0  0  0  0  0  0  0  0  0  0  0
  -12.7399    8.9808   -1.2821 H   0  0  0  0  0  0  0  0  0  0  0  0
   -8.7435    6.5748   -4.6047 H   0  0  0  0  0  0  0  0  0  0  0  0
   -8.6790    4.2116   -4.3215 H   0  0  0  0  0  0  0  0  0  0  0  0
   -6.5502    3.7727   -3.7999 H   0  0  0  0  0  0  0  0  0  0  0  0
   -4.3885    5.0273   -3.6635 H   0  0  0  0  0  0  0  0  0  0  0  0
   -4.9688    6.9157   -2.1872 H   0  0  0  0  0  0  0  0  0  0  0  0
   -7.1601    5.5817    1.2113 H   0  0  0  0  0  0  0  0  0  0  0  0
   -7.6682    7.2648    1.4271 H   0  0  0  0  0  0  0  0  0  0  0  0
   -7.3409    6.1687    3.6493 H   0  0  0  0  0  0  0  0  0  0  0  0
   -5.6714    5.7812    3.2200 H   0  0  0  0  0  0  0  0  0  0  0  0
   -6.1629    7.4669    3.4151 H   0  0  0  0  0  0  0  0  0  0  0  0
   -4.4538    2.4052   -0.2782 H   0  0  0  0  0  0  0  0  0  0  0  0
   -5.3805   -1.6578   -5.7933 H   0  0  0  0  0  0  0  0  0  0  0  0
   -4.7618   -3.5479   -7.2395 H   0  0  0  0  0  0  0  0  0  0  0  0
   -0.0397   -4.0015   -8.6022 H   0  0  0  0  0  0  0  0  0  0  0  0
   -0.5445   -5.6897   -8.7902 H   0  0  0  0  0  0  0  0  0  0  0  0
   -0.5056   -4.1451   -6.1388 H   0  0  0  0  0  0  0  0  0  0  0  0
    0.6389   -5.3929   -6.6281 H   0  0  0  0  0  0  0  0  0  0  0  0
   -1.0564   -5.8107   -6.3385 H   0  0  0  0  0  0  0  0  0  0  0  0
   -1.4009   -0.1241   -6.1765 H   0  0  0  0  0  0  0  0  0  0  0  0
   -1.4510   -1.1687   -3.9200 H   0  0  0  0  0  0  0  0  0  0  0  0
    0.4009    0.7898    0.0567 H   0  0  0  0  0  0  0  0  0  0  0  0
    2.6631    1.9800    0.5351 H   0  0  0  0  0  0  0  0  0  0  0  0
    2.8331    3.6115    2.3260 H   0  0  0  0  0  0  0  0  0  0  0  0
    3.5995    5.4733    5.4575 H   0  0  0  0  0  0  0  0  0  0  0  0
    3.7993    4.9163    3.7868 H   0  0  0  0  0  0  0  0  0  0  0  0
    1.1394    5.4147    5.2440 H   0  0  0  0  0  0  0  0  0  0  0  0
    1.8134    6.4432    3.9760 H   0  0  0  0  0  0  0  0  0  0  0  0
    1.2524    4.8111    3.5918 H   0  0  0  0  0  0  0  0  0  0  0  0
    2.7291   -1.1904    3.4142 H   0  0  0  0  0  0  0  0  0  0  0  0
    5.0274   -3.5874   -2.7264 H   0  0  0  0  0  0  0  0  0  0  0  0
    5.0315   -5.2551   -4.5348 H   0  0  0  0  0  0  0  0  0  0  0  0
    1.0529   -8.0757   -5.1448 H   0  0  0  0  0  0  0  0  0  0  0  0
    2.2151   -9.0271   -6.0875 H   0  0  0  0  0  0  0  0  0  0  0  0
    2.0053   -9.9654   -3.7851 H   0  0  0  0  0  0  0  0  0  0  0  0
    2.4628   -8.4073   -3.0936 H   0  0  0  0  0  0  0  0  0  0  0  0
    3.6334   -9.3252   -4.0478 H   0  0  0  0  0  0  0  0  0  0  0  0
    0.9550   -4.6018   -1.8688 H   0  0  0  0  0  0  0  0  0  0  0  0
    5.2708   -4.4792   -0.3657 H   0  0  0  0  0  0  0  0  0  0  0  0
    6.3576   -5.4127    2.8572 H   0  0  0  0  0  0  0  0  0  0  0  0
    5.4783   -5.6055    5.0151 H   0  0  0  0  0  0  0  0  0  0  0  0
    4.4204   -7.7260    5.5352 H   0  0  0  0  0  0  0  0  0  0  0  0
    3.3927   -9.4292    6.2885 H   0  0  0  0  0  0  0  0  0  0  0  0
    3.4604  -11.1958    6.3160 H   0  0  0  0  0  0  0  0  0  0  0  0
    2.7497  -10.3762    4.0517 H   0  0  0  0  0  0  0  0  0  0  0  0
    4.2738   -9.4933    3.8987 H   0  0  0  0  0  0  0  0  0  0  0  0
    4.2821  -11.2546    3.9823 H   0  0  0  0  0  0  0  0  0  0  0  0
    9.3080   -7.2648    5.9757 H   0  0  0  0  0  0  0  0  0  0  0  0
    8.6863   -0.1097    5.8213 H   0  0  0  0  0  0  0  0  0  0  0  0
    9.5532    2.1232    5.3099 H   0  0  0  0  0  0  0  0  0  0  0  0
   11.8688    4.2623    1.5668 H   0  0  0  0  0  0  0  0  0  0  0  0
   12.3014    2.5579    1.3415 H   0  0  0  0  0  0  0  0  0  0  0  0
    9.8631    1.9527    1.3189 H   0  0  0  0  0  0  0  0  0  0  0  0
    9.4414    3.6469    1.5808 H   0  0  0  0  0  0  0  0  0  0  0  0
   10.2112    3.1493    0.0672 H   0  0  0  0  0  0  0  0  0  0  0  0
   11.3232   -1.7788    2.8854 H   0  0  0  0  0  0  0  0  0  0  0  0
   10.2249   -1.4681    7.2131 H   0  0  0  0  0  0  0  0  0  0  0  0
    7.7538    0.6388   11.9378 H   0  0  0  0  0  0  0  0  0  0  0  0
    8.0668    0.7688    8.8765 H   0  0  0  0  0  0  0  0  0  0  0  0
    5.2778    4.3772   12.5755 H   0  0  0  0  0  0  0  0  0  0  0  0
    4.1571    6.1802   10.3528 H   0  0  0  0  0  0  0  0  0  0  0  0
    3.8875    6.3448   12.1588 H   0  0  0  0  0  0  0  0  0  0  0  0
  1  2  2  0  0  0  0
  2  3  1  0  0  0  0
  3  4  2  0  0  0  0
  4  5  1  0  0  0  0
  5  6  2  0  0  0  0
  6  7  1  0  0  0  0
  7  8  2  0  0  0  0
  8  9  1  0  0  0  0
  9 10  1  0  0  0  0
 10 11  1  0  0  0  0
  8 12  1  0  0  0  0
 12 13  1  0  0  0  0
 12 14  2  0  0  0  0
  4 15  1  0  0  0  0
 15 16  2  0  0  0  0
 16 17  1  0  0  0  0
 17 18  1  0  0  0  0
 18 19  2  0  0  0  0
 19 20  1  0  0  0  0
 20 21  2  0  0  0  0
 21 22  1  0  0  0  0
 22 23  1  0  0  0  0
 23 24  1  0  0  0  0
 21 25  1  0  0  0  0
 25 26  2  0  0  0  0
 25 27  1  0  0  0  0
 17 28  2  0  0  0  0
 28 29  1  0  0  0  0
 16 30  1  0  0  0  0
 30 31  2  0  0  0  0
 31 32  1  0  0  0  0
 31 33  1  0  0  0  0
 33 34  2  0  0  0  0
 34 35  1  0  0  0  0
 35 36  2  0  0  0  0
 36 37  1  0  0  0  0
 37 38  2  0  0  0  0
 38 39  1  0  0  0  0
 39 40  2  0  0  0  0
 40 41  1  0  0  0  0
 41 42  1  0  0  0  0
 42 43  1  0  0  0  0
 40 44  1  0  0  0  0
 44 45  1  0  0  0  0
 44 46  2  0  0  0  0
 36 47  1  0  0  0  0
 47 48  2  0  0  0  0
 48 49  1  0  0  0  0
 49 50  1  0  0  0  0
 50 51  2  0  0  0  0
 51 52  1  0  0  0  0
 52 53  2  0  0  0  0
 53 54  1  0  0  0  0
 54 55  1  0  0  0  0
 55 56  1  0  0  0  0
 53 57  1  0  0  0  0
 57 58  2  0  0  0  0
 57 59  1  0  0  0  0
 49 60  2  0  0  0  0
 60 61  1  0  0  0  0
 48 62  1  0  0  0  0
 62 63  2  0  0  0  0
 63 64  1  0  0  0  0
 63 65  1  0  0  0  0
 65 66  2  0  0  0  0
 66 67  1  0  0  0  0
 67 68  2  0  0  0  0
 68 69  1  0  0  0  0
 69 70  2  0  0  0  0
 70 71  1  0  0  0  0
 71 72  2  0  0  0  0
 72 73  1  0  0  0  0
 73 74  1  0  0  0  0
 74 75  1  0  0  0  0
 72 76  1  0  0  0  0
 76 77  1  0  0  0  0
 76 78  2  0  0  0  0
 68 79  1  0  0  0  0
 79 80  2  0  0  0  0
 80 81  1  0  0  0  0
 81 82  1  0  0  0  0
 82 83  2  0  0  0  0
 83 84  1  0  0  0  0
 84 85  2  0  0  0  0
 85 86  1  0  0  0  0
 86 87  1  0  0  0  0
 87 88  1  0  0  0  0
 85 89  1  0  0  0  0
 89 90  2  0  0  0  0
 89 91  1  0  0  0  0
 81 92  2  0  0  0  0
 92 93  1  0  0  0  0
 80 94  1  0  0  0  0
 94 95  2  0  0  0  0
 95 96  1  0  0  0  0
 95 97  1  0  0  0  0
 97 98  2  0  0  0  0
 98 99  1  0  0  0  0
 99100  2  0  0  0  0
100101  1  0  0  0  0
101102  2  0  0  0  0
102103  1  0  0  0  0
103104  2  0  0  0  0
104105  1  0  0  0  0
105106  1  0  0  0  0
106107  1  0  0  0  0
104108  1  0  0  0  0
108109  1  0  0  0  0
108110  2  0  0  0  0
100111  1  0  0  0  0
111112  2  0  0  0  0
112113  1  0  0  0  0
113114  1  0  0  0  0
114115  2  0  0  0  0
115116  1  0  0  0  0
116117  2  0  0  0  0
117118  1  0  0  0  0
118119  1  0  0  0  0
119120  1  0  0  0  0
117121  1  0  0  0  0
121122  2  0  0  0  0
121123  1  0  0  0  0
113124  2  0  0  0  0
124125  1  0  0  0  0
112126  1  0  0  0  0
126127  2  0  0  0  0
127128  1  0  0  0  0
127129  1  0  0  0  0
129130  1  0  0  0  0
130131  1  0  0  0  0
131132  2  0  0  0  0
132133  1  0  0  0  0
133134  1  0  0  0  0
134135  3  0  0  0  0
132136  1  0  0  0  0
136137  3  0  0  0  0
131138  1  0  0  0  0
138139  2  0  0  0  0
139140  1  0  0  0  0
140141  1  0  0  0  0
141142  1  0  0  0  0
142143  2  0  0  0  0
143144  1  0  0  0  0
144145  1  0  0  0  0
145146  3  0  0  0  0
143147  1  0  0  0  0
147148  3  0  0  0  0
142149  1  0  0  0  0
149150  2  0  0  0  0
 29  1  1  0  0  0  0
 61 33  1  0  0  0  0
 93 65  1  0  0  0  0
125 97  1  0  0  0  0
133129  2  0  0  0  0
144140  2  0  0  0  0
 28  3  1  0  0  0  0
 60 35  1  0  0  0  0
 92 67  1  0  0  0  0
124 99  1  0  0  0  0
 14  5  1  0  0  0  0
 32 15  1  0  0  0  0
 46 37  1  0  0  0  0
 64 47  1  0  0  0  0
 78 69  1  0  0  0  0
 96 79  1  0  0  0  0
110101  1  0  0  0  0
128111  1  0  0  0  0
 26 18  1  0  0  0  0
 58 50  1  0  0  0  0
 90 82  1  0  0  0  0
122114  1  0  0  0  0
  1151  1  0  0  0  0
  2152  1  0  0  0  0
  6153  1  0  0  0  0
  7154  1  0  0  0  0
 10155  1  0  0  0  0
 10156  1  0  0  0  0
 11157  1  0  0  0  0
 11158  1  0  0  0  0
 11159  1  0  0  0  0
 14160  1  0  0  0  0
 19161  1  0  0  0  0
 20162  1  0  0  0  0
 23163  1  0  0  0  0
 23164  1  0  0  0  0
 24165  1  0  0  0  0
 24166  1  0  0  0  0
 24167  1  0  0  0  0
 26168  1  0  0  0  0
 30169  1  0  0  0  0
 34170  1  0  0  0  0
 38171  1  0  0  0  0
 39172  1  0  0  0  0
 42173  1  0  0  0  0
 42174  1  0  0  0  0
 43175  1  0  0  0  0
 43176  1  0  0  0  0
 43177  1  0  0  0  0
 46178  1  0  0  0  0
 51179  1  0  0  0  0
 52180  1  0  0  0  0
 55181  1  0  0  0  0
 55182  1  0  0  0  0
 56183  1  0  0  0  0
 56184  1  0  0  0  0
 56185  1  0  0  0  0
 58186  1  0  0  0  0
 62187  1  0  0  0  0
 66188  1  0  0  0  0
 70189  1  0  0  0  0
 71190  1  0  0  0  0
 74191  1  0  0  0  0
 74192  1  0  0  0  0
 75193  1  0  0  0  0
 75194  1  0  0  0  0
 75195  1  0  0  0  0
 78196  1  0  0  0  0
 83197  1  0  0  0  0
 84198  1  0  0  0  0
 87199  1  0  0  0  0
 87200  1  0  0  0  0
 88201  1  0  0  0  0
 88202  1  0  0  0  0
 88203  1  0  0  0  0
 90204  1  0  0  0  0
 94205  1  0  0  0  0
 98206  1  0  0  0  0
102207  1  0  0  0  0
103208  1  0  0  0  0
106209  1  0  0  0  0
106210  1  0  0  0  0
107211  1  0  0  0  0
107212  1  0  0  0  0
107213  1  0  0  0  0
110214  1  0  0  0  0
115215  1  0  0  0  0
116216  1  0  0  0  0
119217  1  0  0  0  0
119218  1  0  0  0  0
120219  1  0  0  0  0
120220  1  0  0  0  0
120221  1  0  0  0  0
122222  1  0  0  0  0
126223  1  0  0  0  0
138224  1  0  0  0  0
139225  1  0  0  0  0
149226  1  0  0  0  0
150227  1  0  0  0  0
150228  1  0  0  0  0
M  END
