228

C        -13.84660        6.41980       -7.94580
C        -13.09320        5.54280       -8.63810
C        -11.95530        5.08560       -7.90710
C        -10.96300        4.18560       -8.32550
C        -10.94350        3.63240       -9.68500
C        -10.81500        2.26380       -9.90060
C        -10.77530        1.74210      -11.17890
C        -10.84750        2.57370      -12.29060
S        -10.81920        2.03820      -13.96850
C        -10.12270        0.35230      -13.88260
C         -8.66260        0.35350      -13.47250
C        -10.98250        3.94400      -12.05910
F        -11.06210        4.78240      -13.11200
C        -11.03210        4.47620      -10.79080
C         -9.98410        3.86290       -7.39630
C         -9.93960        4.43580       -6.10290
C        -10.90650        5.36990       -5.69630
C        -10.81130        5.99680       -4.37280
C        -11.89310        6.03000       -3.49880
C        -11.76960        6.55770       -2.22730
C        -10.55950        7.07920       -1.78460
S        -10.24890        7.72050       -0.17230
C        -11.91120        8.07090        0.49490
C        -12.59040        9.21660       -0.23030
C         -9.48740        7.05870       -2.67820
C         -9.59800        6.53890       -3.94710
F         -8.29540        7.55380       -2.28720
C        -11.91210        5.65100       -6.60880
S        -13.24090        6.75380       -6.35870
C         -8.84670        3.94680       -5.34830
C         -8.04800        3.07810       -6.03160
S         -8.63670        2.77930       -7.65260
C         -6.84480        2.50600       -5.51320
C         -6.20370        2.94730       -4.39300
C         -5.03420        2.21810       -4.07880
C         -4.17080        2.43810       -2.99270
C         -4.41070        3.57240       -2.09010
C         -4.53770        4.86200       -2.60700
C         -4.85150        5.92190       -1.78460
C         -5.05440        5.73790       -0.41880
S         -5.47830        7.15700        0.54660
C         -6.86000        6.55310        1.59730
C         -6.48140        6.48840        3.06320
C         -4.87190        4.45590        0.09090
F         -5.01040        4.21720        1.41340
C         -4.56060        3.38310       -0.72150
C         -3.12610        1.54330       -2.84570
C         -2.89180        0.48980       -3.76490
C         -3.72720        0.30210       -4.88000
C         -3.42920       -0.77070       -5.83700
C         -4.37910       -1.72680       -6.18930
C         -4.03400       -2.78920       -6.99700
C         -2.74390       -2.93030       -7.50870
S         -2.42900       -4.35010       -8.51080
C         -0.67660       -4.78450       -8.19700
C         -0.38800       -5.04870       -6.73360
C         -1.83060       -1.92170       -7.21530
C         -2.15150       -0.87280       -6.37900
F         -0.58340       -1.93390       -7.73670
C         -4.80590        1.16330       -4.99670
S         -6.02110        1.14830       -6.25200
C         -1.77770       -0.29570       -3.38400
C         -1.15800        0.13940       -2.25130
S         -1.93020        1.55970       -1.57350
C         -0.00880       -0.44930       -1.64790
C          0.68030       -0.06030       -0.53990
C          1.80140       -0.88320       -0.25720
C          2.74100       -0.75410        0.77150
C          2.70520        0.27230        1.82440
C          2.70590        1.63610        1.55780
C          2.80800        2.56430        2.58010
C          2.90220        2.16160        3.90810
S          3.11500        3.19930        5.31370
C          3.13920        4.89860        4.65280
C          1.74900        5.42100        4.34370
C          2.85320        0.78830        4.16080
F          2.91330        0.35540        5.43800
C          2.76200       -0.14360        3.15590
C          3.76810       -1.68730        0.78510
C          3.89370       -2.76670       -0.12110
C          2.93720       -2.90670       -1.13820
C          2.99410       -3.96110       -2.15950
C          4.14230       -4.17390       -2.91990
C          4.14480       -5.10230       -3.93920
C          3.00910       -5.85060       -4.24760
S          3.11380       -6.91970       -5.65300
C          2.09490       -8.37830       -5.21960
C          2.58240       -9.05910       -3.95710
C          1.87320       -5.63230       -3.47480
C          1.86180       -4.71850       -2.44160
F          0.72590       -6.30620       -3.71440
C          1.92760       -1.95290       -1.18010
S          0.67940       -1.88080       -2.39400
C          5.02720       -3.58480        0.17920
C          5.76370       -3.11120        1.21230
S          5.09380       -1.63490        1.89960
C          6.91510       -3.54080        1.97760
C          7.01560       -4.56300        2.86860
C          7.97060       -4.32000        3.90020
C          8.12550       -4.99520        5.12310
C          7.47080       -6.27830        5.41880
C          6.09430       -6.44200        5.30910
C          5.49260       -7.64830        5.61400
C          6.24950       -8.73780        6.02930
S          5.62170      -10.32620        6.45430
C          3.89240      -10.30090        5.86810
C          3.79480      -10.35690        4.35520
C          7.62850       -8.55140        6.15320
F          8.39100       -9.58190        6.56360
C          8.23840       -7.35170        5.86590
C          8.83200       -4.32970        6.11710
C          9.42730       -3.05860        5.92320
C          9.39770       -2.45100        4.66250
C          9.95270       -1.11210        4.40860
C          9.47430        0.00260        5.09250
C          9.95520        1.26150        4.80100
C         10.93940        1.45080        3.83470
S         11.52800        3.09900        3.56540
C         11.54860        3.23480        1.73910
C         10.17960        2.97930        1.14160
C         11.42250        0.32480        3.17510
C         10.92680       -0.93780        3.43330
F         12.39960        0.43250        2.24920
C          8.64590       -3.09030        3.69540
S          8.14510       -2.31180        2.22480
C          9.79800       -2.45210        7.14430
C          9.47730       -3.20420        8.23690
S          8.84370       -4.78370        7.81020
C          9.31160       -2.62730        9.53790
O          8.96290       -1.32330        9.51540
C          8.64120       -0.93070       10.76590
C          8.83260       -1.99440       11.64090
C          9.25650       -3.10200       10.83820
C          9.55550       -4.39930       11.27770
N          9.80320       -5.45880       11.63690
C          8.62210       -1.98420       13.02570
N          8.44420       -1.95970       14.15790
C          8.03860        0.35030       10.93770
C          7.75310        1.11000        9.85420
C          6.99580        2.31020        9.82610
O          6.48100        2.89360       10.92670
C          5.74820        3.96200       10.54970
C          5.78130        4.08920        9.16570
C          6.59580        3.01840        8.69500
C          6.94110        2.72600        7.37020
N          7.25190        2.47810        6.29460
C          5.15240        5.03720        8.34840
N          4.64780        5.78750        7.64260
C          5.10110        4.73730       11.57110
C          4.34300        5.80840       11.34590
H        -14.74830        6.90770       -8.26060
H        -13.33080        5.20780       -9.63120
H        -10.76740        1.59220       -9.05720
H        -10.69450        0.67440      -11.30120
H        -10.74230       -0.25090      -13.22010
H        -10.24020       -0.02060      -14.90010
H         -8.53550        0.76980      -12.47520
H         -8.07830        0.94950      -14.16960
H         -8.27660       -0.66400      -13.47570
H        -11.10910        5.54560      -10.67130
H        -12.83920        5.61030       -3.80380
H        -12.62670        6.54020       -1.57390
H        -12.49860        7.15370        0.47040
H        -11.71730        8.32990        1.53590
H        -11.98210       10.11560       -0.16360
H        -13.55970        9.41730        0.22210
H        -12.73990        8.98080       -1.28210
H         -8.74350        6.57480       -4.60470
H         -8.67900        4.21160       -4.32150
H         -6.55020        3.77270       -3.79990
H         -4.38850        5.02730       -3.66350
H         -4.96880        6.91570       -2.18720
H         -7.16010        5.58170        1.21130
H         -7.66820        7.26480        1.42710
H         -7.34090        6.16870        3.64930
H         -5.67140        5.78120        3.22000
H         -6.16290        7.46690        3.41510
H         -4.45380        2.40520       -0.27820
H         -5.38050       -1.65780       -5.79330
H         -4.76180       -3.54790       -7.23950
H         -0.03970       -4.00150       -8.60220
H         -0.54450       -5.68970       -8.79020
H         -0.50560       -4.14510       -6.13880
H          0.63890       -5.39290       -6.62810
H         -1.05640       -5.81070       -6.33850
H         -1.40090       -0.12410       -6.17650
H         -1.45100       -1.16870       -3.92000
H          0.40090        0.78980        0.05670
H          2.66310        1.98000        0.53510
H          2.83310        3.61150        2.32600
H          3.59950        5.47330        5.45750
H          3.79930        4.91630        3.78680
H          1.13940        5.41470        5.24400
H          1.81340        6.44320        3.97600
H          1.25240        4.81110        3.59180
H          2.72910       -1.19040        3.41420
H          5.02740       -3.58740       -2.72640
H          5.03150       -5.25510       -4.53480
H          1.05290       -8.07570       -5.14480
H          2.21510       -9.02710       -6.08750
H          2.00530       -9.96540       -3.78510
H          2.46280       -8.40730       -3.09360
H          3.63340       -9.32520       -4.04780
H          0.95500       -4.60180       -1.86880
H          5.27080       -4.47920       -0.36570
H          6.35760       -5.41270        2.85720
H          5.47830       -5.60550        5.01510
H          4.42040       -7.72600        5.53520
H          3.39270       -9.42920        6.28850
H          3.46040      -11.19580        6.31600
H          2.74970      -10.37620        4.05170
H          4.27380       -9.49330        3.89870
H          4.28210      -11.25460        3.98230
H          9.30800       -7.26480        5.97570
H          8.68630       -0.10970        5.82130
H          9.55320        2.12320        5.30990
H         11.86880        4.26230        1.56680
H         12.30140        2.55790        1.34150
H          9.86310        1.95270        1.31890
H          9.44140        3.64690        1.58080
H         10.21120        3.14930        0.06720
H         11.32320       -1.77880        2.88540
H         10.22490       -1.46810        7.21310
H          7.75380        0.63880       11.93780
H          8.06680        0.76880        8.87650
H          5.27780        4.37720       12.57550
H          4.15710        6.18020       10.35280
H          3.88750        6.34480       12.15880
