227

C         -1.48920      -14.56070       -0.07400
C         -0.85770      -14.09010        1.01980
C         -1.49480      -12.94210        1.57920
C         -1.12750      -12.21410        2.72020
C          0.02210      -12.59380        3.55110
C          1.00190      -11.65820        3.87990
C          2.08180      -12.01490        4.65650
C          2.22520      -13.31150        5.15080
S          3.63180      -13.62640        6.16960
C          4.01120      -15.40190        5.88340
C          5.46530      -15.65130        6.23220
C          1.22470      -14.22670        4.83910
F          1.26400      -15.49280        5.31780
C          0.14910      -13.88790        4.04260
C         -1.90870      -11.11210        3.03210
C         -3.03160      -10.71280        2.26980
C         -3.42200      -11.46260        1.14880
C         -4.64170      -11.13650        0.40130
C         -5.84610      -10.94570        1.07380
C         -7.01280      -10.66580        0.38990
C         -7.01520      -10.55230       -0.99560
S         -8.42830      -10.21570       -1.99350
C         -9.68810       -9.63620       -0.80500
C         -9.36690       -8.26320       -0.24560
C         -5.80220      -10.75200       -1.65730
C         -4.63440      -11.04200       -0.98860
F         -5.76830      -10.65320       -3.00180
C         -2.62700      -12.55350        0.82340
S         -2.89220      -13.64640       -0.51210
C         -3.61980       -9.53200        2.78730
C         -3.01650       -9.04640        3.91330
S         -1.68190      -10.06970        4.41120
C         -3.50370       -7.93960        4.67800
S         -5.24070       -7.73840        4.61210
C         -5.19580       -6.41590        5.68060
C         -3.92160       -6.10730        6.07280
C         -2.92190       -6.97390        5.50240
C         -1.54790       -6.76790        5.79090
S         -0.93940       -5.37530        6.53610
O         -0.76870       -3.86510        5.54930
C          0.51950       -3.37120        5.37310
C         -2.37800       -4.67260        7.28220
C         -3.62880       -5.05080        6.98410
O         -1.97700       -3.71770        8.15140
C         -2.96830       -2.89150        8.72420
C         -0.46000       -7.62100        5.27720
C          0.29080       -7.36620        4.19700
C          0.11880       -6.24720        3.31210
C         -0.94400       -5.40990        3.18200
C         -0.68740       -4.27910        2.37050
C         -1.51030       -3.15370        2.22260
C         -2.78330       -3.09420        2.95480
C         -3.77900       -4.04770        2.75920
C         -4.93180       -4.02370        3.51590
C         -5.11230       -3.07200        4.51450
S         -6.57880       -3.16400        5.50770
C         -7.16680       -1.42350        5.57540
C         -7.05330       -0.83060        6.96570
C         -4.10160       -2.13910        4.71000
F         -4.20400       -1.22170        5.70000
C         -2.96380       -2.12270        3.93150
C         -0.99880       -2.10210        1.48460
C          0.27250       -2.14900        0.85620
C          1.10230       -3.27300        1.01740
C          2.42700       -3.33760        0.38750
C          2.58050       -3.09070       -0.97640
C          3.82010       -3.18230       -1.57240
C          4.95450       -3.51070       -0.83360
S          6.50450       -3.57310       -1.68630
C          7.28790       -5.08960       -1.02120
C          6.42120       -6.31470       -1.23280
C          4.79190       -3.72220        0.53180
C          3.55390       -3.65630        1.13750
F          5.85580       -3.99480        1.31990
C          0.61240       -4.30000        1.81060
S          1.46970       -5.73760        2.30420
C          0.57030       -0.93590        0.18730
C         -0.42020       -0.00000        0.27770
S         -1.79340       -0.57660        1.20220
C         -0.41490        1.32110       -0.26070
C          0.56990        1.91170       -1.00070
C          0.28280        3.24820       -1.36510
C          1.10490        4.14770       -2.06890
C          2.34810        3.72950       -2.72280
C          3.50820        4.49550       -2.63930
C          4.63450        4.16470       -3.36530
C          4.64150        3.05950       -4.20810
S          6.01260        2.59530       -5.21790
C          6.77700        4.20760       -5.61980
C          5.83000        5.12450       -6.36990
C          3.49310        2.26940       -4.24230
F          3.46960        1.17050       -5.02210
C          2.36220        2.58840       -3.52390
C          0.63990        5.44630       -2.18850
C         -0.63280        5.87050       -1.72870
C         -1.46120        4.96550       -1.03830
C         -2.76060        5.37920       -0.49840
C         -2.87920        6.54130        0.25950
C         -4.09500        6.93540        0.78330
C         -5.24000        6.17650        0.57180
S         -6.85660        6.57340        1.15340
C         -6.57730        7.87550        2.40290
C         -5.92640        7.33540        3.66220
C         -5.10770        5.01500       -0.19070
C         -3.90240        4.61110       -0.71810
F         -6.20110        4.26130       -0.42650
C         -0.97300        3.67860       -0.86810
S         -1.76740        2.40110        0.01530
C         -0.90740        7.20580       -2.09690
C          0.10890        7.82660       -2.77910
S          1.48020        6.74430       -2.99630
C          0.18330        9.19960       -3.11620
S         -0.98280       10.26860       -2.35020
C         -0.10070       11.65040       -2.81720
C          1.02350       11.34610       -3.53230
C          1.17380        9.93170       -3.78150
C          2.14590        9.43400       -4.69630
S          3.69540       10.19090       -4.32960
O          4.78320       10.27280       -5.58420
C          5.80630        9.29950       -5.58270
C          3.19640       11.95010       -4.39740
C          1.96240       12.30680       -4.01600
O          4.11530       12.78360       -4.93110
C          5.29040       12.99480       -4.16450
C          1.95860        8.31360       -5.53780
C          2.54020        7.96910       -6.72100
C          3.34550        8.74540       -7.59780
S          4.54880        7.89330       -8.55310
C          5.22960        9.36130       -9.10820
C          4.55660       10.45870       -8.63860
C          3.39670       10.11640       -7.85820
C          2.48720       11.10610       -7.40880
S          2.78140       12.76880       -7.58580
O          2.18630       13.33280       -9.18290
C          0.83340       13.65230       -9.28250
C          4.41860       12.85080       -8.22740
C          5.04600       11.79350       -8.76340
O          4.85180       14.13440       -8.13580
C          6.09640       14.44880       -8.71610
C          1.12590       10.90660       -6.95770
C          0.30000        9.91650       -7.29210
H         -1.22040      -15.40420       -0.67950
H          0.03920      -14.52330        1.42390
H          0.92480      -10.65150        3.49980
H          2.84520      -11.29160        4.89760
H          3.34900      -16.00140        6.50610
H          3.81750      -15.60820        4.83190
H          5.70780      -16.69900        6.06730
H          5.65360      -15.40980        7.27580
H          6.11750      -15.03850        5.61390
H         -0.60370      -14.63500        3.84300
H         -5.87610      -11.04420        2.14850
H         -7.92580      -10.54720        0.95040
H        -10.60180       -9.60830       -1.39870
H         -9.80570      -10.38800       -0.02560
H         -9.28970       -7.53890       -1.05300
H        -10.15630       -7.94590        0.43310
H         -8.42440       -8.27210        0.29760
H         -3.72540      -11.17150       -1.55410
H         -4.45080       -9.03590        2.31830
H         -6.10050       -5.91500        5.96190
H          0.88400       -2.87980        6.28230
H          1.22230       -4.16600        5.09710
H          0.48270       -2.64150        4.56090
H         -4.47810       -4.54550        7.41920
H         -3.53460       -2.36400        7.95290
H         -2.43190       -2.17160        9.33910
H         -3.65310       -3.47120        9.35040
H         -0.21580       -8.48290        5.88480
H          1.12510       -8.01700        3.97040
H         -1.88440       -5.55930        3.67450
H         -3.65330       -4.80190        1.99670
H         -5.70980       -4.75270        3.35140
H         -8.20830       -1.46700        5.25560
H         -6.59270       -0.85960        4.84380
H         -7.46780        0.17550        6.96680
H         -7.60400       -1.43570        7.68250
H         -6.01430       -0.77600        7.27910
H         -2.20610       -1.38100        4.12760
H          1.71390       -2.85880       -1.57670
H          3.93310       -3.00340       -2.63040
H          7.52530       -4.93490        0.02900
H          8.21570       -5.16070       -1.58870
H          6.95500       -7.20300       -0.90090
H          5.49530       -6.23840       -0.66520
H          6.17220       -6.42880       -2.28580
H          3.48800       -3.82490        2.20090
H          1.50060       -0.75830       -0.31960
H          1.49000        1.41820       -1.25420
H          3.53490        5.35500       -1.98760
H          5.51760        4.77700       -3.27350
H          7.62750        3.93210       -6.24280
H          7.15130        4.66150       -4.70260
H          6.35000        6.03290       -6.66830
H          4.97660        5.39710       -5.75140
H          5.45940        4.63270       -7.26570
H          1.48340        1.97150       -3.62840
H         -2.00190        7.13770        0.45940
H         -4.14070        7.84690        1.35690
H         -7.58120        8.24450        2.61340
H         -6.00210        8.68040        1.94720
H         -4.94710        6.91370        3.44620
H         -6.54570        6.55480        4.09780
H         -5.80880        8.13490        4.39150
H         -3.86600        3.71080       -1.31060
H         -1.83820        7.70040       -1.88410
H         -0.44300       12.62480       -2.52950
H          6.45050        9.54850       -6.42470
H          6.38370        9.33020       -4.65410
H          5.39730        8.29660       -5.72250
H          1.66970       13.34410       -4.08610
H          5.89640       13.69110       -4.73970
H          5.04790       13.43190       -3.19110
H          5.84420       12.06410       -4.01450
H          1.15870        7.65470       -5.22740
H          2.32650        6.96820       -7.07890
H          6.10540        9.34300       -9.72610
H          0.66060       13.98340      -10.30770
H          0.20220       12.77980       -9.07730
H          0.55920       14.46090       -8.59520
H          6.00030       11.91420       -9.25630
H          6.24810       15.51090       -8.53350
H          6.90730       13.87650       -8.25280
H          6.08970       14.26110       -9.79380
H          0.74140       11.73140       -6.36400
H          0.59660        9.11630       -7.94440
H         -0.71070        9.89120       -6.92450
