227

C         -2.67790       -1.92460        3.07060
S         -2.52600       -0.84010        1.75050
C         -0.88630       -0.53840        2.12680
C         -0.47180       -1.23680        3.22890
C         -1.51130       -2.06810        3.77740
C         -1.30620       -2.90520        4.91770
S          0.02430       -2.66400        5.95580
O         -0.35720       -1.41360        7.11310
C         -1.15720       -0.35120        6.69750
C          1.15830       -1.74140        4.95150
C          0.84320       -1.16780        3.77830
O          2.36600       -1.77290        5.57250
C          3.45450       -1.14310        4.93650
C         -2.10800       -4.00890        5.33060
C         -3.06860       -4.68540        4.65580
C         -3.78780       -5.76800        5.24190
S         -3.78060       -5.91050        6.98480
C         -4.82810       -7.25580        6.94420
C         -5.18640       -7.60180        5.66750
C         -4.58710       -6.75700        4.66980
C         -4.78980       -7.01840        3.27360
S         -6.17200       -7.90370        2.78310
O         -7.54430       -6.88190        3.16620
C         -7.44410       -5.53010        2.84260
C         -6.50450       -8.96920        4.15190
C         -6.00170       -8.73820        5.37430
O         -7.22950      -10.03530        3.71890
C         -7.48620      -11.06770        4.64380
C         -3.85770       -6.71240        2.24330
C         -3.90710       -7.20780        0.97820
C         -2.95050       -6.94460       -0.03010
S         -1.77380       -5.67520        0.21100
C         -0.88570       -6.15470       -1.16990
C         -1.45540       -7.22220       -1.81300
C         -2.69400       -7.64220       -1.21900
C         -3.47640       -8.68940       -1.78150
S         -2.99300       -9.58580       -3.12750
O         -3.71630       -8.72870       -4.57580
C         -3.77060       -9.44740       -5.76520
C         -1.35560       -9.01330       -3.45170
C         -0.82380       -7.92010       -2.88520
O         -0.81570       -9.82410       -4.39760
C          0.48550       -9.52800       -4.85860
C         -4.87810       -8.96310       -1.47100
C         -5.83840       -8.02450       -1.38810
C         -5.54330       -6.64260       -1.67860
C         -4.72350       -6.21430       -2.67260
C         -4.37860       -4.84530       -2.58520
C         -3.41750       -4.17190       -3.35310
C         -2.74590       -4.87680       -4.45200
C         -3.48710       -5.49520       -5.45630
C         -2.85940       -6.21270       -6.45210
C         -1.47740       -6.35990       -6.46280
S         -0.73230       -7.37390       -7.71730
C          0.49900       -6.22100       -8.43260
C         -0.16090       -4.99050       -9.02150
C         -0.75160       -5.74390       -5.45160
F          0.59450       -5.89280       -5.39110
C         -1.36090       -4.99090       -4.47040
C         -3.09750       -2.88550       -2.95600
C         -3.75410       -2.23090       -1.88450
C         -4.74680       -2.89370       -1.14180
C         -5.43950       -2.22070       -0.03730
C         -6.05780       -0.98680       -0.23380
C         -6.75010       -0.37600        0.79010
C         -6.83110       -0.96140        2.04970
S         -7.74300       -0.11590        3.31280
C         -8.76660       -1.45410        4.03090
C         -9.64270       -2.11600        2.98640
C         -6.16480       -2.16550        2.24590
C         -5.49760       -2.80680        1.22220
F         -6.14160       -2.73810        3.47180
C         -5.00420       -4.21080       -1.48390
S         -6.05570       -5.32100       -0.63990
C         -3.19210       -0.95840       -1.62290
C         -2.14590       -0.64240       -2.43940
S         -1.84700       -1.88160       -3.64230
C         -1.25800        0.46430       -2.27870
C         -1.12040        1.20010       -1.13800
C         -0.05870        2.13430       -1.18520
C          0.41800        2.93850       -0.13480
C         -0.25720        2.93470        1.16830
C          0.44340        2.69480        2.34960
C         -0.22180        2.61280        3.55260
C         -1.60350        2.79510        3.64310
S         -2.28610        2.69500        5.26680
C         -4.06550        2.31120        5.07790
C         -4.31430        0.98250        4.39810
C         -2.27860        3.09200        2.46280
F         -3.60420        3.35590        2.45520
C         -1.63030        3.13990        1.24550
C          1.55570        3.68580       -0.39230
C          2.20110        3.68470       -1.65350
C          1.73430        2.86960       -2.69950
C          2.44830        2.83730       -3.98220
C          3.82560        2.61900       -4.01660
C          4.51660        2.67250       -5.20770
C          3.86380        2.93790       -6.40860
S          4.84540        3.00510       -7.88130
C          4.22640        4.51130       -8.71970
C          4.40320        5.74720       -7.86090
C          2.48110        3.08920       -6.36850
C          1.77740        3.05160       -5.18070
F          1.77980        3.29570       -7.50330
C          0.60980        2.10620       -2.43590
S         -0.10310        0.92900       -3.50960
C          3.29790        4.57710       -1.68420
C          3.52350        5.21460       -0.49870
S          2.35730        4.76050        0.72630
C          4.59180        6.12480       -0.23560
C          5.54110        6.51690       -1.13310
C          6.50790        7.39840       -0.59270
C          7.60760        7.96630       -1.25480
C          7.80410        7.70760       -2.68720
C          6.76740        7.94550       -3.59010
C          6.89950        7.60740       -4.91880
C          8.06860        7.02060       -5.40020
S          8.12080        6.58360       -7.11050
C          9.08170        5.01560       -7.11620
C          8.62550        4.16030       -8.28150
C          9.11840        6.85010       -4.50240
F         10.29970        6.34040       -4.91550
C          8.99560        7.17600       -3.16590
C          8.45790        8.74510       -0.48660
C          8.22970        9.01090        0.88670
C          7.11440        8.46490        1.53950
C          6.82660        8.74300        2.95250
C          6.76380       10.05040        3.43140
C          6.44330       10.29930        4.74870
C          6.19090        9.26090        5.64360
S          5.82130        9.70140        7.31600
C          4.51010        8.52050        7.80630
C          3.31090        8.58490        6.88220
C          6.29500        7.96050        5.15970
C          6.58670        7.69720        3.83700
F          6.11820        6.89960        5.97740
C          6.28560        7.64980        0.78210
S          4.84810        6.83280        1.34540
C          9.26090        9.82970        1.43710
C         10.19500       10.17960        0.53020
S          9.90180        9.54320       -1.05260
H         -3.63180       -2.35570        3.27810
H         -0.31030        0.13950        1.53030
H         -2.06290       -0.72050        6.20060
H         -1.44300        0.20720        7.58830
H         -0.62320        0.31460        6.01010
H          1.58040       -0.61370        3.21600
H          3.28200       -0.06810        4.82430
H          4.31050       -1.30740        5.58770
H          3.64840       -1.58490        3.95410
H         -1.85370       -4.37550        6.31970
H         -3.32050       -4.41810        3.64300
H         -5.13090       -7.72770        7.85750
H         -8.09780       -4.98550        3.52460
H         -7.74340       -5.33970        1.80620
H         -6.41430       -5.18320        2.98890
H         -6.21670       -9.40500        6.19650
H         -8.09750      -10.71010        5.47780
H         -8.03430      -11.82870        4.09180
H         -6.55480      -11.49250        5.03140
H         -3.00780       -6.10640        2.52320
H         -4.68720       -7.90920        0.72650
H          0.03490       -5.66060       -1.40790
H         -3.98970      -10.50520       -5.57960
H         -2.82520       -9.37450       -6.31580
H         -4.57580       -9.02590       -6.37130
H          0.14790       -7.56380       -3.19420
H          0.52120       -8.55390       -5.35110
H          1.20830       -9.55050       -4.03760
H          0.72330      -10.30520       -5.58160
H         -5.14940      -10.00670       -1.37030
H         -6.83970       -8.28220       -1.07360
H         -4.34180       -6.87450       -3.42930
H         -4.56210       -5.40100       -5.45890
H         -3.43290       -6.68430       -7.23420
H          1.22400       -5.96320       -7.66310
H          0.99250       -6.81350       -9.20250
H         -0.89590       -5.27410       -9.77190
H         -0.66230       -4.41240       -8.24670
H          0.59140       -4.35900       -9.49010
H         -0.75470       -4.53850       -3.70210
H         -6.02260       -0.52400       -1.20820
H         -7.24750        0.56790        0.63060
H         -8.11340       -2.16750        4.52890
H         -9.36670       -0.93840        4.78040
H        -10.26920       -1.37700        2.49110
H         -9.03740       -2.61800        2.23310
H        -10.28480       -2.85550        3.46080
H         -4.99910       -3.74360        1.41800
H         -3.53480       -0.31970       -0.83090
H         -1.72860        1.03520       -0.26860
H          1.51130        2.54110        2.31640
H          0.32170        2.40590        4.46170
H         -4.55020        3.13280        4.55600
H         -4.41410        2.29330        6.11100
H         -5.38240        0.77700        4.39380
H         -3.80380        0.17670        4.92120
H         -3.97040        0.99780        3.36670
H         -2.20630        3.37350        0.36340
H          4.35320        2.40300       -3.09990
H          5.58420        2.51700       -5.22950
H          3.18820        4.35240       -9.00290
H          4.83590        4.56910       -9.62130
H          5.45050        5.88520       -7.60020
H          3.82120        5.66810       -6.94360
H          4.06400        6.62340       -8.40970
H          0.70930        3.20260       -5.20270
H          3.89100        4.74320       -2.56380
H          5.56880        6.17520       -2.15080
H          5.85200        8.39880       -3.24080
H          6.09000        7.77980       -5.61120
H          8.88980        4.51970       -6.16610
H         10.13900        5.26540       -7.19520
H          9.21040        3.24360       -8.31210
H          7.57490        3.89740       -8.17950
H          8.76210        4.69110       -9.22100
H          9.83090        6.99540       -2.50750
H          6.93270       10.87480        2.75550
H          6.37660       11.31270        5.11270
H          4.24900        8.84620        8.81320
H          4.93400        7.52010        7.85630
H          2.92530        9.60080        6.82660
H          2.52530        7.93230        7.25750
H          3.57450        8.25960        5.87740
H          6.65430        6.66910        3.51740
H          9.29390       10.12100        2.47120
H         11.06870       10.78230        0.68350
