227

C          2.18330       -6.62260       -6.62680
C          1.81560       -5.32720       -6.64540
C          2.66620       -4.49470       -5.85590
C          2.59580       -3.10590       -5.68680
C          1.47130       -2.31630       -6.20190
C          1.66990       -1.16510       -6.95630
C          0.60260       -0.39780       -7.37990
C         -0.70120       -0.74550       -7.04680
S         -2.14160        0.15160       -7.51550
C         -1.51440        1.83840       -7.82640
C         -0.96840        2.48250       -6.56810
C         -0.88580       -1.91220       -6.30460
F         -2.13930       -2.28800       -5.97770
C          0.16700       -2.69350       -5.88690
C          3.61960       -2.51790       -4.95580
C          4.62370       -3.26520       -4.29580
C          4.65940       -4.66250       -4.41730
C          5.65520       -5.45760       -3.68910
C          5.83300       -5.28290       -2.31630
C          6.76140       -6.03080       -1.62690
C          7.55980       -6.97360       -2.27470
S          8.74780       -7.83010       -1.29020
C          8.88690       -9.47900       -2.08930
C          9.37830      -10.47810       -1.06070
C          7.38460       -7.12360       -3.64710
C          6.44190       -6.39660       -4.34580
F          8.15180       -7.98430       -4.35410
C          3.70370       -5.23770       -5.24420
S          3.57420       -6.93400       -5.64100
C          5.52850       -2.42310       -3.58960
C          5.23570       -1.10170       -3.69220
S          3.82110       -0.81290       -4.68870
C          5.96590        0.01270       -3.13230
S          6.87580        1.01360       -4.23020
C          7.47530        1.95790       -2.94670
C          6.99500        1.55850       -1.72690
C          6.10220        0.43030       -1.81750
C          5.39870       -0.06100       -0.68020
S          5.84270        0.35770        0.90690
O          7.04940       -0.76650        1.41930
C          7.98600       -1.23370        0.49490
C          6.86460        1.78820        0.68790
C          7.31190        2.21780       -0.50200
O          7.07270        2.32940        1.91300
C          7.98900        3.39930        2.01570
C          4.32110       -1.02570       -0.73080
C          3.21730       -1.06730        0.04530
C          2.72880       -0.05080        0.93080
C          3.01530        1.28110        0.95560
C          2.27210        2.01930        1.90360
C          2.35880        3.39470        2.16070
C          3.35920        4.22130        1.47460
C          4.31090        4.93520        2.20010
C          5.32590        5.60240        1.55210
C          5.43670        5.59250        0.15950
S          6.84790        6.41910       -0.51100
C          7.01780        5.78520       -2.22670
C          8.42490        6.07240       -2.71310
C          4.43320        4.94470       -0.55070
F          4.40840        4.95030       -1.90660
C          3.41710        4.26350        0.08820
C          1.49390        3.90060        3.11130
C          0.58770        3.10450        3.85820
C          0.56350        1.70790        3.66080
C         -0.27430        0.81150        4.46720
C          0.23500       -0.39720        4.94680
C         -0.54710       -1.25040        5.69430
C         -1.87180       -0.94440        6.00120
S         -2.80030       -2.15200        6.90090
C         -3.84100       -1.17250        8.04750
C         -3.01500       -0.26350        8.93520
C         -2.36580        0.26240        5.52120
C         -1.59120        1.12980        4.78120
F         -3.64350        0.63540        5.77060
C          1.39250        1.20830        2.66050
S          1.49410       -0.44930        2.11640
C         -0.18870        3.90930        4.73690
C          0.04500        5.24600        4.61670
S          1.33820        5.59250        3.48020
C         -0.58290        6.35400        5.27370
S          0.45520        7.65310        5.79600
C         -0.85720        8.50380        6.46580
C         -2.05080        7.85230        6.29090
C         -1.91550        6.61100        5.57690
C         -3.05070        5.83170        5.20160
S         -4.55520        6.04730        5.97260
O         -4.43340        5.15920        7.46090
C         -5.61840        4.71300        8.06230
C         -4.43440        7.66360        6.67610
C         -3.29900        8.37400        6.74300
O         -5.68800        8.03390        7.05980
C         -5.86570        9.34420        7.55180
C         -3.05550        4.81940        4.19240
C         -4.02630        3.88400        4.08040
C         -4.08420        2.78500        3.18060
C         -4.98980        1.76480        3.27700
C         -4.72090        0.66500        2.43210
C         -5.43270       -0.54230        2.34070
C         -6.62480       -0.81430        3.15460
C         -6.58920       -0.70340        4.54290
C         -7.69710       -1.01850        5.30050
C         -8.88320       -1.43770        4.70470
S        -10.26320       -1.78970        5.76010
C        -10.90340       -3.36730        5.08610
C         -9.84670       -4.45360        5.08680
C         -8.91560       -1.51110        3.31640
F        -10.05020       -1.86360        2.67190
C         -7.80560       -1.22740        2.54740
C         -4.93450       -1.49440        1.46870
C         -3.75380       -1.30790        0.71200
C         -3.08000       -0.07040        0.75260
C         -1.99100        0.15670       -0.20680
C         -0.93270       -0.74160       -0.33110
C         -0.07490       -0.66780       -1.40890
C         -0.23160        0.31150       -2.38130
S          0.75380        0.21680       -3.85700
C          1.64060        1.81560       -3.80880
C          2.56810        1.89420       -2.61510
C         -1.23170        1.25800       -2.19730
C         -2.10030        1.19520       -1.12720
F         -1.40190        2.24830       -3.10090
C         -3.58150        0.88720        1.61660
S         -2.88790        2.46560        1.92350
C         -3.41520       -2.46380       -0.03240
C         -4.29340       -3.50060        0.11430
S         -5.61010       -3.08010        1.20320
C         -4.19660       -4.82820       -0.38330
S         -5.08560       -6.05900        0.48120
C         -4.20830       -7.30650       -0.27160
C         -3.28230       -6.83300       -1.16700
C         -3.32920       -5.40100       -1.32400
C         -2.55370       -4.75100       -2.31420
S         -1.41470       -5.56960       -3.27560
O         -2.19270       -6.33990       -4.70800
C         -2.60930       -5.52850       -5.76370
C         -1.30560       -7.18260       -2.55850
C         -2.26760       -7.64630       -1.74030
O         -0.23080       -7.94590       -2.85150
C          0.57330       -7.57430       -3.94750
C         -2.72890       -3.40610       -2.83580
C         -3.85690       -2.70190       -2.86960
H          1.73180       -7.44620       -7.14410
H          0.98920       -4.94600       -7.21750
H          2.67160       -0.87350       -7.23300
H          0.79480        0.47900       -7.97690
H         -0.77690        1.79640       -8.62750
H         -2.39220        2.37130       -8.19220
H         -0.13500        1.90740       -6.17130
H         -1.73870        2.53400       -5.80290
H         -0.62510        3.49200       -6.78640
H         -0.02850       -3.56940       -5.28660
H          5.21540       -4.57650       -1.78270
H          6.88710       -5.90100       -0.56320
H          9.58030       -9.39980       -2.92520
H          7.89590       -9.74400       -2.45460
H         10.35230      -10.18290       -0.67680
H          8.68360      -10.54050       -0.22610
H          9.46710      -11.46150       -1.51770
H          6.35710       -6.54950       -5.41020
H          6.38360       -2.79280       -3.05180
H          8.15790        2.75960       -3.14830
H          8.44970       -2.11930        0.92840
H          7.49710       -1.50900       -0.44800
H          8.75550       -0.48080        0.28880
H          7.93960        3.09530       -0.56450
H          8.98570        3.09510        1.68120
H          7.65760        4.26590        1.43830
H          8.02040        3.65590        3.07220
H          4.43020       -1.81380       -1.46490
H          2.58590       -1.94290       -0.02530
H          3.72470        1.73950        0.29160
H          4.26910        4.94000        3.27800
H          6.07040        6.14220        2.11750
H          6.27810        6.28610       -2.84970
H          6.81770        4.71540       -2.20650
H          8.62470        7.14130       -2.69650
H          9.16060        5.57840       -2.08220
H          8.53910        5.71380       -3.73390
H          2.65880        3.78490       -0.50930
H          1.26360       -0.66020        4.75690
H         -0.14060       -2.18020        6.06050
H         -4.34880       -1.93880        8.63330
H         -4.58100       -0.61840        7.47430
H         -3.66200        0.22940        9.65820
H         -2.26210       -0.83650        9.47230
H         -2.51240        0.50170        8.34670
H         -2.04640        2.03660        4.42470
H         -0.89810        3.52430        5.44470
H         -0.69410        9.43960        6.96250
H         -5.32330        4.16950        8.96020
H         -6.17300        4.03980        7.40130
H         -6.26220        5.55290        8.34190
H         -3.28910        9.36520        7.17170
H         -5.29640        9.50230        8.47270
H         -6.92960        9.43880        7.76010
H         -5.56880       10.08820        6.80690
H         -2.23250        4.81560        3.49260
H         -4.82740        3.87930        4.81080
H         -5.81000        1.78650        3.97110
H         -5.67620       -0.39910        5.02680
H         -7.66300       -0.95140        6.37720
H        -11.30210       -3.18820        4.09000
H        -11.72510       -3.61420        5.75860
H         -9.02450       -4.19630        4.42130
H        -10.28410       -5.39000        4.74590
H         -9.44760       -4.59780        6.08880
H         -7.88150       -1.30740        1.47420
H         -0.79140       -1.50420        0.41930
H          0.71770       -1.38890       -1.53370
H          0.90490        2.61810       -3.80720
H          2.19970        1.83740       -4.74380
H          1.99760        1.85110       -1.68820
H          3.26800        1.06180       -2.61780
H          3.13250        2.82300       -2.65370
H         -2.89440        1.92180       -1.05200
H         -2.52250       -2.54490       -0.61680
H         -4.38280       -8.32820        0.00040
H         -3.30350       -6.11910       -6.36390
H         -1.76400       -5.22320       -6.39130
H         -3.12570       -4.63480       -5.40200
H         -2.21080       -8.67930       -1.42950
H          1.29680       -8.37800       -4.07050
H          1.10390       -6.63730       -3.74510
H         -0.02310       -7.46660       -4.85670
H         -1.84170       -2.99740       -3.30870
H         -4.78220       -3.08230       -2.47570
H         -3.88450       -1.72830       -3.32430
