
  xtb     03082209533D
 energy: -210.079355473239 gnorm: 0.000533356592 xtb: 6.4.1 (unknown)
119130  0     0  0            999 V2000
   -0.8654    2.3337   -3.5662 C   0  0  0  0  0  0  0  0  0  0  0  0
   -1.0188    3.5108   -2.3403 S   0  0  0  0  0  0  0  0  0  0  0  0
    0.6037    4.0023   -2.5087 C   0  0  0  0  0  0  0  0  0  0  0  0
    1.2585    3.2925   -3.4913 C   0  0  0  0  0  0  0  0  0  0  0  0
    0.3989    2.3169   -4.1078 C   0  0  0  0  0  0  0  0  0  0  0  0
    0.8840    1.5152   -5.1815 C   0  0  0  0  0  0  0  0  0  0  0  0
    2.1718    1.7231   -5.6205 C   0  0  0  0  0  0  0  0  0  0  0  0
    3.0202    2.6674   -4.9884 C   0  0  0  0  0  0  0  0  0  0  0  0
    2.5897    3.4312   -3.9489 C   0  0  0  0  0  0  0  0  0  0  0  0
    2.6339    0.9752   -6.6641 O   0  0  0  0  0  0  0  0  0  0  0  0
    0.0008    0.5459   -5.8240 C   0  0  0  0  0  0  0  0  0  0  0  0
   -0.5365    0.8440   -7.4453 S   0  0  0  0  0  0  0  0  0  0  0  0
   -1.5496   -0.5290   -7.4214 C   0  0  0  0  0  0  0  0  0  0  0  0
   -1.4795   -1.2085   -6.2326 C   0  0  0  0  0  0  0  0  0  0  0  0
   -0.5704   -0.5983   -5.3038 C   0  0  0  0  0  0  0  0  0  0  0  0
   -0.2604   -1.1795   -4.0340 C   0  0  0  0  0  0  0  0  0  0  0  0
   -1.2378   -2.3879   -3.3404 S   0  0  0  0  0  4  0  0  0  0  0  0
   -2.4883   -1.5320   -2.5338 O   0  0  0  0  0  0  0  0  0  0  0  0
   -3.2651   -2.2372   -1.5961 C   0  0  0  0  0  0  0  0  0  0  0  0
   -2.1698   -2.9796   -4.7276 C   0  0  0  0  0  0  0  0  0  0  0  0
   -2.1936   -2.4089   -5.9424 C   0  0  0  0  0  0  0  0  0  0  0  0
   -2.7837   -4.1343   -4.3306 O   0  0  0  0  0  0  0  0  0  0  0  0
   -3.4978   -4.8663   -5.3003 C   0  0  0  0  0  0  0  0  0  0  0  0
    0.9265   -0.8742   -3.3217 C   0  0  0  0  0  0  0  0  0  0  0  0
    1.2099   -1.2706   -2.0544 C   0  0  0  0  0  0  0  0  0  0  0  0
    2.4432   -1.0297   -1.4056 C   0  0  0  0  0  0  0  0  0  0  0  0
    3.6126    0.0485   -2.1132 S   0  0  0  0  0  0  0  0  0  0  0  0
    4.7239   -0.1803   -0.8296 C   0  0  0  0  0  0  0  0  0  0  0  0
    4.2414   -1.0539    0.1170 C   0  0  0  0  0  0  0  0  0  0  0  0
    2.9289   -1.5497   -0.2011 C   0  0  0  0  0  0  0  0  0  0  0  0
    2.3095   -2.4815    0.6732 C   0  0  0  0  0  0  0  0  0  0  0  0
    2.9999   -2.8836    1.8042 C   0  0  0  0  0  0  0  0  0  0  0  0
    4.2823   -2.3767    2.1108 C   0  0  0  0  0  0  0  0  0  0  0  0
    4.9017   -1.4875    1.2894 C   0  0  0  0  0  0  0  0  0  0  0  0
    2.4121   -3.8053    2.6242 O   0  0  0  0  0  0  0  0  0  0  0  0
    1.0423   -3.1603    0.3816 C   0  0  0  0  0  0  0  0  0  0  0  0
    1.1289   -4.3938   -0.8464 S   0  0  0  0  0  0  0  0  0  0  0  0
   -0.4421   -4.9429   -0.4816 C   0  0  0  0  0  0  0  0  0  0  0  0
   -1.0141   -4.2369    0.5438 C   0  0  0  0  0  0  0  0  0  0  0  0
   -0.1786   -3.1699    1.0349 C   0  0  0  0  0  0  0  0  0  0  0  0
   -0.6255   -2.2686    2.0566 C   0  0  0  0  0  0  0  0  0  0  0  0
   -2.1879   -2.3391    2.6969 S   0  0  0  0  0  4  0  0  0  0  0  0
   -3.2144   -1.4094    1.5724 O   0  0  0  0  0  0  0  0  0  0  0  0
   -4.5607   -1.2524    1.9018 C   0  0  0  0  0  0  0  0  0  0  0  0
   -2.7885   -3.9147    2.1590 C   0  0  0  0  0  0  0  0  0  0  0  0
   -2.2421   -4.6205    1.1599 C   0  0  0  0  0  0  0  0  0  0  0  0
   -3.8850   -4.2247    2.9071 O   0  0  0  0  0  0  0  0  0  0  0  0
   -4.4587   -5.5005    2.7310 C   0  0  0  0  0  0  0  0  0  0  0  0
    0.2280   -1.2388    2.5826 C   0  0  0  0  0  0  0  0  0  0  0  0
   -0.0346   -0.3055    3.5088 C   0  0  0  0  0  0  0  0  0  0  0  0
   -1.2956   -0.0953    4.2055 C   0  0  0  0  0  0  0  0  0  0  0  0
   -1.5342   -0.7756    5.7809 S   0  0  0  0  0  0  0  0  0  0  0  0
   -3.0827   -0.0723    5.9428 C   0  0  0  0  0  0  0  0  0  0  0  0
   -3.4211    0.6758    4.8405 C   0  0  0  0  0  0  0  0  0  0  0  0
   -2.3817    0.6805    3.8449 C   0  0  0  0  0  0  0  0  0  0  0  0
   -2.5660    1.4047    2.6311 C   0  0  0  0  0  0  0  0  0  0  0  0
   -3.7725    2.0361    2.4272 C   0  0  0  0  0  0  0  0  0  0  0  0
   -4.7886    2.0294    3.4157 C   0  0  0  0  0  0  0  0  0  0  0  0
   -4.6249    1.3809    4.5993 C   0  0  0  0  0  0  0  0  0  0  0  0
   -3.9658    2.7118    1.2540 O   0  0  0  0  0  0  0  0  0  0  0  0
   -1.5257    1.4476    1.6113 C   0  0  0  0  0  0  0  0  0  0  0  0
   -1.8077    0.6668    0.0955 S   0  0  0  0  0  0  0  0  0  0  0  0
   -0.2629    1.0891   -0.4748 C   0  0  0  0  0  0  0  0  0  0  0  0
    0.4563    1.8104    0.4439 C   0  0  0  0  0  0  0  0  0  0  0  0
   -0.2743    2.0354    1.6582 C   0  0  0  0  0  0  0  0  0  0  0  0
    0.2544    2.8243    2.7195 C   0  0  0  0  0  0  0  0  0  0  0  0
    1.8919    3.2331    2.8298 S   0  0  0  0  0  4  0  0  0  0  0  0
    2.9051    2.0085    3.6842 O   0  0  0  0  0  0  0  0  0  0  0  0
    3.4960    0.9457    3.0185 C   0  0  0  0  0  0  0  0  0  0  0  0
    2.4719    2.9363    1.1890 C   0  0  0  0  0  0  0  0  0  0  0  0
    1.7610    2.3319    0.2206 C   0  0  0  0  0  0  0  0  0  0  0  0
    3.7077    3.5037    1.0779 O   0  0  0  0  0  0  0  0  0  0  0  0
    4.2926    3.5509   -0.2026 C   0  0  0  0  0  0  0  0  0  0  0  0
   -0.5418    3.2799    3.8342 C   0  0  0  0  0  0  0  0  0  0  0  0
   -0.0631    3.5386    5.0494 C   0  0  0  0  0  0  0  0  0  0  0  0
   -1.7022    1.7154   -3.8200 H   0  0  0  0  0  0  0  0  0  0  0  0
    0.9908    4.7888   -1.8923 H   0  0  0  0  0  0  0  0  0  0  0  0
    4.0334    2.7679   -5.3556 H   0  0  0  0  0  0  0  0  0  0  0  0
    3.2439    4.1520   -3.4822 H   0  0  0  0  0  0  0  0  0  0  0  0
    3.5486    1.2145   -6.8524 H   0  0  0  0  0  0  0  0  0  0  0  0
   -2.1476   -0.7694   -8.2779 H   0  0  0  0  0  0  0  0  0  0  0  0
   -4.3015   -2.2699   -1.9437 H   0  0  0  0  0  0  0  0  0  0  0  0
   -2.9007   -3.2619   -1.4788 H   0  0  0  0  0  0  0  0  0  0  0  0
   -3.2073   -1.7261   -0.6336 H   0  0  0  0  0  0  0  0  0  0  0  0
   -2.7737   -2.8406   -6.7452 H   0  0  0  0  0  0  0  0  0  0  0  0
   -3.8719   -5.7503   -4.7874 H   0  0  0  0  0  0  0  0  0  0  0  0
   -4.3399   -4.2889   -5.6940 H   0  0  0  0  0  0  0  0  0  0  0  0
   -2.8466   -5.1683   -6.1262 H   0  0  0  0  0  0  0  0  0  0  0  0
    1.6704   -0.3054   -3.8619 H   0  0  0  0  0  0  0  0  0  0  0  0
    0.4616   -1.8022   -1.4854 H   0  0  0  0  0  0  0  0  0  0  0  0
    5.6752    0.3126   -0.8467 H   0  0  0  0  0  0  0  0  0  0  0  0
    4.7736   -2.7296    3.0084 H   0  0  0  0  0  0  0  0  0  0  0  0
    5.8891   -1.1132    1.5107 H   0  0  0  0  0  0  0  0  0  0  0  0
    2.9824   -3.9639    3.3853 H   0  0  0  0  0  0  0  0  0  0  0  0
   -0.8584   -5.7751   -1.0139 H   0  0  0  0  0  0  0  0  0  0  0  0
   -5.1238   -2.1752    1.7186 H   0  0  0  0  0  0  0  0  0  0  0  0
   -4.6857   -0.9654    2.9502 H   0  0  0  0  0  0  0  0  0  0  0  0
   -4.9549   -0.4583    1.2660 H   0  0  0  0  0  0  0  0  0  0  0  0
   -2.6925   -5.5416    0.8183 H   0  0  0  0  0  0  0  0  0  0  0  0
   -4.8962   -5.6063    1.7331 H   0  0  0  0  0  0  0  0  0  0  0  0
   -3.7183   -6.2905    2.8879 H   0  0  0  0  0  0  0  0  0  0  0  0
   -5.2430   -5.5779    3.4814 H   0  0  0  0  0  0  0  0  0  0  0  0
    1.2160   -1.2229    2.1506 H   0  0  0  0  0  0  0  0  0  0  0  0
    0.7612    0.3653    3.8060 H   0  0  0  0  0  0  0  0  0  0  0  0
   -3.6579   -0.2395    6.8310 H   0  0  0  0  0  0  0  0  0  0  0  0
   -5.7057    2.5678    3.2103 H   0  0  0  0  0  0  0  0  0  0  0  0
   -5.3982    1.3847    5.3523 H   0  0  0  0  0  0  0  0  0  0  0  0
   -4.8339    3.1308    1.2631 H   0  0  0  0  0  0  0  0  0  0  0  0
    0.0536    0.7800   -1.4500 H   0  0  0  0  0  0  0  0  0  0  0  0
    4.4658    1.2318    2.5933 H   0  0  0  0  0  0  0  0  0  0  0  0
    2.8627    0.5625    2.2084 H   0  0  0  0  0  0  0  0  0  0  0  0
    3.6491    0.1422    3.7435 H   0  0  0  0  0  0  0  0  0  0  0  0
    2.1735    2.2090   -0.7705 H   0  0  0  0  0  0  0  0  0  0  0  0
    4.4825    2.5466   -0.5928 H   0  0  0  0  0  0  0  0  0  0  0  0
    5.2351    4.0805   -0.0761 H   0  0  0  0  0  0  0  0  0  0  0  0
    3.6541    4.0931   -0.9068 H   0  0  0  0  0  0  0  0  0  0  0  0
   -1.5915    3.4307    3.6232 H   0  0  0  0  0  0  0  0  0  0  0  0
   -0.6867    3.9374    5.8300 H   0  0  0  0  0  0  0  0  0  0  0  0
    0.9687    3.3500    5.2955 H   0  0  0  0  0  0  0  0  0  0  0  0
  1  2  1  0  0  0  0
  2  3  1  0  0  0  0
  3  4  2  0  0  0  0
  4  5  1  0  0  0  0
  5  6  1  0  0  0  0
  6  7  2  0  0  0  0
  7  8  1  0  0  0  0
  8  9  2  0  0  0  0
  7 10  1  0  0  0  0
  6 11  1  0  0  0  0
 11 12  1  0  0  0  0
 12 13  1  0  0  0  0
 13 14  2  0  0  0  0
 14 15  1  0  0  0  0
 15 16  1  0  0  0  0
 16 17  2  0  0  0  0
 17 18  1  0  0  0  0
 18 19  1  0  0  0  0
 17 20  1  0  0  0  0
 20 21  2  0  0  0  0
 20 22  1  0  0  0  0
 22 23  1  0  0  0  0
 16 24  1  0  0  0  0
 24 25  2  0  0  0  0
 25 26  1  0  0  0  0
 26 27  1  0  0  0  0
 27 28  1  0  0  0  0
 28 29  2  0  0  0  0
 29 30  1  0  0  0  0
 30 31  1  0  0  0  0
 31 32  2  0  0  0  0
 32 33  1  0  0  0  0
 33 34  2  0  0  0  0
 32 35  1  0  0  0  0
 31 36  1  0  0  0  0
 36 37  1  0  0  0  0
 37 38  1  0  0  0  0
 38 39  2  0  0  0  0
 39 40  1  0  0  0  0
 40 41  1  0  0  0  0
 41 42  2  0  0  0  0
 42 43  1  0  0  0  0
 43 44  1  0  0  0  0
 42 45  1  0  0  0  0
 45 46  2  0  0  0  0
 45 47  1  0  0  0  0
 47 48  1  0  0  0  0
 41 49  1  0  0  0  0
 49 50  2  0  0  0  0
 50 51  1  0  0  0  0
 51 52  1  0  0  0  0
 52 53  1  0  0  0  0
 53 54  2  0  0  0  0
 54 55  1  0  0  0  0
 55 56  1  0  0  0  0
 56 57  2  0  0  0  0
 57 58  1  0  0  0  0
 58 59  2  0  0  0  0
 57 60  1  0  0  0  0
 56 61  1  0  0  0  0
 61 62  1  0  0  0  0
 62 63  1  0  0  0  0
 63 64  2  0  0  0  0
 64 65  1  0  0  0  0
 65 66  1  0  0  0  0
 66 67  2  0  0  0  0
 67 68  1  0  0  0  0
 68 69  1  0  0  0  0
 67 70  1  0  0  0  0
 70 71  2  0  0  0  0
 70 72  1  0  0  0  0
 72 73  1  0  0  0  0
 66 74  1  0  0  0  0
 74 75  2  0  0  0  0
  5  1  2  0  0  0  0
 15 11  2  0  0  0  0
 30 26  2  0  0  0  0
 40 36  2  0  0  0  0
 55 51  2  0  0  0  0
 65 61  2  0  0  0  0
  9  4  1  0  0  0  0
 21 14  1  0  0  0  0
 34 29  1  0  0  0  0
 46 39  1  0  0  0  0
 59 54  1  0  0  0  0
 71 64  1  0  0  0  0
  1 76  1  0  0  0  0
  3 77  1  0  0  0  0
  8 78  1  0  0  0  0
  9 79  1  0  0  0  0
 10 80  1  0  0  0  0
 13 81  1  0  0  0  0
 19 82  1  0  0  0  0
 19 83  1  0  0  0  0
 19 84  1  0  0  0  0
 21 85  1  0  0  0  0
 23 86  1  0  0  0  0
 23 87  1  0  0  0  0
 23 88  1  0  0  0  0
 24 89  1  0  0  0  0
 25 90  1  0  0  0  0
 28 91  1  0  0  0  0
 33 92  1  0  0  0  0
 34 93  1  0  0  0  0
 35 94  1  0  0  0  0
 38 95  1  0  0  0  0
 44 96  1  0  0  0  0
 44 97  1  0  0  0  0
 44 98  1  0  0  0  0
 46 99  1  0  0  0  0
 48100  1  0  0  0  0
 48101  1  0  0  0  0
 48102  1  0  0  0  0
 49103  1  0  0  0  0
 50104  1  0  0  0  0
 53105  1  0  0  0  0
 58106  1  0  0  0  0
 59107  1  0  0  0  0
 60108  1  0  0  0  0
 63109  1  0  0  0  0
 69110  1  0  0  0  0
 69111  1  0  0  0  0
 69112  1  0  0  0  0
 71113  1  0  0  0  0
 73114  1  0  0  0  0
 73115  1  0  0  0  0
 73116  1  0  0  0  0
 74117  1  0  0  0  0
 75118  1  0  0  0  0
 75119  1  0  0  0  0
M  END
