
  xtb     03082204383D
 energy: -436.829813605286 gnorm: 0.000735773668 xtb: 6.4.1 (unknown)
252275  0     0  0            999 V2000
   -0.5977   -0.1387   13.6066 C   0  0  0  0  0  0  0  0  0  0  0  0
   -0.7360    1.0026   12.9027 C   0  0  0  0  0  0  0  0  0  0  0  0
   -0.9867    0.7738   11.5166 C   0  0  0  0  0  0  0  0  0  0  0  0
   -1.2159    1.7220   10.5088 C   0  0  0  0  0  0  0  0  0  0  0  0
   -1.1202    3.1667   10.7506 C   0  0  0  0  0  0  0  0  0  0  0  0
    0.0095    3.7201   11.3513 C   0  0  0  0  0  0  0  0  0  0  0  0
    0.1296    5.0860   11.4922 C   0  0  0  0  0  0  0  0  0  0  0  0
   -0.8727    5.9514   11.0578 C   0  0  0  0  0  0  0  0  0  0  0  0
   -0.6111    7.6851   11.2886 S   0  0  0  0  0  0  0  0  0  0  0  0
   -1.2618    8.4343    9.7487 C   0  0  0  0  0  0  0  0  0  0  0  0
   -0.6002    7.8642    8.5103 C   0  0  0  0  0  0  0  0  0  0  0  0
   -2.0163    5.3810   10.5072 C   0  0  0  0  0  0  0  0  0  0  0  0
   -3.0559    6.1507   10.1181 F   0  0  0  0  0  0  0  0  0  0  0  0
   -2.1384    4.0175   10.3344 C   0  0  0  0  0  0  0  0  0  0  0  0
   -1.5012    1.2302    9.2436 C   0  0  0  0  0  0  0  0  0  0  0  0
   -1.5414   -0.1525    8.9450 C   0  0  0  0  0  0  0  0  0  0  0  0
   -1.3220   -1.1024    9.9546 C   0  0  0  0  0  0  0  0  0  0  0  0
   -1.4058   -2.5345    9.6455 C   0  0  0  0  0  0  0  0  0  0  0  0
   -2.5204   -3.0404    8.9807 C   0  0  0  0  0  0  0  0  0  0  0  0
   -2.5943   -4.3698    8.6167 C   0  0  0  0  0  0  0  0  0  0  0  0
   -1.5447   -5.2392    8.8898 C   0  0  0  0  0  0  0  0  0  0  0  0
   -1.4967   -6.9422    8.4322 S   0  0  0  0  0  0  0  0  0  0  0  0
   -2.7543   -7.0737    7.1125 C   0  0  0  0  0  0  0  0  0  0  0  0
   -2.3581   -6.3199    5.8567 C   0  0  0  0  0  0  0  0  0  0  0  0
   -0.4535   -4.7296    9.5946 C   0  0  0  0  0  0  0  0  0  0  0  0
   -0.3737   -3.4082    9.9763 C   0  0  0  0  0  0  0  0  0  0  0  0
    0.5701   -5.5522    9.8969 F   0  0  0  0  0  0  0  0  0  0  0  0
   -1.0397   -0.6104   11.2202 C   0  0  0  0  0  0  0  0  0  0  0  0
   -0.7614   -1.5713   12.6491 S   0  0  0  0  0  0  0  0  0  0  0  0
   -1.7634   -0.3881    7.5648 C   0  0  0  0  0  0  0  0  0  0  0  0
   -1.9189    0.7496    6.8334 C   0  0  0  0  0  0  0  0  0  0  0  0
   -1.7838    2.1955    7.8152 S   0  0  0  0  0  0  0  0  0  0  0  0
   -2.1569    0.8389    5.4309 C   0  0  0  0  0  0  0  0  0  0  0  0
   -2.4704    1.9387    4.6910 C   0  0  0  0  0  0  0  0  0  0  0  0
   -2.6133    1.6703    3.3050 C   0  0  0  0  0  0  0  0  0  0  0  0
   -2.8836    2.5847    2.2735 C   0  0  0  0  0  0  0  0  0  0  0  0
   -3.0973    4.0131    2.5367 C   0  0  0  0  0  0  0  0  0  0  0  0
   -2.1934    4.7656    3.2836 C   0  0  0  0  0  0  0  0  0  0  0  0
   -2.4346    6.0967    3.5431 C   0  0  0  0  0  0  0  0  0  0  0  0
   -3.5787    6.7364    3.0686 C   0  0  0  0  0  0  0  0  0  0  0  0
   -3.7482    8.4536    3.4528 S   0  0  0  0  0  0  0  0  0  0  0  0
   -5.5449    8.6989    3.7068 C   0  0  0  0  0  0  0  0  0  0  0  0
   -6.0913    7.8080    4.8041 C   0  0  0  0  0  0  0  0  0  0  0  0
   -4.4520    5.9832    2.2898 C   0  0  0  0  0  0  0  0  0  0  0  0
   -5.5647    6.5364    1.7588 F   0  0  0  0  0  0  0  0  0  0  0  0
   -4.2295    4.6453    2.0332 C   0  0  0  0  0  0  0  0  0  0  0  0
   -2.9373    2.0658    0.9900 C   0  0  0  0  0  0  0  0  0  0  0  0
   -2.7892    0.6858    0.7016 C   0  0  0  0  0  0  0  0  0  0  0  0
   -2.5317   -0.2358    1.7341 C   0  0  0  0  0  0  0  0  0  0  0  0
   -2.3731   -1.6661    1.4489 C   0  0  0  0  0  0  0  0  0  0  0  0
   -2.9935   -2.6327    2.2366 C   0  0  0  0  0  0  0  0  0  0  0  0
   -2.8992   -3.9804    1.9430 C   0  0  0  0  0  0  0  0  0  0  0  0
   -2.2148   -4.4144    0.8141 C   0  0  0  0  0  0  0  0  0  0  0  0
   -2.0321   -6.0781    0.2737 S   0  0  0  0  0  0  0  0  0  0  0  0
   -2.7682   -7.0407    1.6421 C   0  0  0  0  0  0  0  0  0  0  0  0
   -2.6828   -8.5144    1.2940 C   0  0  0  0  0  0  0  0  0  0  0  0
   -1.6069   -3.4338    0.0296 C   0  0  0  0  0  0  0  0  0  0  0  0
   -1.6354   -2.0972    0.3445 C   0  0  0  0  0  0  0  0  0  0  0  0
   -0.9640   -3.8202   -1.0912 F   0  0  0  0  0  0  0  0  0  0  0  0
   -2.4383    0.2939    3.0122 C   0  0  0  0  0  0  0  0  0  0  0  0
   -2.0477   -0.6122    4.4511 S   0  0  0  0  0  0  0  0  0  0  0  0
   -2.8571    0.4362   -0.6880 C   0  0  0  0  0  0  0  0  0  0  0  0
   -2.9269    1.5676   -1.4490 C   0  0  0  0  0  0  0  0  0  0  0  0
   -3.0824    3.0100   -0.4716 S   0  0  0  0  0  0  0  0  0  0  0  0
   -2.6556    1.6224   -2.8500 C   0  0  0  0  0  0  0  0  0  0  0  0
   -2.4328    0.5496   -3.6665 C   0  0  0  0  0  0  0  0  0  0  0  0
   -1.8426    0.8910   -4.9074 C   0  0  0  0  0  0  0  0  0  0  0  0
   -1.3585    0.0198   -5.9010 C   0  0  0  0  0  0  0  0  0  0  0  0
   -1.4166   -1.4360   -5.7230 C   0  0  0  0  0  0  0  0  0  0  0  0
   -0.9672   -2.0152   -4.5386 C   0  0  0  0  0  0  0  0  0  0  0  0
   -0.9949   -3.3821   -4.3512 C   0  0  0  0  0  0  0  0  0  0  0  0
   -1.4802   -4.2273   -5.3431 C   0  0  0  0  0  0  0  0  0  0  0  0
   -1.5299   -5.9780   -5.2194 S   0  0  0  0  0  0  0  0  0  0  0  0
   -0.6861   -6.3022   -3.6265 C   0  0  0  0  0  0  0  0  0  0  0  0
   -0.5437   -7.7968   -3.4239 C   0  0  0  0  0  0  0  0  0  0  0  0
   -1.9415   -3.6350   -6.5223 C   0  0  0  0  0  0  0  0  0  0  0  0
   -2.4496   -4.4169   -7.4928 F   0  0  0  0  0  0  0  0  0  0  0  0
   -1.9038   -2.2729   -6.7261 C   0  0  0  0  0  0  0  0  0  0  0  0
   -0.7426    0.6125   -6.9930 C   0  0  0  0  0  0  0  0  0  0  0  0
   -0.5615    2.0129   -7.1033 C   0  0  0  0  0  0  0  0  0  0  0  0
   -1.0424    2.8805   -6.1134 C   0  0  0  0  0  0  0  0  0  0  0  0
   -0.8089    4.3285   -6.1764 C   0  0  0  0  0  0  0  0  0  0  0  0
    0.4775    4.8334   -6.3366 C   0  0  0  0  0  0  0  0  0  0  0  0
    0.7095    6.1936   -6.3975 C   0  0  0  0  0  0  0  0  0  0  0  0
   -0.3426    7.0981   -6.3126 C   0  0  0  0  0  0  0  0  0  0  0  0
   -0.1942    8.8529   -6.3803 S   0  0  0  0  0  0  0  0  0  0  0  0
    1.5010    9.1352   -6.9982 C   0  0  0  0  0  0  0  0  0  0  0  0
    1.6579    8.7490   -8.4571 C   0  0  0  0  0  0  0  0  0  0  0  0
   -1.6252    6.5773   -6.1306 C   0  0  0  0  0  0  0  0  0  0  0  0
   -1.8684    5.2242   -6.0558 C   0  0  0  0  0  0  0  0  0  0  0  0
   -2.6662    7.4277   -6.0335 F   0  0  0  0  0  0  0  0  0  0  0  0
   -1.6837    2.2927   -5.0375 C   0  0  0  0  0  0  0  0  0  0  0  0
   -2.2447    3.1405   -3.6219 S   0  0  0  0  0  0  0  0  0  0  0  0
    0.2021    2.3562   -8.2446 C   0  0  0  0  0  0  0  0  0  0  0  0
    0.6334    1.2856   -8.9621 C   0  0  0  0  0  0  0  0  0  0  0  0
    0.0281   -0.2277   -8.3168 S   0  0  0  0  0  0  0  0  0  0  0  0
    1.5813    1.4112  -10.0368 C   0  0  0  0  0  0  0  0  0  0  0  0
    1.2561    0.8807  -11.6553 S   0  0  0  0  0  0  0  0  0  0  0  0
    2.5682    1.7822  -12.2690 C   0  0  0  0  0  0  0  0  0  0  0  0
    3.2513    2.4611  -11.2895 C   0  0  0  0  0  0  0  0  0  0  0  0
    2.7344    2.1898   -9.9784 C   0  0  0  0  0  0  0  0  0  0  0  0
    3.3441    2.6952   -8.7957 C   0  0  0  0  0  0  0  0  0  0  0  0
    4.6418    3.7846   -8.8290 S   0  0  0  0  0  4  0  0  0  0  0  0
    6.2278    2.8894   -8.9173 O   0  0  0  0  0  0  0  0  0  0  0  0
    6.6729    2.2549   -7.7617 C   0  0  0  0  0  0  0  0  0  0  0  0
    4.8260    4.1803  -10.5485 C   0  0  0  0  0  0  0  0  0  0  0  0
    4.2462    3.4505  -11.5217 C   0  0  0  0  0  0  0  0  0  0  0  0
    5.5601    5.2677  -10.8644 O   0  0  0  0  0  0  0  0  0  0  0  0
    6.5148    5.7392   -9.9354 C   0  0  0  0  0  0  0  0  0  0  0  0
    3.1215    2.1568   -7.4724 C   0  0  0  0  0  0  0  0  0  0  0  0
    2.8801    0.8496   -7.2522 C   0  0  0  0  0  0  0  0  0  0  0  0
    2.6304    0.1888   -6.0164 C   0  0  0  0  0  0  0  0  0  0  0  0
    2.5894   -1.1695   -5.8751 C   0  0  0  0  0  0  0  0  0  0  0  0
    2.3230   -1.6156   -4.5605 C   0  0  0  0  0  0  0  0  0  0  0  0
    2.2437   -2.9439   -4.1001 C   0  0  0  0  0  0  0  0  0  0  0  0
    2.2506   -4.0808   -5.0250 C   0  0  0  0  0  0  0  0  0  0  0  0
    2.9242   -5.2620   -4.7226 C   0  0  0  0  0  0  0  0  0  0  0  0
    2.8631   -6.3614   -5.5570 C   0  0  0  0  0  0  0  0  0  0  0  0
    2.1379   -6.3188   -6.7416 C   0  0  0  0  0  0  0  0  0  0  0  0
    1.9392   -7.6480   -7.8782 S   0  0  0  0  0  0  0  0  0  0  0  0
    3.1798   -8.8794   -7.3469 C   0  0  0  0  0  0  0  0  0  0  0  0
    4.5978   -8.4473   -7.6708 C   0  0  0  0  0  0  0  0  0  0  0  0
    1.4837   -5.1229   -7.0464 C   0  0  0  0  0  0  0  0  0  0  0  0
    0.7844   -5.0350   -8.1930 F   0  0  0  0  0  0  0  0  0  0  0  0
    1.5261   -4.0258   -6.2177 C   0  0  0  0  0  0  0  0  0  0  0  0
    2.1019   -3.1149   -2.7287 C   0  0  0  0  0  0  0  0  0  0  0  0
    1.9978   -2.0300   -1.8265 C   0  0  0  0  0  0  0  0  0  0  0  0
    2.0100   -0.7033   -2.2997 C   0  0  0  0  0  0  0  0  0  0  0  0
    1.8332    0.3765   -1.3187 C   0  0  0  0  0  0  0  0  0  0  0  0
    0.7683    1.2720   -1.3785 C   0  0  0  0  0  0  0  0  0  0  0  0
    0.5190    2.1294   -0.3277 C   0  0  0  0  0  0  0  0  0  0  0  0
    1.3241    2.1454    0.8123 C   0  0  0  0  0  0  0  0  0  0  0  0
    0.8233    3.2113    2.1269 S   0  0  0  0  0  0  0  0  0  0  0  0
    1.6338    2.5056    3.6214 C   0  0  0  0  0  0  0  0  0  0  0  0
    0.9891    3.0721    4.8710 C   0  0  0  0  0  0  0  0  0  0  0  0
    2.4497    1.3274    0.8032 C   0  0  0  0  0  0  0  0  0  0  0  0
    2.6926    0.4443   -0.2275 C   0  0  0  0  0  0  0  0  0  0  0  0
    3.3550    1.3514    1.8105 F   0  0  0  0  0  0  0  0  0  0  0  0
    2.1740   -0.5266   -3.6619 C   0  0  0  0  0  0  0  0  0  0  0  0
    2.3032    1.0074   -4.4967 S   0  0  0  0  0  0  0  0  0  0  0  0
    1.8224   -2.4674   -0.4919 C   0  0  0  0  0  0  0  0  0  0  0  0
    1.8002   -3.8262   -0.3404 C   0  0  0  0  0  0  0  0  0  0  0  0
    1.9743   -4.6389   -1.8825 S   0  0  0  0  0  0  0  0  0  0  0  0
    1.5059   -4.5144    0.8725 C   0  0  0  0  0  0  0  0  0  0  0  0
    0.8342   -3.5550    2.1749 S   0  0  0  0  0  0  0  0  0  0  0  0
    0.4547   -4.9464    3.0829 C   0  0  0  0  0  0  0  0  0  0  0  0
    0.8485   -6.1028    2.4621 C   0  0  0  0  0  0  0  0  0  0  0  0
    1.5040   -5.8685    1.2050 C   0  0  0  0  0  0  0  0  0  0  0  0
    2.1465   -6.9211    0.4983 C   0  0  0  0  0  0  0  0  0  0  0  0
    1.7613   -8.5486    0.7479 S   0  0  0  0  0  4  0  0  0  0  0  0
    0.3212   -8.9608   -0.1864 O   0  0  0  0  0  0  0  0  0  0  0  0
    0.2159  -10.2805   -0.6413 C   0  0  0  0  0  0  0  0  0  0  0  0
    0.9458   -8.5236    2.3174 C   0  0  0  0  0  0  0  0  0  0  0  0
    0.6492   -7.4076    3.0020 C   0  0  0  0  0  0  0  0  0  0  0  0
    0.7904   -9.8154    2.7192 O   0  0  0  0  0  0  0  0  0  0  0  0
    0.2640  -10.0489    4.0068 C   0  0  0  0  0  0  0  0  0  0  0  0
    3.2680   -6.7183   -0.3878 C   0  0  0  0  0  0  0  0  0  0  0  0
    3.6796   -7.5785   -1.3175 C   0  0  0  0  0  0  0  0  0  0  0  0
   -0.4060   -0.2466   14.6563 H   0  0  0  0  0  0  0  0  0  0  0  0
   -0.6837    1.9839   13.3382 H   0  0  0  0  0  0  0  0  0  0  0  0
    0.8137    3.0751   11.6707 H   0  0  0  0  0  0  0  0  0  0  0  0
    1.0153    5.5138   11.9354 H   0  0  0  0  0  0  0  0  0  0  0  0
   -1.0243    9.4913    9.8700 H   0  0  0  0  0  0  0  0  0  0  0  0
   -2.3427    8.3142    9.7259 H   0  0  0  0  0  0  0  0  0  0  0  0
   -0.8389    6.8087    8.3901 H   0  0  0  0  0  0  0  0  0  0  0  0
   -0.9543    8.3978    7.6307 H   0  0  0  0  0  0  0  0  0  0  0  0
    0.4812    7.9691    8.5717 H   0  0  0  0  0  0  0  0  0  0  0  0
   -3.0457    3.6304    9.8976 H   0  0  0  0  0  0  0  0  0  0  0  0
   -3.3493   -2.3852    8.7590 H   0  0  0  0  0  0  0  0  0  0  0  0
   -3.4815   -4.7245    8.1173 H   0  0  0  0  0  0  0  0  0  0  0  0
   -3.7164   -6.7476    7.5049 H   0  0  0  0  0  0  0  0  0  0  0  0
   -2.8063   -8.1458    6.9212 H   0  0  0  0  0  0  0  0  0  0  0  0
   -1.3905   -6.6693    5.5028 H   0  0  0  0  0  0  0  0  0  0  0  0
   -2.2857   -5.2508    6.0466 H   0  0  0  0  0  0  0  0  0  0  0  0
   -3.0987   -6.4851    5.0756 H   0  0  0  0  0  0  0  0  0  0  0  0
    0.5045   -3.0648   10.4994 H   0  0  0  0  0  0  0  0  0  0  0  0
   -1.7896   -1.3673    7.1217 H   0  0  0  0  0  0  0  0  0  0  0  0
   -2.6117    2.9117    5.1276 H   0  0  0  0  0  0  0  0  0  0  0  0
   -1.2843    4.3095    3.6375 H   0  0  0  0  0  0  0  0  0  0  0  0
   -1.7329    6.6744    4.1247 H   0  0  0  0  0  0  0  0  0  0  0  0
   -5.6130    9.7508    3.9845 H   0  0  0  0  0  0  0  0  0  0  0  0
   -6.0613    8.5480    2.7617 H   0  0  0  0  0  0  0  0  0  0  0  0
   -5.5385    7.9574    5.7294 H   0  0  0  0  0  0  0  0  0  0  0  0
   -7.1388    8.0446    4.9796 H   0  0  0  0  0  0  0  0  0  0  0  0
   -6.0194    6.7587    4.5243 H   0  0  0  0  0  0  0  0  0  0  0  0
   -4.9539    4.1067    1.4418 H   0  0  0  0  0  0  0  0  0  0  0  0
   -3.5837   -2.3289    3.0872 H   0  0  0  0  0  0  0  0  0  0  0  0
   -3.3863   -4.6895    2.5920 H   0  0  0  0  0  0  0  0  0  0  0  0
   -3.8061   -6.7283    1.7613 H   0  0  0  0  0  0  0  0  0  0  0  0
   -2.1974   -6.8118    2.5433 H   0  0  0  0  0  0  0  0  0  0  0  0
   -3.2945   -8.7323    0.4216 H   0  0  0  0  0  0  0  0  0  0  0  0
   -1.6558   -8.7860    1.0641 H   0  0  0  0  0  0  0  0  0  0  0  0
   -3.0369   -9.1183    2.1276 H   0  0  0  0  0  0  0  0  0  0  0  0
   -1.0663   -1.4072   -0.2579 H   0  0  0  0  0  0  0  0  0  0  0  0
   -2.8221   -0.5442   -1.1208 H   0  0  0  0  0  0  0  0  0  0  0  0
   -2.6637   -0.4612   -3.3867 H   0  0  0  0  0  0  0  0  0  0  0  0
   -0.5552   -1.3920   -3.7593 H   0  0  0  0  0  0  0  0  0  0  0  0
   -0.6320   -3.7856   -3.4238 H   0  0  0  0  0  0  0  0  0  0  0  0
   -1.2816   -5.8642   -2.8266 H   0  0  0  0  0  0  0  0  0  0  0  0
    0.2936   -5.8280   -3.6706 H   0  0  0  0  0  0  0  0  0  0  0  0
    0.0777   -8.2308   -4.2040 H   0  0  0  0  0  0  0  0  0  0  0  0
   -0.0845   -7.9789   -2.4551 H   0  0  0  0  0  0  0  0  0  0  0  0
   -1.5179   -8.2803   -3.4482 H   0  0  0  0  0  0  0  0  0  0  0  0
   -2.2727   -1.8722   -7.6572 H   0  0  0  0  0  0  0  0  0  0  0  0
    1.3099    4.1490   -6.3893 H   0  0  0  0  0  0  0  0  0  0  0  0
    1.7239    6.5427   -6.5033 H   0  0  0  0  0  0  0  0  0  0  0  0
    2.2015    8.6114   -6.3489 H   0  0  0  0  0  0  0  0  0  0  0  0
    1.6427   10.2078   -6.8654 H   0  0  0  0  0  0  0  0  0  0  0  0
    1.4649    7.6886   -8.6052 H   0  0  0  0  0  0  0  0  0  0  0  0
    0.9579    9.3122   -9.0696 H   0  0  0  0  0  0  0  0  0  0  0  0
    2.6695    8.9695   -8.7932 H   0  0  0  0  0  0  0  0  0  0  0  0
   -2.8817    4.8780   -5.9263 H   0  0  0  0  0  0  0  0  0  0  0  0
    0.4412    3.3678   -8.5169 H   0  0  0  0  0  0  0  0  0  0  0  0
    2.7576    1.7968  -13.3236 H   0  0  0  0  0  0  0  0  0  0  0  0
    5.9419    1.5219   -7.4024 H   0  0  0  0  0  0  0  0  0  0  0  0
    7.5972    1.7355   -8.0208 H   0  0  0  0  0  0  0  0  0  0  0  0
    6.8792    2.9737   -6.9597 H   0  0  0  0  0  0  0  0  0  0  0  0
    4.4955    3.6939  -12.5442 H   0  0  0  0  0  0  0  0  0  0  0  0
    6.0271    6.1686   -9.0539 H   0  0  0  0  0  0  0  0  0  0  0  0
    7.1904    4.9391   -9.6252 H   0  0  0  0  0  0  0  0  0  0  0  0
    7.0713    6.5164  -10.4557 H   0  0  0  0  0  0  0  0  0  0  0  0
    3.2635    2.8290   -6.6338 H   0  0  0  0  0  0  0  0  0  0  0  0
    2.8906    0.1798   -8.1031 H   0  0  0  0  0  0  0  0  0  0  0  0
    2.7920   -1.8308   -6.6974 H   0  0  0  0  0  0  0  0  0  0  0  0
    3.5182   -5.3274   -3.8246 H   0  0  0  0  0  0  0  0  0  0  0  0
    3.3858   -7.2575   -5.2653 H   0  0  0  0  0  0  0  0  0  0  0  0
    3.0383   -9.0847   -6.2866 H   0  0  0  0  0  0  0  0  0  0  0  0
    2.9100   -9.7721   -7.9111 H   0  0  0  0  0  0  0  0  0  0  0  0
    5.3009   -9.2218   -7.3696 H   0  0  0  0  0  0  0  0  0  0  0  0
    4.8529   -7.5247   -7.1539 H   0  0  0  0  0  0  0  0  0  0  0  0
    4.7018   -8.2796   -8.7402 H   0  0  0  0  0  0  0  0  0  0  0  0
    0.9670   -3.1466   -6.4945 H   0  0  0  0  0  0  0  0  0  0  0  0
    0.1124    1.2662   -2.2358 H   0  0  0  0  0  0  0  0  0  0  0  0
   -0.3224    2.8034   -0.3609 H   0  0  0  0  0  0  0  0  0  0  0  0
    2.6908    2.7634    3.5869 H   0  0  0  0  0  0  0  0  0  0  0  0
    1.5124    1.4240    3.5755 H   0  0  0  0  0  0  0  0  0  0  0  0
    1.0478    4.1584    4.8747 H   0  0  0  0  0  0  0  0  0  0  0  0
   -0.0550    2.7746    4.9375 H   0  0  0  0  0  0  0  0  0  0  0  0
    1.5094    2.6951    5.7492 H   0  0  0  0  0  0  0  0  0  0  0  0
    3.5659   -0.1874   -0.1718 H   0  0  0  0  0  0  0  0  0  0  0  0
    1.6981   -1.7980    0.3413 H   0  0  0  0  0  0  0  0  0  0  0  0
   -0.0336   -4.8415    4.0315 H   0  0  0  0  0  0  0  0  0  0  0  0
    0.1252  -10.9811    0.1955 H   0  0  0  0  0  0  0  0  0  0  0  0
    1.0798  -10.5636   -1.2510 H   0  0  0  0  0  0  0  0  0  0  0  0
   -0.6843  -10.3310   -1.2549 H   0  0  0  0  0  0  0  0  0  0  0  0
    0.2189   -7.4693    3.9911 H   0  0  0  0  0  0  0  0  0  0  0  0
   -0.7511   -9.6499    4.0970 H   0  0  0  0  0  0  0  0  0  0  0  0
    0.8996   -9.6089    4.7808 H   0  0  0  0  0  0  0  0  0  0  0  0
    0.2417  -11.1302    4.1249 H   0  0  0  0  0  0  0  0  0  0  0  0
    3.8287   -5.8096   -0.2107 H   0  0  0  0  0  0  0  0  0  0  0  0
    4.5763   -7.4095   -1.8857 H   0  0  0  0  0  0  0  0  0  0  0  0
    3.1262   -8.4754   -1.5407 H   0  0  0  0  0  0  0  0  0  0  0  0
  1  2  2  0  0  0  0
  2  3  1  0  0  0  0
  3  4  2  0  0  0  0
  4  5  1  0  0  0  0
  5  6  2  0  0  0  0
  6  7  1  0  0  0  0
  7  8  2  0  0  0  0
  8  9  1  0  0  0  0
  9 10  1  0  0  0  0
 10 11  1  0  0  0  0
  8 12  1  0  0  0  0
 12 13  1  0  0  0  0
 12 14  2  0  0  0  0
  4 15  1  0  0  0  0
 15 16  2  0  0  0  0
 16 17  1  0  0  0  0
 17 18  1  0  0  0  0
 18 19  2  0  0  0  0
 19 20  1  0  0  0  0
 20 21  2  0  0  0  0
 21 22  1  0  0  0  0
 22 23  1  0  0  0  0
 23 24  1  0  0  0  0
 21 25  1  0  0  0  0
 25 26  2  0  0  0  0
 25 27  1  0  0  0  0
 17 28  2  0  0  0  0
 28 29  1  0  0  0  0
 16 30  1  0  0  0  0
 30 31  2  0  0  0  0
 31 32  1  0  0  0  0
 31 33  1  0  0  0  0
 33 34  2  0  0  0  0
 34 35  1  0  0  0  0
 35 36  2  0  0  0  0
 36 37  1  0  0  0  0
 37 38  2  0  0  0  0
 38 39  1  0  0  0  0
 39 40  2  0  0  0  0
 40 41  1  0  0  0  0
 41 42  1  0  0  0  0
 42 43  1  0  0  0  0
 40 44  1  0  0  0  0
 44 45  1  0  0  0  0
 44 46  2  0  0  0  0
 36 47  1  0  0  0  0
 47 48  2  0  0  0  0
 48 49  1  0  0  0  0
 49 50  1  0  0  0  0
 50 51  2  0  0  0  0
 51 52  1  0  0  0  0
 52 53  2  0  0  0  0
 53 54  1  0  0  0  0
 54 55  1  0  0  0  0
 55 56  1  0  0  0  0
 53 57  1  0  0  0  0
 57 58  2  0  0  0  0
 57 59  1  0  0  0  0
 49 60  2  0  0  0  0
 60 61  1  0  0  0  0
 48 62  1  0  0  0  0
 62 63  2  0  0  0  0
 63 64  1  0  0  0  0
 63 65  1  0  0  0  0
 65 66  2  0  0  0  0
 66 67  1  0  0  0  0
 67 68  2  0  0  0  0
 68 69  1  0  0  0  0
 69 70  2  0  0  0  0
 70 71  1  0  0  0  0
 71 72  2  0  0  0  0
 72 73  1  0  0  0  0
 73 74  1  0  0  0  0
 74 75  1  0  0  0  0
 72 76  1  0  0  0  0
 76 77  1  0  0  0  0
 76 78  2  0  0  0  0
 68 79  1  0  0  0  0
 79 80  2  0  0  0  0
 80 81  1  0  0  0  0
 81 82  1  0  0  0  0
 82 83  2  0  0  0  0
 83 84  1  0  0  0  0
 84 85  2  0  0  0  0
 85 86  1  0  0  0  0
 86 87  1  0  0  0  0
 87 88  1  0  0  0  0
 85 89  1  0  0  0  0
 89 90  2  0  0  0  0
 89 91  1  0  0  0  0
 81 92  2  0  0  0  0
 92 93  1  0  0  0  0
 80 94  1  0  0  0  0
 94 95  2  0  0  0  0
 95 96  1  0  0  0  0
 95 97  1  0  0  0  0
 97 98  1  0  0  0  0
 98 99  1  0  0  0  0
 99100  2  0  0  0  0
100101  1  0  0  0  0
101102  1  0  0  0  0
102103  2  0  0  0  0
103104  1  0  0  0  0
104105  1  0  0  0  0
103106  1  0  0  0  0
106107  2  0  0  0  0
106108  1  0  0  0  0
108109  1  0  0  0  0
102110  1  0  0  0  0
110111  2  0  0  0  0
111112  1  0  0  0  0
112113  2  0  0  0  0
113114  1  0  0  0  0
114115  2  0  0  0  0
115116  1  0  0  0  0
116117  2  0  0  0  0
117118  1  0  0  0  0
118119  2  0  0  0  0
119120  1  0  0  0  0
120121  1  0  0  0  0
121122  1  0  0  0  0
119123  1  0  0  0  0
123124  1  0  0  0  0
123125  2  0  0  0  0
115126  1  0  0  0  0
126127  2  0  0  0  0
127128  1  0  0  0  0
128129  1  0  0  0  0
129130  2  0  0  0  0
130131  1  0  0  0  0
131132  2  0  0  0  0
132133  1  0  0  0  0
133134  1  0  0  0  0
134135  1  0  0  0  0
132136  1  0  0  0  0
136137  2  0  0  0  0
136138  1  0  0  0  0
128139  2  0  0  0  0
139140  1  0  0  0  0
127141  1  0  0  0  0
141142  2  0  0  0  0
142143  1  0  0  0  0
142144  1  0  0  0  0
144145  1  0  0  0  0
145146  1  0  0  0  0
146147  2  0  0  0  0
147148  1  0  0  0  0
148149  1  0  0  0  0
149150  2  0  0  0  0
150151  1  0  0  0  0
151152  1  0  0  0  0
150153  1  0  0  0  0
153154  2  0  0  0  0
153155  1  0  0  0  0
155156  1  0  0  0  0
149157  1  0  0  0  0
157158  2  0  0  0  0
 29  1  1  0  0  0  0
 61 33  1  0  0  0  0
 93 65  1  0  0  0  0
101 97  2  0  0  0  0
140112  1  0  0  0  0
148144  2  0  0  0  0
 28  3  1  0  0  0  0
 60 35  1  0  0  0  0
 92 67  1  0  0  0  0
107100  1  0  0  0  0
139114  1  0  0  0  0
154147  1  0  0  0  0
 14  5  1  0  0  0  0
 32 15  1  0  0  0  0
 46 37  1  0  0  0  0
 64 47  1  0  0  0  0
 78 69  1  0  0  0  0
 96 79  1  0  0  0  0
125116  1  0  0  0  0
143126  1  0  0  0  0
 26 18  1  0  0  0  0
 58 50  1  0  0  0  0
 90 82  1  0  0  0  0
137129  1  0  0  0  0
  1159  1  0  0  0  0
  2160  1  0  0  0  0
  6161  1  0  0  0  0
  7162  1  0  0  0  0
 10163  1  0  0  0  0
 10164  1  0  0  0  0
 11165  1  0  0  0  0
 11166  1  0  0  0  0
 11167  1  0  0  0  0
 14168  1  0  0  0  0
 19169  1  0  0  0  0
 20170  1  0  0  0  0
 23171  1  0  0  0  0
 23172  1  0  0  0  0
 24173  1  0  0  0  0
 24174  1  0  0  0  0
 24175  1  0  0  0  0
 26176  1  0  0  0  0
 30177  1  0  0  0  0
 34178  1  0  0  0  0
 38179  1  0  0  0  0
 39180  1  0  0  0  0
 42181  1  0  0  0  0
 42182  1  0  0  0  0
 43183  1  0  0  0  0
 43184  1  0  0  0  0
 43185  1  0  0  0  0
 46186  1  0  0  0  0
 51187  1  0  0  0  0
 52188  1  0  0  0  0
 55189  1  0  0  0  0
 55190  1  0  0  0  0
 56191  1  0  0  0  0
 56192  1  0  0  0  0
 56193  1  0  0  0  0
 58194  1  0  0  0  0
 62195  1  0  0  0  0
 66196  1  0  0  0  0
 70197  1  0  0  0  0
 71198  1  0  0  0  0
 74199  1  0  0  0  0
 74200  1  0  0  0  0
 75201  1  0  0  0  0
 75202  1  0  0  0  0
 75203  1  0  0  0  0
 78204  1  0  0  0  0
 83205  1  0  0  0  0
 84206  1  0  0  0  0
 87207  1  0  0  0  0
 87208  1  0  0  0  0
 88209  1  0  0  0  0
 88210  1  0  0  0  0
 88211  1  0  0  0  0
 90212  1  0  0  0  0
 94213  1  0  0  0  0
 99214  1  0  0  0  0
105215  1  0  0  0  0
105216  1  0  0  0  0
105217  1  0  0  0  0
107218  1  0  0  0  0
109219  1  0  0  0  0
109220  1  0  0  0  0
109221  1  0  0  0  0
110222  1  0  0  0  0
111223  1  0  0  0  0
113224  1  0  0  0  0
117225  1  0  0  0  0
118226  1  0  0  0  0
121227  1  0  0  0  0
121228  1  0  0  0  0
122229  1  0  0  0  0
122230  1  0  0  0  0
122231  1  0  0  0  0
125232  1  0  0  0  0
130233  1  0  0  0  0
131234  1  0  0  0  0
134235  1  0  0  0  0
134236  1  0  0  0  0
135237  1  0  0  0  0
135238  1  0  0  0  0
135239  1  0  0  0  0
137240  1  0  0  0  0
141241  1  0  0  0  0
146242  1  0  0  0  0
152243  1  0  0  0  0
152244  1  0  0  0  0
152245  1  0  0  0  0
154246  1  0  0  0  0
156247  1  0  0  0  0
156248  1  0  0  0  0
156249  1  0  0  0  0
157250  1  0  0  0  0
158251  1  0  0  0  0
158252  1  0  0  0  0
M  END
