
  xtb     03072222463D
 energy: -392.661165393012 gnorm: 0.000966521574 xtb: 6.4.1 (unknown)
227247  0     0  0            999 V2000
    2.1833   -6.6226   -6.6268 C   0  0  0  0  0  0  0  0  0  0  0  0
    1.8156   -5.3272   -6.6454 C   0  0  0  0  0  0  0  0  0  0  0  0
    2.6662   -4.4947   -5.8559 C   0  0  0  0  0  0  0  0  0  0  0  0
    2.5958   -3.1059   -5.6868 C   0  0  0  0  0  0  0  0  0  0  0  0
    1.4713   -2.3163   -6.2019 C   0  0  0  0  0  0  0  0  0  0  0  0
    1.6699   -1.1651   -6.9563 C   0  0  0  0  0  0  0  0  0  0  0  0
    0.6026   -0.3978   -7.3799 C   0  0  0  0  0  0  0  0  0  0  0  0
   -0.7012   -0.7455   -7.0468 C   0  0  0  0  0  0  0  0  0  0  0  0
   -2.1416    0.1516   -7.5155 S   0  0  0  0  0  0  0  0  0  0  0  0
   -1.5144    1.8384   -7.8264 C   0  0  0  0  0  0  0  0  0  0  0  0
   -0.9684    2.4825   -6.5681 C   0  0  0  0  0  0  0  0  0  0  0  0
   -0.8858   -1.9122   -6.3046 C   0  0  0  0  0  0  0  0  0  0  0  0
   -2.1393   -2.2880   -5.9777 F   0  0  0  0  0  0  0  0  0  0  0  0
    0.1670   -2.6935   -5.8869 C   0  0  0  0  0  0  0  0  0  0  0  0
    3.6196   -2.5179   -4.9558 C   0  0  0  0  0  0  0  0  0  0  0  0
    4.6237   -3.2652   -4.2958 C   0  0  0  0  0  0  0  0  0  0  0  0
    4.6594   -4.6625   -4.4173 C   0  0  0  0  0  0  0  0  0  0  0  0
    5.6552   -5.4576   -3.6891 C   0  0  0  0  0  0  0  0  0  0  0  0
    5.8330   -5.2829   -2.3163 C   0  0  0  0  0  0  0  0  0  0  0  0
    6.7614   -6.0308   -1.6269 C   0  0  0  0  0  0  0  0  0  0  0  0
    7.5598   -6.9736   -2.2747 C   0  0  0  0  0  0  0  0  0  0  0  0
    8.7478   -7.8301   -1.2902 S   0  0  0  0  0  0  0  0  0  0  0  0
    8.8869   -9.4790   -2.0893 C   0  0  0  0  0  0  0  0  0  0  0  0
    9.3783  -10.4781   -1.0607 C   0  0  0  0  0  0  0  0  0  0  0  0
    7.3846   -7.1236   -3.6471 C   0  0  0  0  0  0  0  0  0  0  0  0
    6.4419   -6.3966   -4.3458 C   0  0  0  0  0  0  0  0  0  0  0  0
    8.1518   -7.9843   -4.3541 F   0  0  0  0  0  0  0  0  0  0  0  0
    3.7037   -5.2377   -5.2442 C   0  0  0  0  0  0  0  0  0  0  0  0
    3.5742   -6.9340   -5.6410 S   0  0  0  0  0  0  0  0  0  0  0  0
    5.5285   -2.4231   -3.5896 C   0  0  0  0  0  0  0  0  0  0  0  0
    5.2357   -1.1017   -3.6922 C   0  0  0  0  0  0  0  0  0  0  0  0
    3.8211   -0.8129   -4.6887 S   0  0  0  0  0  0  0  0  0  0  0  0
    5.9659    0.0127   -3.1323 C   0  0  0  0  0  0  0  0  0  0  0  0
    6.8758    1.0136   -4.2302 S   0  0  0  0  0  0  0  0  0  0  0  0
    7.4753    1.9579   -2.9467 C   0  0  0  0  0  0  0  0  0  0  0  0
    6.9950    1.5585   -1.7269 C   0  0  0  0  0  0  0  0  0  0  0  0
    6.1022    0.4303   -1.8175 C   0  0  0  0  0  0  0  0  0  0  0  0
    5.3987   -0.0610   -0.6802 C   0  0  0  0  0  0  0  0  0  0  0  0
    5.8427    0.3577    0.9069 S   0  0  0  0  0  4  0  0  0  0  0  0
    7.0494   -0.7665    1.4193 O   0  0  0  0  0  0  0  0  0  0  0  0
    7.9860   -1.2337    0.4949 C   0  0  0  0  0  0  0  0  0  0  0  0
    6.8646    1.7882    0.6879 C   0  0  0  0  0  0  0  0  0  0  0  0
    7.3119    2.2178   -0.5020 C   0  0  0  0  0  0  0  0  0  0  0  0
    7.0727    2.3294    1.9130 O   0  0  0  0  0  0  0  0  0  0  0  0
    7.9890    3.3993    2.0157 C   0  0  0  0  0  0  0  0  0  0  0  0
    4.3211   -1.0257   -0.7308 C   0  0  0  0  0  0  0  0  0  0  0  0
    3.2173   -1.0673    0.0453 C   0  0  0  0  0  0  0  0  0  0  0  0
    2.7288   -0.0508    0.9308 C   0  0  0  0  0  0  0  0  0  0  0  0
    3.0153    1.2811    0.9556 C   0  0  0  0  0  0  0  0  0  0  0  0
    2.2721    2.0193    1.9036 C   0  0  0  0  0  0  0  0  0  0  0  0
    2.3588    3.3947    2.1607 C   0  0  0  0  0  0  0  0  0  0  0  0
    3.3592    4.2213    1.4746 C   0  0  0  0  0  0  0  0  0  0  0  0
    4.3109    4.9352    2.2001 C   0  0  0  0  0  0  0  0  0  0  0  0
    5.3259    5.6024    1.5521 C   0  0  0  0  0  0  0  0  0  0  0  0
    5.4367    5.5925    0.1595 C   0  0  0  0  0  0  0  0  0  0  0  0
    6.8479    6.4191   -0.5110 S   0  0  0  0  0  0  0  0  0  0  0  0
    7.0178    5.7852   -2.2267 C   0  0  0  0  0  0  0  0  0  0  0  0
    8.4249    6.0724   -2.7131 C   0  0  0  0  0  0  0  0  0  0  0  0
    4.4332    4.9447   -0.5507 C   0  0  0  0  0  0  0  0  0  0  0  0
    4.4084    4.9503   -1.9066 F   0  0  0  0  0  0  0  0  0  0  0  0
    3.4171    4.2635    0.0882 C   0  0  0  0  0  0  0  0  0  0  0  0
    1.4939    3.9006    3.1113 C   0  0  0  0  0  0  0  0  0  0  0  0
    0.5877    3.1045    3.8582 C   0  0  0  0  0  0  0  0  0  0  0  0
    0.5635    1.7079    3.6608 C   0  0  0  0  0  0  0  0  0  0  0  0
   -0.2743    0.8115    4.4672 C   0  0  0  0  0  0  0  0  0  0  0  0
    0.2350   -0.3972    4.9468 C   0  0  0  0  0  0  0  0  0  0  0  0
   -0.5471   -1.2504    5.6943 C   0  0  0  0  0  0  0  0  0  0  0  0
   -1.8718   -0.9444    6.0012 C   0  0  0  0  0  0  0  0  0  0  0  0
   -2.8003   -2.1520    6.9009 S   0  0  0  0  0  0  0  0  0  0  0  0
   -3.8410   -1.1725    8.0475 C   0  0  0  0  0  0  0  0  0  0  0  0
   -3.0150   -0.2635    8.9352 C   0  0  0  0  0  0  0  0  0  0  0  0
   -2.3658    0.2624    5.5212 C   0  0  0  0  0  0  0  0  0  0  0  0
   -1.5912    1.1298    4.7812 C   0  0  0  0  0  0  0  0  0  0  0  0
   -3.6435    0.6354    5.7706 F   0  0  0  0  0  0  0  0  0  0  0  0
    1.3925    1.2083    2.6605 C   0  0  0  0  0  0  0  0  0  0  0  0
    1.4941   -0.4493    2.1164 S   0  0  0  0  0  0  0  0  0  0  0  0
   -0.1887    3.9093    4.7369 C   0  0  0  0  0  0  0  0  0  0  0  0
    0.0450    5.2460    4.6167 C   0  0  0  0  0  0  0  0  0  0  0  0
    1.3382    5.5925    3.4802 S   0  0  0  0  0  0  0  0  0  0  0  0
   -0.5829    6.3540    5.2737 C   0  0  0  0  0  0  0  0  0  0  0  0
    0.4552    7.6531    5.7960 S   0  0  0  0  0  0  0  0  0  0  0  0
   -0.8572    8.5038    6.4658 C   0  0  0  0  0  0  0  0  0  0  0  0
   -2.0508    7.8523    6.2909 C   0  0  0  0  0  0  0  0  0  0  0  0
   -1.9155    6.6110    5.5769 C   0  0  0  0  0  0  0  0  0  0  0  0
   -3.0507    5.8317    5.2016 C   0  0  0  0  0  0  0  0  0  0  0  0
   -4.5552    6.0473    5.9726 S   0  0  0  0  0  4  0  0  0  0  0  0
   -4.4334    5.1592    7.4609 O   0  0  0  0  0  0  0  0  0  0  0  0
   -5.6184    4.7130    8.0623 C   0  0  0  0  0  0  0  0  0  0  0  0
   -4.4344    7.6636    6.6761 C   0  0  0  0  0  0  0  0  0  0  0  0
   -3.2990    8.3740    6.7430 C   0  0  0  0  0  0  0  0  0  0  0  0
   -5.6880    8.0339    7.0598 O   0  0  0  0  0  0  0  0  0  0  0  0
   -5.8657    9.3442    7.5518 C   0  0  0  0  0  0  0  0  0  0  0  0
   -3.0555    4.8194    4.1924 C   0  0  0  0  0  0  0  0  0  0  0  0
   -4.0263    3.8840    4.0804 C   0  0  0  0  0  0  0  0  0  0  0  0
   -4.0842    2.7850    3.1806 C   0  0  0  0  0  0  0  0  0  0  0  0
   -4.9898    1.7648    3.2770 C   0  0  0  0  0  0  0  0  0  0  0  0
   -4.7209    0.6650    2.4321 C   0  0  0  0  0  0  0  0  0  0  0  0
   -5.4327   -0.5423    2.3407 C   0  0  0  0  0  0  0  0  0  0  0  0
   -6.6248   -0.8143    3.1546 C   0  0  0  0  0  0  0  0  0  0  0  0
   -6.5892   -0.7034    4.5429 C   0  0  0  0  0  0  0  0  0  0  0  0
   -7.6971   -1.0185    5.3005 C   0  0  0  0  0  0  0  0  0  0  0  0
   -8.8832   -1.4377    4.7047 C   0  0  0  0  0  0  0  0  0  0  0  0
  -10.2632   -1.7897    5.7601 S   0  0  0  0  0  0  0  0  0  0  0  0
  -10.9034   -3.3673    5.0861 C   0  0  0  0  0  0  0  0  0  0  0  0
   -9.8467   -4.4536    5.0868 C   0  0  0  0  0  0  0  0  0  0  0  0
   -8.9156   -1.5111    3.3164 C   0  0  0  0  0  0  0  0  0  0  0  0
  -10.0502   -1.8636    2.6719 F   0  0  0  0  0  0  0  0  0  0  0  0
   -7.8056   -1.2274    2.5474 C   0  0  0  0  0  0  0  0  0  0  0  0
   -4.9345   -1.4944    1.4687 C   0  0  0  0  0  0  0  0  0  0  0  0
   -3.7538   -1.3079    0.7120 C   0  0  0  0  0  0  0  0  0  0  0  0
   -3.0800   -0.0704    0.7526 C   0  0  0  0  0  0  0  0  0  0  0  0
   -1.9910    0.1567   -0.2068 C   0  0  0  0  0  0  0  0  0  0  0  0
   -0.9327   -0.7416   -0.3311 C   0  0  0  0  0  0  0  0  0  0  0  0
   -0.0749   -0.6678   -1.4089 C   0  0  0  0  0  0  0  0  0  0  0  0
   -0.2316    0.3115   -2.3813 C   0  0  0  0  0  0  0  0  0  0  0  0
    0.7538    0.2168   -3.8570 S   0  0  0  0  0  0  0  0  0  0  0  0
    1.6406    1.8156   -3.8088 C   0  0  0  0  0  0  0  0  0  0  0  0
    2.5681    1.8942   -2.6151 C   0  0  0  0  0  0  0  0  0  0  0  0
   -1.2317    1.2580   -2.1973 C   0  0  0  0  0  0  0  0  0  0  0  0
   -2.1003    1.1952   -1.1272 C   0  0  0  0  0  0  0  0  0  0  0  0
   -1.4019    2.2483   -3.1009 F   0  0  0  0  0  0  0  0  0  0  0  0
   -3.5815    0.8872    1.6166 C   0  0  0  0  0  0  0  0  0  0  0  0
   -2.8879    2.4656    1.9235 S   0  0  0  0  0  0  0  0  0  0  0  0
   -3.4152   -2.4638   -0.0324 C   0  0  0  0  0  0  0  0  0  0  0  0
   -4.2934   -3.5006    0.1143 C   0  0  0  0  0  0  0  0  0  0  0  0
   -5.6101   -3.0801    1.2032 S   0  0  0  0  0  0  0  0  0  0  0  0
   -4.1966   -4.8282   -0.3833 C   0  0  0  0  0  0  0  0  0  0  0  0
   -5.0856   -6.0590    0.4812 S   0  0  0  0  0  0  0  0  0  0  0  0
   -4.2083   -7.3065   -0.2716 C   0  0  0  0  0  0  0  0  0  0  0  0
   -3.2823   -6.8330   -1.1670 C   0  0  0  0  0  0  0  0  0  0  0  0
   -3.3292   -5.4010   -1.3240 C   0  0  0  0  0  0  0  0  0  0  0  0
   -2.5537   -4.7510   -2.3142 C   0  0  0  0  0  0  0  0  0  0  0  0
   -1.4147   -5.5696   -3.2756 S   0  0  0  0  0  4  0  0  0  0  0  0
   -2.1927   -6.3399   -4.7080 O   0  0  0  0  0  0  0  0  0  0  0  0
   -2.6093   -5.5285   -5.7637 C   0  0  0  0  0  0  0  0  0  0  0  0
   -1.3056   -7.1826   -2.5585 C   0  0  0  0  0  0  0  0  0  0  0  0
   -2.2676   -7.6463   -1.7403 C   0  0  0  0  0  0  0  0  0  0  0  0
   -0.2308   -7.9459   -2.8515 O   0  0  0  0  0  0  0  0  0  0  0  0
    0.5733   -7.5743   -3.9475 C   0  0  0  0  0  0  0  0  0  0  0  0
   -2.7289   -3.4061   -2.8358 C   0  0  0  0  0  0  0  0  0  0  0  0
   -3.8569   -2.7019   -2.8696 C   0  0  0  0  0  0  0  0  0  0  0  0
    1.7318   -7.4462   -7.1441 H   0  0  0  0  0  0  0  0  0  0  0  0
    0.9892   -4.9460   -7.2175 H   0  0  0  0  0  0  0  0  0  0  0  0
    2.6716   -0.8735   -7.2330 H   0  0  0  0  0  0  0  0  0  0  0  0
    0.7948    0.4790   -7.9769 H   0  0  0  0  0  0  0  0  0  0  0  0
   -0.7769    1.7964   -8.6275 H   0  0  0  0  0  0  0  0  0  0  0  0
   -2.3922    2.3713   -8.1922 H   0  0  0  0  0  0  0  0  0  0  0  0
   -0.1350    1.9074   -6.1713 H   0  0  0  0  0  0  0  0  0  0  0  0
   -1.7387    2.5340   -5.8029 H   0  0  0  0  0  0  0  0  0  0  0  0
   -0.6251    3.4920   -6.7864 H   0  0  0  0  0  0  0  0  0  0  0  0
   -0.0285   -3.5694   -5.2866 H   0  0  0  0  0  0  0  0  0  0  0  0
    5.2154   -4.5765   -1.7827 H   0  0  0  0  0  0  0  0  0  0  0  0
    6.8871   -5.9010   -0.5632 H   0  0  0  0  0  0  0  0  0  0  0  0
    9.5803   -9.3998   -2.9252 H   0  0  0  0  0  0  0  0  0  0  0  0
    7.8959   -9.7440   -2.4546 H   0  0  0  0  0  0  0  0  0  0  0  0
   10.3523  -10.1829   -0.6768 H   0  0  0  0  0  0  0  0  0  0  0  0
    8.6836  -10.5405   -0.2261 H   0  0  0  0  0  0  0  0  0  0  0  0
    9.4671  -11.4615   -1.5177 H   0  0  0  0  0  0  0  0  0  0  0  0
    6.3571   -6.5495   -5.4102 H   0  0  0  0  0  0  0  0  0  0  0  0
    6.3836   -2.7928   -3.0518 H   0  0  0  0  0  0  0  0  0  0  0  0
    8.1579    2.7596   -3.1483 H   0  0  0  0  0  0  0  0  0  0  0  0
    8.4497   -2.1193    0.9284 H   0  0  0  0  0  0  0  0  0  0  0  0
    7.4971   -1.5090   -0.4480 H   0  0  0  0  0  0  0  0  0  0  0  0
    8.7555   -0.4808    0.2888 H   0  0  0  0  0  0  0  0  0  0  0  0
    7.9396    3.0953   -0.5645 H   0  0  0  0  0  0  0  0  0  0  0  0
    8.9857    3.0951    1.6812 H   0  0  0  0  0  0  0  0  0  0  0  0
    7.6576    4.2659    1.4383 H   0  0  0  0  0  0  0  0  0  0  0  0
    8.0204    3.6559    3.0722 H   0  0  0  0  0  0  0  0  0  0  0  0
    4.4302   -1.8138   -1.4649 H   0  0  0  0  0  0  0  0  0  0  0  0
    2.5859   -1.9429   -0.0253 H   0  0  0  0  0  0  0  0  0  0  0  0
    3.7247    1.7395    0.2916 H   0  0  0  0  0  0  0  0  0  0  0  0
    4.2691    4.9400    3.2780 H   0  0  0  0  0  0  0  0  0  0  0  0
    6.0704    6.1422    2.1175 H   0  0  0  0  0  0  0  0  0  0  0  0
    6.2781    6.2861   -2.8497 H   0  0  0  0  0  0  0  0  0  0  0  0
    6.8177    4.7154   -2.2065 H   0  0  0  0  0  0  0  0  0  0  0  0
    8.6247    7.1413   -2.6965 H   0  0  0  0  0  0  0  0  0  0  0  0
    9.1606    5.5784   -2.0822 H   0  0  0  0  0  0  0  0  0  0  0  0
    8.5391    5.7138   -3.7339 H   0  0  0  0  0  0  0  0  0  0  0  0
    2.6588    3.7849   -0.5093 H   0  0  0  0  0  0  0  0  0  0  0  0
    1.2636   -0.6602    4.7569 H   0  0  0  0  0  0  0  0  0  0  0  0
   -0.1406   -2.1802    6.0605 H   0  0  0  0  0  0  0  0  0  0  0  0
   -4.3488   -1.9388    8.6333 H   0  0  0  0  0  0  0  0  0  0  0  0
   -4.5810   -0.6184    7.4743 H   0  0  0  0  0  0  0  0  0  0  0  0
   -3.6620    0.2294    9.6582 H   0  0  0  0  0  0  0  0  0  0  0  0
   -2.2621   -0.8365    9.4723 H   0  0  0  0  0  0  0  0  0  0  0  0
   -2.5124    0.5017    8.3467 H   0  0  0  0  0  0  0  0  0  0  0  0
   -2.0464    2.0366    4.4247 H   0  0  0  0  0  0  0  0  0  0  0  0
   -0.8981    3.5243    5.4447 H   0  0  0  0  0  0  0  0  0  0  0  0
   -0.6941    9.4396    6.9625 H   0  0  0  0  0  0  0  0  0  0  0  0
   -5.3233    4.1695    8.9602 H   0  0  0  0  0  0  0  0  0  0  0  0
   -6.1730    4.0398    7.4013 H   0  0  0  0  0  0  0  0  0  0  0  0
   -6.2622    5.5529    8.3419 H   0  0  0  0  0  0  0  0  0  0  0  0
   -3.2891    9.3652    7.1717 H   0  0  0  0  0  0  0  0  0  0  0  0
   -5.2964    9.5023    8.4727 H   0  0  0  0  0  0  0  0  0  0  0  0
   -6.9296    9.4388    7.7601 H   0  0  0  0  0  0  0  0  0  0  0  0
   -5.5688   10.0882    6.8069 H   0  0  0  0  0  0  0  0  0  0  0  0
   -2.2325    4.8156    3.4926 H   0  0  0  0  0  0  0  0  0  0  0  0
   -4.8274    3.8793    4.8108 H   0  0  0  0  0  0  0  0  0  0  0  0
   -5.8100    1.7865    3.9711 H   0  0  0  0  0  0  0  0  0  0  0  0
   -5.6762   -0.3991    5.0268 H   0  0  0  0  0  0  0  0  0  0  0  0
   -7.6630   -0.9514    6.3772 H   0  0  0  0  0  0  0  0  0  0  0  0
  -11.3021   -3.1882    4.0900 H   0  0  0  0  0  0  0  0  0  0  0  0
  -11.7251   -3.6142    5.7586 H   0  0  0  0  0  0  0  0  0  0  0  0
   -9.0245   -4.1963    4.4213 H   0  0  0  0  0  0  0  0  0  0  0  0
  -10.2841   -5.3900    4.7459 H   0  0  0  0  0  0  0  0  0  0  0  0
   -9.4476   -4.5978    6.0888 H   0  0  0  0  0  0  0  0  0  0  0  0
   -7.8815   -1.3074    1.4742 H   0  0  0  0  0  0  0  0  0  0  0  0
   -0.7914   -1.5042    0.4193 H   0  0  0  0  0  0  0  0  0  0  0  0
    0.7177   -1.3889   -1.5337 H   0  0  0  0  0  0  0  0  0  0  0  0
    0.9049    2.6181   -3.8072 H   0  0  0  0  0  0  0  0  0  0  0  0
    2.1997    1.8374   -4.7438 H   0  0  0  0  0  0  0  0  0  0  0  0
    1.9976    1.8511   -1.6882 H   0  0  0  0  0  0  0  0  0  0  0  0
    3.2680    1.0618   -2.6178 H   0  0  0  0  0  0  0  0  0  0  0  0
    3.1325    2.8230   -2.6537 H   0  0  0  0  0  0  0  0  0  0  0  0
   -2.8944    1.9218   -1.0520 H   0  0  0  0  0  0  0  0  0  0  0  0
   -2.5225   -2.5449   -0.6168 H   0  0  0  0  0  0  0  0  0  0  0  0
   -4.3828   -8.3282    0.0004 H   0  0  0  0  0  0  0  0  0  0  0  0
   -3.3035   -6.1191   -6.3639 H   0  0  0  0  0  0  0  0  0  0  0  0
   -1.7640   -5.2232   -6.3913 H   0  0  0  0  0  0  0  0  0  0  0  0
   -3.1257   -4.6348   -5.4020 H   0  0  0  0  0  0  0  0  0  0  0  0
   -2.2108   -8.6793   -1.4295 H   0  0  0  0  0  0  0  0  0  0  0  0
    1.2968   -8.3780   -4.0705 H   0  0  0  0  0  0  0  0  0  0  0  0
    1.1039   -6.6373   -3.7451 H   0  0  0  0  0  0  0  0  0  0  0  0
   -0.0231   -7.4666   -4.8567 H   0  0  0  0  0  0  0  0  0  0  0  0
   -1.8417   -2.9974   -3.3087 H   0  0  0  0  0  0  0  0  0  0  0  0
   -4.7822   -3.0823   -2.4757 H   0  0  0  0  0  0  0  0  0  0  0  0
   -3.8845   -1.7283   -3.3243 H   0  0  0  0  0  0  0  0  0  0  0  0
  1  2  2  0  0  0  0
  2  3  1  0  0  0  0
  3  4  2  0  0  0  0
  4  5  1  0  0  0  0
  5  6  2  0  0  0  0
  6  7  1  0  0  0  0
  7  8  2  0  0  0  0
  8  9  1  0  0  0  0
  9 10  1  0  0  0  0
 10 11  1  0  0  0  0
  8 12  1  0  0  0  0
 12 13  1  0  0  0  0
 12 14  2  0  0  0  0
  4 15  1  0  0  0  0
 15 16  2  0  0  0  0
 16 17  1  0  0  0  0
 17 18  1  0  0  0  0
 18 19  2  0  0  0  0
 19 20  1  0  0  0  0
 20 21  2  0  0  0  0
 21 22  1  0  0  0  0
 22 23  1  0  0  0  0
 23 24  1  0  0  0  0
 21 25  1  0  0  0  0
 25 26  2  0  0  0  0
 25 27  1  0  0  0  0
 17 28  2  0  0  0  0
 28 29  1  0  0  0  0
 16 30  1  0  0  0  0
 30 31  2  0  0  0  0
 31 32  1  0  0  0  0
 31 33  1  0  0  0  0
 33 34  1  0  0  0  0
 34 35  1  0  0  0  0
 35 36  2  0  0  0  0
 36 37  1  0  0  0  0
 37 38  1  0  0  0  0
 38 39  2  0  0  0  0
 39 40  1  0  0  0  0
 40 41  1  0  0  0  0
 39 42  1  0  0  0  0
 42 43  2  0  0  0  0
 42 44  1  0  0  0  0
 44 45  1  0  0  0  0
 38 46  1  0  0  0  0
 46 47  2  0  0  0  0
 47 48  1  0  0  0  0
 48 49  2  0  0  0  0
 49 50  1  0  0  0  0
 50 51  2  0  0  0  0
 51 52  1  0  0  0  0
 52 53  2  0  0  0  0
 53 54  1  0  0  0  0
 54 55  2  0  0  0  0
 55 56  1  0  0  0  0
 56 57  1  0  0  0  0
 57 58  1  0  0  0  0
 55 59  1  0  0  0  0
 59 60  1  0  0  0  0
 59 61  2  0  0  0  0
 51 62  1  0  0  0  0
 62 63  2  0  0  0  0
 63 64  1  0  0  0  0
 64 65  1  0  0  0  0
 65 66  2  0  0  0  0
 66 67  1  0  0  0  0
 67 68  2  0  0  0  0
 68 69  1  0  0  0  0
 69 70  1  0  0  0  0
 70 71  1  0  0  0  0
 68 72  1  0  0  0  0
 72 73  2  0  0  0  0
 72 74  1  0  0  0  0
 64 75  2  0  0  0  0
 75 76  1  0  0  0  0
 63 77  1  0  0  0  0
 77 78  2  0  0  0  0
 78 79  1  0  0  0  0
 78 80  1  0  0  0  0
 80 81  1  0  0  0  0
 81 82  1  0  0  0  0
 82 83  2  0  0  0  0
 83 84  1  0  0  0  0
 84 85  1  0  0  0  0
 85 86  2  0  0  0  0
 86 87  1  0  0  0  0
 87 88  1  0  0  0  0
 86 89  1  0  0  0  0
 89 90  2  0  0  0  0
 89 91  1  0  0  0  0
 91 92  1  0  0  0  0
 85 93  1  0  0  0  0
 93 94  2  0  0  0  0
 94 95  1  0  0  0  0
 95 96  2  0  0  0  0
 96 97  1  0  0  0  0
 97 98  2  0  0  0  0
 98 99  1  0  0  0  0
 99100  2  0  0  0  0
100101  1  0  0  0  0
101102  2  0  0  0  0
102103  1  0  0  0  0
103104  1  0  0  0  0
104105  1  0  0  0  0
102106  1  0  0  0  0
106107  1  0  0  0  0
106108  2  0  0  0  0
 98109  1  0  0  0  0
109110  2  0  0  0  0
110111  1  0  0  0  0
111112  1  0  0  0  0
112113  2  0  0  0  0
113114  1  0  0  0  0
114115  2  0  0  0  0
115116  1  0  0  0  0
116117  1  0  0  0  0
117118  1  0  0  0  0
115119  1  0  0  0  0
119120  2  0  0  0  0
119121  1  0  0  0  0
111122  2  0  0  0  0
122123  1  0  0  0  0
110124  1  0  0  0  0
124125  2  0  0  0  0
125126  1  0  0  0  0
125127  1  0  0  0  0
127128  1  0  0  0  0
128129  1  0  0  0  0
129130  2  0  0  0  0
130131  1  0  0  0  0
131132  1  0  0  0  0
132133  2  0  0  0  0
133134  1  0  0  0  0
134135  1  0  0  0  0
133136  1  0  0  0  0
136137  2  0  0  0  0
136138  1  0  0  0  0
138139  1  0  0  0  0
132140  1  0  0  0  0
140141  2  0  0  0  0
 29  1  1  0  0  0  0
 37 33  2  0  0  0  0
 76 48  1  0  0  0  0
 84 80  2  0  0  0  0
123 95  1  0  0  0  0
131127  2  0  0  0  0
 28  3  1  0  0  0  0
 43 36  1  0  0  0  0
 75 50  1  0  0  0  0
 90 83  1  0  0  0  0
122 97  1  0  0  0  0
137130  1  0  0  0  0
 14  5  1  0  0  0  0
 32 15  1  0  0  0  0
 61 52  1  0  0  0  0
 79 62  1  0  0  0  0
108 99  1  0  0  0  0
126109  1  0  0  0  0
 26 18  1  0  0  0  0
 73 65  1  0  0  0  0
120112  1  0  0  0  0
  1142  1  0  0  0  0
  2143  1  0  0  0  0
  6144  1  0  0  0  0
  7145  1  0  0  0  0
 10146  1  0  0  0  0
 10147  1  0  0  0  0
 11148  1  0  0  0  0
 11149  1  0  0  0  0
 11150  1  0  0  0  0
 14151  1  0  0  0  0
 19152  1  0  0  0  0
 20153  1  0  0  0  0
 23154  1  0  0  0  0
 23155  1  0  0  0  0
 24156  1  0  0  0  0
 24157  1  0  0  0  0
 24158  1  0  0  0  0
 26159  1  0  0  0  0
 30160  1  0  0  0  0
 35161  1  0  0  0  0
 41162  1  0  0  0  0
 41163  1  0  0  0  0
 41164  1  0  0  0  0
 43165  1  0  0  0  0
 45166  1  0  0  0  0
 45167  1  0  0  0  0
 45168  1  0  0  0  0
 46169  1  0  0  0  0
 47170  1  0  0  0  0
 49171  1  0  0  0  0
 53172  1  0  0  0  0
 54173  1  0  0  0  0
 57174  1  0  0  0  0
 57175  1  0  0  0  0
 58176  1  0  0  0  0
 58177  1  0  0  0  0
 58178  1  0  0  0  0
 61179  1  0  0  0  0
 66180  1  0  0  0  0
 67181  1  0  0  0  0
 70182  1  0  0  0  0
 70183  1  0  0  0  0
 71184  1  0  0  0  0
 71185  1  0  0  0  0
 71186  1  0  0  0  0
 73187  1  0  0  0  0
 77188  1  0  0  0  0
 82189  1  0  0  0  0
 88190  1  0  0  0  0
 88191  1  0  0  0  0
 88192  1  0  0  0  0
 90193  1  0  0  0  0
 92194  1  0  0  0  0
 92195  1  0  0  0  0
 92196  1  0  0  0  0
 93197  1  0  0  0  0
 94198  1  0  0  0  0
 96199  1  0  0  0  0
100200  1  0  0  0  0
101201  1  0  0  0  0
104202  1  0  0  0  0
104203  1  0  0  0  0
105204  1  0  0  0  0
105205  1  0  0  0  0
105206  1  0  0  0  0
108207  1  0  0  0  0
113208  1  0  0  0  0
114209  1  0  0  0  0
117210  1  0  0  0  0
117211  1  0  0  0  0
118212  1  0  0  0  0
118213  1  0  0  0  0
118214  1  0  0  0  0
120215  1  0  0  0  0
124216  1  0  0  0  0
129217  1  0  0  0  0
135218  1  0  0  0  0
135219  1  0  0  0  0
135220  1  0  0  0  0
137221  1  0  0  0  0
139222  1  0  0  0  0
139223  1  0  0  0  0
139224  1  0  0  0  0
140225  1  0  0  0  0
141226  1  0  0  0  0
141227  1  0  0  0  0
M  END
