77

C          3.98630        1.80250        1.80380
O          3.08120        2.12010        0.87550
C          3.74440        2.60910       -0.20040
C          5.09740        2.61180        0.05020
C          5.24670        2.07980        1.35190
C          6.52220        1.88340        2.08650
F          6.42180        0.95600        3.04960
F          7.53160        1.51820        1.28830
F          6.93100        3.01470        2.70460
C          3.03420        3.13280       -1.33030
S          3.84300        4.39100       -2.22420
C          2.42200        4.77120       -3.07930
C          1.36230        3.97480       -2.72450
C          1.72280        2.96060       -1.76670
C          0.79820        1.95480       -1.37490
S         -0.84720        1.97410       -1.88720
O         -0.88400        1.15030       -3.40990
C         -0.63250       -0.23030       -3.43370
C         -1.04470        3.52460       -2.72900
C          0.02320        4.23600       -3.13120
O         -2.29650        3.97070       -2.95400
C         -3.37180        3.06320       -2.82730
C          1.04000        0.73370       -0.69870
C          2.20730        0.04000       -0.59210
C          2.27800       -1.19360        0.09750
O          1.18880       -1.73240        0.66970
C          1.55470       -2.89610        1.27500
C          2.90430       -3.11740        1.09050
C          3.37060       -2.03350        0.33170
C          4.75670       -1.80950       -0.14420
F          4.81550       -1.59950       -1.47690
F          5.32780       -0.71900        0.41030
F          5.56530       -2.83890        0.11600
C          0.53000       -3.64430        1.92000
O         -0.74070       -3.25120        1.75940
C         -1.53940       -4.10100        2.45010
C         -0.77360       -5.06200        3.07500
C          0.55990       -4.77290        2.73530
C          1.75790       -5.53120        3.17880
F          1.44940       -6.50670        4.03770
F          2.40980       -6.11590        2.15390
F          2.66680       -4.74990        3.79120
C         -2.94790       -3.87920        2.37980
O         -3.39900       -2.91380        1.56320
C         -4.74750       -2.89540        1.63950
C         -5.18710       -3.85570        2.52080
C         -4.02730       -4.49460        3.00160
C         -3.99110       -5.60640        3.98720
F         -5.21060       -5.91310        4.44100
F         -3.23920       -5.31850        5.06500
F         -3.47760       -6.73970        3.47220
C         -5.47760       -1.96140        0.83780
O         -6.81500       -1.91230        0.92590
C         -7.25040       -0.97240        0.07220
C         -6.21000       -0.39340       -0.58570
C         -5.04440       -1.03310       -0.09280
C         -3.64790       -0.75760       -0.51130
F         -2.87440       -0.27480        0.47600
F         -3.60210        0.16840       -1.49100
F         -3.01190       -1.83500       -0.99850
H          3.64060        1.38120        2.72590
H          5.87910        2.93260       -0.60600
H          2.41610        5.57820       -3.78420
H         -1.40350       -0.79010       -2.89880
H          0.34690       -0.45800       -3.00240
H         -0.63910       -0.52010       -4.48400
H         -0.15630        5.11620       -3.73120
H         -4.24500        3.59140       -3.20550
H         -3.20320        2.15800       -3.41410
H         -3.53560        2.79200       -1.78020
H          0.15430        0.25870       -0.28850
H          3.11600        0.38350       -1.05730
H          3.48840       -3.94380        1.43660
H         -1.10240       -5.87100        3.69240
H         -6.20020       -4.07430        2.78680
H         -8.30750       -0.80740        0.02010
H         -6.24650        0.37950       -1.32460
