87

C         -1.37050       -6.55760       -0.67870
S         -1.55220       -4.84360       -0.56730
C         -2.89200       -4.85700       -1.67950
C         -3.14640       -6.14580       -2.11470
C         -2.27130       -7.11900       -1.53040
O         -2.41800       -8.42130       -1.85330
C         -1.52720       -9.33150       -1.25450
C         -4.18530       -6.49010       -2.99040
N         -5.04730       -6.77730       -3.69210
C         -3.48410       -3.64600       -2.14370
S         -3.94970       -3.51740       -3.82230
C         -4.22080       -1.84130       -3.66510
C         -3.99710       -1.37900       -2.39360
C         -3.60410       -2.42100       -1.49250
C         -3.44360       -2.21170       -0.09420
S         -3.16170       -0.65690        0.53660
O         -1.49430       -0.27290        0.41730
C         -0.77270       -0.72700       -0.69080
C         -3.77550        0.39640       -0.75910
C         -4.14570       -0.02050       -1.97990
O         -3.86660        1.64110       -0.22970
C         -4.43050        2.66300       -1.02240
C         -3.64380       -3.27360        0.85480
C         -3.16900       -3.34040        2.10820
C         -2.18540       -2.39430        2.63480
S         -0.51460       -2.67520        2.19450
C          0.01940       -1.23980        3.00270
C         -1.04880       -0.59220        3.58840
C         -2.29850       -1.26290        3.39480
O         -3.40570       -0.70180        3.93400
C         -4.62680       -1.39620        3.84660
C         -0.93020        0.59900        4.32030
N         -0.82300        1.55970        4.93880
C          1.35140       -0.71740        2.85950
S          1.45870        0.94560        2.30850
C          3.18160        0.85940        2.20370
C          3.64450       -0.38810        2.59470
C          2.60060       -1.28700        2.97620
O          2.97300       -2.49570        3.43900
C          2.04620       -3.31050        4.11620
C          4.99700       -0.75420        2.63340
N          6.10380       -1.05720        2.67370
C          3.92740        1.98560        1.77090
S          5.65380        1.99300        1.58430
C          5.63810        3.64380        1.06470
C          4.35080        4.17500        1.05830
C          3.37380        3.21890        1.44770
O          2.03830        3.33930        1.53300
C          1.41500        4.58550        1.31290
C          4.10360        5.53520        0.81060
N          3.90780        6.65730        0.66510
C          6.86140        4.28750        0.70490
S          8.35600        3.83510        1.47560
C          9.22470        4.96510        0.54970
C          8.43280        5.65770       -0.33650
C          7.06130        5.26200       -0.26140
O          6.03500        5.65600       -1.03150
C          6.19570        6.77700       -1.87610
C          8.99600        6.61870       -1.19610
N          9.50800        7.38760       -1.87640
H         -0.60340       -7.02760       -0.09880
H         -1.79890      -10.31130       -1.64160
H         -0.49000       -9.10540       -1.52180
H         -1.62800       -9.32640       -0.16440
H         -4.53480       -1.27110       -4.51690
H          0.27900       -0.53570       -0.47920
H         -0.92070       -1.80430       -0.83720
H         -1.06570       -0.19670       -1.60350
H         -4.55040        0.67290       -2.70270
H         -3.83510        2.84100       -1.92300
H         -4.42380        3.55460       -0.39920
H         -5.45850        2.41980       -1.30740
H         -4.27530       -4.07920        0.50060
H         -3.43150       -4.18400        2.73230
H         -5.34900       -0.77890        4.37820
H         -4.94370       -1.52310        2.80740
H         -4.56160       -2.37590        4.32760
H          1.42090       -3.86950        3.41340
H          1.40790       -2.72380        4.78230
H          2.64420       -4.00770        4.70200
H          1.59670        4.94840        0.29790
H          1.75470        5.33430        2.03220
H          0.35160        4.39970        1.45470
H         10.28260        5.08180        0.68110
H          5.20380        6.97770       -2.27640
H          6.88960        6.56370       -2.69360
H          6.54300        7.64960       -1.31850
