
  xtb     03082205343D
 energy: -436.813237258746 gnorm: 0.000365825652 xtb: 6.4.1 (unknown)
252275  0     0  0            999 V2000
    4.8118   -2.0570   12.1068 C   0  0  0  0  0  0  0  0  0  0  0  0
    6.4619   -1.8812   12.5395 S   0  0  0  0  0  0  0  0  0  0  0  0
    6.3644   -3.1922   13.6292 C   0  0  0  0  0  0  0  0  0  0  0  0
    5.1120   -3.7484   13.6636 C   0  0  0  0  0  0  0  0  0  0  0  0
    4.1980   -3.0889   12.7719 C   0  0  0  0  0  0  0  0  0  0  0  0
    2.8363   -3.5012   12.6176 C   0  0  0  0  0  0  0  0  0  0  0  0
    2.1016   -4.5399   13.7520 S   0  0  0  0  0  4  0  0  0  0  0  0
    1.7356   -3.6454   15.2063 O   0  0  0  0  0  0  0  0  0  0  0  0
    0.5282   -2.9382   15.2575 C   0  0  0  0  0  0  0  0  0  0  0  0
    3.4788   -5.3117   14.5516 C   0  0  0  0  0  0  0  0  0  0  0  0
    4.7471   -4.8853   14.4464 C   0  0  0  0  0  0  0  0  0  0  0  0
    3.0090   -6.4015   15.2112 O   0  0  0  0  0  0  0  0  0  0  0  0
    3.9378   -7.2044   15.9049 C   0  0  0  0  0  0  0  0  0  0  0  0
    2.0263   -3.0429   11.5466 C   0  0  0  0  0  0  0  0  0  0  0  0
    0.6886   -3.2159   11.4103 C   0  0  0  0  0  0  0  0  0  0  0  0
   -0.0598   -2.7616   10.2939 C   0  0  0  0  0  0  0  0  0  0  0  0
   -1.4084   -2.8870   10.0936 C   0  0  0  0  0  0  0  0  0  0  0  0
   -1.8730   -2.3151    8.8852 C   0  0  0  0  0  0  0  0  0  0  0  0
   -3.1920   -2.2728    8.3948 C   0  0  0  0  0  0  0  0  0  0  0  0
   -4.2960   -2.9426    9.0910 C   0  0  0  0  0  0  0  0  0  0  0  0
   -5.4839   -2.2662    9.3629 C   0  0  0  0  0  0  0  0  0  0  0  0
   -6.5282   -2.9054    9.9965 C   0  0  0  0  0  0  0  0  0  0  0  0
   -6.4296   -4.2385   10.3846 C   0  0  0  0  0  0  0  0  0  0  0  0
   -7.8098   -4.9653   11.2265 S   0  0  0  0  0  0  0  0  0  0  0  0
   -8.0139   -6.5670   10.3618 C   0  0  0  0  0  0  0  0  0  0  0  0
   -8.2667   -6.3787    8.8795 C   0  0  0  0  0  0  0  0  0  0  0  0
   -5.2311   -4.8960   10.1275 C   0  0  0  0  0  0  0  0  0  0  0  0
   -5.0547   -6.1823   10.5066 F   0  0  0  0  0  0  0  0  0  0  0  0
   -4.1828   -4.2735    9.4816 C   0  0  0  0  0  0  0  0  0  0  0  0
   -3.3958   -1.5808    7.2092 C   0  0  0  0  0  0  0  0  0  0  0  0
   -2.3423   -0.9433    6.5166 C   0  0  0  0  0  0  0  0  0  0  0  0
   -1.0158   -1.0159    6.9767 C   0  0  0  0  0  0  0  0  0  0  0  0
    0.0452   -0.4204    6.1536 C   0  0  0  0  0  0  0  0  0  0  0  0
   -0.0795    0.8840    5.6808 C   0  0  0  0  0  0  0  0  0  0  0  0
    0.8047    1.3981    4.7542 C   0  0  0  0  0  0  0  0  0  0  0  0
    1.8519    0.6259    4.2687 C   0  0  0  0  0  0  0  0  0  0  0  0
    2.9752    1.1391    3.0093 S   0  0  0  0  0  0  0  0  0  0  0  0
    2.1159    2.5325    2.1912 C   0  0  0  0  0  0  0  0  0  0  0  0
    2.4850    3.8792    2.7857 C   0  0  0  0  0  0  0  0  0  0  0  0
    2.0203   -0.6465    4.8160 C   0  0  0  0  0  0  0  0  0  0  0  0
    1.1390   -1.1742    5.7353 C   0  0  0  0  0  0  0  0  0  0  0  0
    3.0636   -1.3983    4.4160 F   0  0  0  0  0  0  0  0  0  0  0  0
   -0.8152   -1.7105    8.1538 C   0  0  0  0  0  0  0  0  0  0  0  0
    0.7148   -1.9129    8.9633 S   0  0  0  0  0  0  0  0  0  0  0  0
   -2.7862   -0.3606    5.3084 C   0  0  0  0  0  0  0  0  0  0  0  0
   -4.1105   -0.5461    5.0525 C   0  0  0  0  0  0  0  0  0  0  0  0
   -4.9040   -1.4530    6.3211 S   0  0  0  0  0  0  0  0  0  0  0  0
   -4.6498   -0.0867    3.8028 C   0  0  0  0  0  0  0  0  0  0  0  0
   -4.2353    1.0731    3.2224 C   0  0  0  0  0  0  0  0  0  0  0  0
   -4.4623    1.1274    1.8265 C   0  0  0  0  0  0  0  0  0  0  0  0
   -3.9467    2.0628    0.9189 C   0  0  0  0  0  0  0  0  0  0  0  0
   -3.1697    3.2361    1.3430 C   0  0  0  0  0  0  0  0  0  0  0  0
   -2.0696    3.1152    2.1911 C   0  0  0  0  0  0  0  0  0  0  0  0
   -1.3499    4.2287    2.5629 C   0  0  0  0  0  0  0  0  0  0  0  0
   -1.6782    5.5016    2.0981 C   0  0  0  0  0  0  0  0  0  0  0  0
   -0.6328    6.8279    2.6143 S   0  0  0  0  0  0  0  0  0  0  0  0
   -1.7450    8.2883    2.6633 C   0  0  0  0  0  0  0  0  0  0  0  0
   -1.1526    9.3212    3.6015 C   0  0  0  0  0  0  0  0  0  0  0  0
   -2.7586    5.6029    1.2282 C   0  0  0  0  0  0  0  0  0  0  0  0
   -3.1205    6.7964    0.7055 F   0  0  0  0  0  0  0  0  0  0  0  0
   -3.5016    4.4980    0.8620 C   0  0  0  0  0  0  0  0  0  0  0  0
   -4.1161    1.7729   -0.4248 C   0  0  0  0  0  0  0  0  0  0  0  0
   -4.8070    0.6293   -0.8940 C   0  0  0  0  0  0  0  0  0  0  0  0
   -5.3569   -0.2871    0.0198 C   0  0  0  0  0  0  0  0  0  0  0  0
   -6.0215   -1.5100   -0.4483 C   0  0  0  0  0  0  0  0  0  0  0  0
   -7.2932   -1.8584    0.0010 C   0  0  0  0  0  0  0  0  0  0  0  0
   -7.9359   -2.9678   -0.5063 C   0  0  0  0  0  0  0  0  0  0  0  0
   -7.3349   -3.7823   -1.4647 C   0  0  0  0  0  0  0  0  0  0  0  0
   -8.2568   -5.1724   -2.0513 S   0  0  0  0  0  0  0  0  0  0  0  0
   -7.8675   -5.2409   -3.8412 C   0  0  0  0  0  0  0  0  0  0  0  0
   -8.1920   -3.9417   -4.5495 C   0  0  0  0  0  0  0  0  0  0  0  0
   -6.0375   -3.4604   -1.8512 C   0  0  0  0  0  0  0  0  0  0  0  0
   -5.3901   -2.3426   -1.3676 C   0  0  0  0  0  0  0  0  0  0  0  0
   -5.3592   -4.2348   -2.7294 F   0  0  0  0  0  0  0  0  0  0  0  0
   -5.1554   -0.0191    1.3641 C   0  0  0  0  0  0  0  0  0  0  0  0
   -5.5127   -1.1182    2.6775 S   0  0  0  0  0  0  0  0  0  0  0  0
   -4.7283    0.5135   -2.3047 C   0  0  0  0  0  0  0  0  0  0  0  0
   -3.9406    1.4633   -2.8863 C   0  0  0  0  0  0  0  0  0  0  0  0
   -3.3560    2.6416   -1.7316 S   0  0  0  0  0  0  0  0  0  0  0  0
   -3.4236    1.4471   -4.2172 C   0  0  0  0  0  0  0  0  0  0  0  0
   -3.7863    0.6299   -5.2472 C   0  0  0  0  0  0  0  0  0  0  0  0
   -2.8813    0.6607   -6.3383 C   0  0  0  0  0  0  0  0  0  0  0  0
   -2.9000   -0.1308   -7.5000 C   0  0  0  0  0  0  0  0  0  0  0  0
   -3.9191   -1.1686   -7.6985 C   0  0  0  0  0  0  0  0  0  0  0  0
   -4.1807   -2.1046   -6.6980 C   0  0  0  0  0  0  0  0  0  0  0  0
   -5.1158   -3.0983   -6.8910 C   0  0  0  0  0  0  0  0  0  0  0  0
   -5.8333   -3.1911   -8.0811 C   0  0  0  0  0  0  0  0  0  0  0  0
   -7.0445   -4.4770   -8.2164 S   0  0  0  0  0  0  0  0  0  0  0  0
   -6.7711   -5.1437   -9.8982 C   0  0  0  0  0  0  0  0  0  0  0  0
   -5.3470   -5.6241  -10.0905 C   0  0  0  0  0  0  0  0  0  0  0  0
   -5.5749   -2.2413   -9.0643 C   0  0  0  0  0  0  0  0  0  0  0  0
   -6.2601   -2.2506  -10.2280 F   0  0  0  0  0  0  0  0  0  0  0  0
   -4.6224   -1.2564   -8.8942 C   0  0  0  0  0  0  0  0  0  0  0  0
   -1.8496    0.0416   -8.3881 C   0  0  0  0  0  0  0  0  0  0  0  0
   -0.7885    0.9494   -8.1543 C   0  0  0  0  0  0  0  0  0  0  0  0
   -0.7692    1.7447   -6.9992 C   0  0  0  0  0  0  0  0  0  0  0  0
    0.3878    2.5964   -6.6976 C   0  0  0  0  0  0  0  0  0  0  0  0
    1.0627    2.4593   -5.4861 C   0  0  0  0  0  0  0  0  0  0  0  0
    2.2151    3.1706   -5.2350 C   0  0  0  0  0  0  0  0  0  0  0  0
    2.7318    4.0594   -6.1755 C   0  0  0  0  0  0  0  0  0  0  0  0
    4.2758    4.8353   -5.8058 S   0  0  0  0  0  0  0  0  0  0  0  0
    4.0952    6.5154   -6.5303 C   0  0  0  0  0  0  0  0  0  0  0  0
    4.9739    7.4815   -5.7613 C   0  0  0  0  0  0  0  0  0  0  0  0
    2.0310    4.2115   -7.3678 C   0  0  0  0  0  0  0  0  0  0  0  0
    0.8775    3.5015   -7.6327 C   0  0  0  0  0  0  0  0  0  0  0  0
    2.4859    5.0429   -8.3346 F   0  0  0  0  0  0  0  0  0  0  0  0
   -1.8200    1.5724   -6.1140 C   0  0  0  0  0  0  0  0  0  0  0  0
   -1.9803    2.3710   -4.5767 S   0  0  0  0  0  0  0  0  0  0  0  0
    0.2607    0.7812   -9.0907 C   0  0  0  0  0  0  0  0  0  0  0  0
    0.0506   -0.2196   -9.9863 C   0  0  0  0  0  0  0  0  0  0  0  0
   -1.5381   -0.9446   -9.7993 S   0  0  0  0  0  0  0  0  0  0  0  0
    1.0897   -0.7447  -10.8313 C   0  0  0  0  0  0  0  0  0  0  0  0
    0.9518   -0.9582  -12.5478 S   0  0  0  0  0  0  0  0  0  0  0  0
    2.6150   -1.3402  -12.6752 C   0  0  0  0  0  0  0  0  0  0  0  0
    3.2609   -1.3244  -11.4668 C   0  0  0  0  0  0  0  0  0  0  0  0
    2.3739   -1.0176  -10.3863 C   0  0  0  0  0  0  0  0  0  0  0  0
    2.7731   -1.0511   -9.0027 C   0  0  0  0  0  0  0  0  0  0  0  0
    4.3989   -0.7159   -8.6573 S   0  0  0  0  0  4  0  0  0  0  0  0
    4.7258    0.9109   -9.1531 O   0  0  0  0  0  0  0  0  0  0  0  0
    4.0085    1.9586   -8.5643 C   0  0  0  0  0  0  0  0  0  0  0  0
    5.2595   -1.3142  -10.0993 C   0  0  0  0  0  0  0  0  0  0  0  0
    4.6562   -1.5836  -11.2667 C   0  0  0  0  0  0  0  0  0  0  0  0
    6.5484   -1.4903   -9.7391 O   0  0  0  0  0  0  0  0  0  0  0  0
    7.4716   -1.8979  -10.7260 C   0  0  0  0  0  0  0  0  0  0  0  0
    1.8121   -1.4207   -8.0174 C   0  0  0  0  0  0  0  0  0  0  0  0
    1.6586   -1.2950   -6.6738 C   0  0  0  0  0  0  0  0  0  0  0  0
    2.4344   -0.7158   -5.6290 C   0  0  0  0  0  0  0  0  0  0  0  0
    3.7177   -0.2639   -5.5385 C   0  0  0  0  0  0  0  0  0  0  0  0
    4.1043    0.1492   -4.2377 C   0  0  0  0  0  0  0  0  0  0  0  0
    5.3861    0.5358   -3.8207 C   0  0  0  0  0  0  0  0  0  0  0  0
    6.4728    0.6054   -4.8075 C   0  0  0  0  0  0  0  0  0  0  0  0
    6.3560    1.4218   -5.9300 C   0  0  0  0  0  0  0  0  0  0  0  0
    7.3201    1.4015   -6.9155 C   0  0  0  0  0  0  0  0  0  0  0  0
    8.4259    0.5617   -6.8205 C   0  0  0  0  0  0  0  0  0  0  0  0
    9.5613    0.5241   -8.1809 S   0  0  0  0  0  0  0  0  0  0  0  0
   11.1913    0.6501   -7.3528 C   0  0  0  0  0  0  0  0  0  0  0  0
   11.3009    1.9071   -6.5135 C   0  0  0  0  0  0  0  0  0  0  0  0
    8.5375   -0.2357   -5.6867 C   0  0  0  0  0  0  0  0  0  0  0  0
    9.5779   -1.0869   -5.5441 F   0  0  0  0  0  0  0  0  0  0  0  0
    7.5913   -0.2096   -4.6818 C   0  0  0  0  0  0  0  0  0  0  0  0
    5.5610    0.7615   -2.4654 C   0  0  0  0  0  0  0  0  0  0  0  0
    4.5131    0.6379   -1.5204 C   0  0  0  0  0  0  0  0  0  0  0  0
    3.2275    0.2647   -1.9405 C   0  0  0  0  0  0  0  0  0  0  0  0
    2.1197    0.1028   -0.9844 C   0  0  0  0  0  0  0  0  0  0  0  0
    0.9439    0.8380   -1.1202 C   0  0  0  0  0  0  0  0  0  0  0  0
   -0.0923    0.6798   -0.2213 C   0  0  0  0  0  0  0  0  0  0  0  0
    0.0052   -0.2323    0.8236 C   0  0  0  0  0  0  0  0  0  0  0  0
   -1.3478   -0.3884    1.9666 S   0  0  0  0  0  0  0  0  0  0  0  0
   -1.6911   -2.1921    1.9508 C   0  0  0  0  0  0  0  0  0  0  0  0
   -1.3450   -2.8677    3.2616 C   0  0  0  0  0  0  0  0  0  0  0  0
    1.1832   -0.9604    0.9496 C   0  0  0  0  0  0  0  0  0  0  0  0
    2.2317   -0.8008    0.0666 C   0  0  0  0  0  0  0  0  0  0  0  0
    1.3190   -1.8558    1.9446 F   0  0  0  0  0  0  0  0  0  0  0  0
    3.0581    0.0198   -3.2939 C   0  0  0  0  0  0  0  0  0  0  0  0
    1.6239   -0.6129   -4.0578 S   0  0  0  0  0  0  0  0  0  0  0  0
    4.9636    0.9342   -0.1991 C   0  0  0  0  0  0  0  0  0  0  0  0
    6.2706    1.2594   -0.1504 C   0  0  0  0  0  0  0  0  0  0  0  0
    7.0524    1.2364   -1.6961 S   0  0  0  0  0  0  0  0  0  0  0  0
    4.3915   -1.3825   11.3897 H   0  0  0  0  0  0  0  0  0  0  0  0
    7.2277   -3.4875   14.1914 H   0  0  0  0  0  0  0  0  0  0  0  0
    0.4941   -2.1568   14.4911 H   0  0  0  0  0  0  0  0  0  0  0  0
    0.4828   -2.4752   16.2436 H   0  0  0  0  0  0  0  0  0  0  0  0
   -0.3322   -3.6033   15.1340 H   0  0  0  0  0  0  0  0  0  0  0  0
    5.5415   -5.3929   14.9734 H   0  0  0  0  0  0  0  0  0  0  0  0
    3.3571   -8.0132   16.3437 H   0  0  0  0  0  0  0  0  0  0  0  0
    4.4352   -6.6386   16.6982 H   0  0  0  0  0  0  0  0  0  0  0  0
    4.6891   -7.6177   15.2248 H   0  0  0  0  0  0  0  0  0  0  0  0
    2.5459   -2.5142   10.7583 H   0  0  0  0  0  0  0  0  0  0  0  0
    0.1226   -3.7230   12.1815 H   0  0  0  0  0  0  0  0  0  0  0  0
   -2.0548   -3.3589   10.8116 H   0  0  0  0  0  0  0  0  0  0  0  0
   -5.5840   -1.2291    9.0822 H   0  0  0  0  0  0  0  0  0  0  0  0
   -7.4466   -2.3789   10.2042 H   0  0  0  0  0  0  0  0  0  0  0  0
   -7.1381   -7.1838   10.5511 H   0  0  0  0  0  0  0  0  0  0  0  0
   -8.8765   -7.0137   10.8559 H   0  0  0  0  0  0  0  0  0  0  0  0
   -8.4512   -7.3445    8.4130 H   0  0  0  0  0  0  0  0  0  0  0  0
   -7.4064   -5.9205    8.3943 H   0  0  0  0  0  0  0  0  0  0  0  0
   -9.1331   -5.7408    8.7179 H   0  0  0  0  0  0  0  0  0  0  0  0
   -3.2856   -4.8378    9.2788 H   0  0  0  0  0  0  0  0  0  0  0  0
   -0.8810    1.5082    6.0467 H   0  0  0  0  0  0  0  0  0  0  0  0
    0.6633    2.4067    4.4032 H   0  0  0  0  0  0  0  0  0  0  0  0
    2.4357    2.4757    1.1501 H   0  0  0  0  0  0  0  0  0  0  0  0
    1.0465    2.3306    2.2300 H   0  0  0  0  0  0  0  0  0  0  0  0
    3.5503    4.0612    2.6646 H   0  0  0  0  0  0  0  0  0  0  0  0
    1.9362    4.6709    2.2783 H   0  0  0  0  0  0  0  0  0  0  0  0
    2.2556    3.9226    3.8481 H   0  0  0  0  0  0  0  0  0  0  0  0
    1.2904   -2.1816    6.0896 H   0  0  0  0  0  0  0  0  0  0  0  0
   -2.1321    0.1200    4.6056 H   0  0  0  0  0  0  0  0  0  0  0  0
   -3.7320    1.8471    3.7708 H   0  0  0  0  0  0  0  0  0  0  0  0
   -1.7699    2.1387    2.5377 H   0  0  0  0  0  0  0  0  0  0  0  0
   -0.5070    4.1422    3.2299 H   0  0  0  0  0  0  0  0  0  0  0  0
   -1.8410    8.6819    1.6525 H   0  0  0  0  0  0  0  0  0  0  0  0
   -2.7142    7.9421    3.0191 H   0  0  0  0  0  0  0  0  0  0  0  0
   -0.1709    9.6346    3.2533 H   0  0  0  0  0  0  0  0  0  0  0  0
   -1.0480    8.9121    4.6041 H   0  0  0  0  0  0  0  0  0  0  0  0
   -1.8021   10.1927    3.6444 H   0  0  0  0  0  0  0  0  0  0  0  0
   -4.3400    4.6380    0.1973 H   0  0  0  0  0  0  0  0  0  0  0  0
   -7.7916   -1.2354    0.7276 H   0  0  0  0  0  0  0  0  0  0  0  0
   -8.9311   -3.2206   -0.1756 H   0  0  0  0  0  0  0  0  0  0  0  0
   -6.8258   -5.5275   -3.9664 H   0  0  0  0  0  0  0  0  0  0  0  0
   -8.5021   -6.0504   -4.2006 H   0  0  0  0  0  0  0  0  0  0  0  0
   -8.0367   -4.0617   -5.6201 H   0  0  0  0  0  0  0  0  0  0  0  0
   -7.5527   -3.1339   -4.1971 H   0  0  0  0  0  0  0  0  0  0  0  0
   -9.2286   -3.6613   -4.3759 H   0  0  0  0  0  0  0  0  0  0  0  0
   -4.3790   -2.1476   -1.6914 H   0  0  0  0  0  0  0  0  0  0  0  0
   -5.1978   -0.2746   -2.8633 H   0  0  0  0  0  0  0  0  0  0  0  0
   -4.6679    0.0164   -5.2279 H   0  0  0  0  0  0  0  0  0  0  0  0
   -3.6180   -2.0732   -5.7776 H   0  0  0  0  0  0  0  0  0  0  0  0
   -5.3021   -3.8287   -6.1192 H   0  0  0  0  0  0  0  0  0  0  0  0
   -7.4787   -5.9706   -9.9578 H   0  0  0  0  0  0  0  0  0  0  0  0
   -7.0488   -4.3856  -10.6273 H   0  0  0  0  0  0  0  0  0  0  0  0
   -5.0856   -6.3589   -9.3316 H   0  0  0  0  0  0  0  0  0  0  0  0
   -4.6444   -4.7949  -10.0251 H   0  0  0  0  0  0  0  0  0  0  0  0
   -5.2456   -6.0830  -11.0719 H   0  0  0  0  0  0  0  0  0  0  0  0
   -4.4599   -0.5467   -9.6903 H   0  0  0  0  0  0  0  0  0  0  0  0
    0.6930    1.7658   -4.7488 H   0  0  0  0  0  0  0  0  0  0  0  0
    2.7482    3.0391   -4.3057 H   0  0  0  0  0  0  0  0  0  0  0  0
    3.0440    6.7861   -6.4459 H   0  0  0  0  0  0  0  0  0  0  0  0
    4.3816    6.4694   -7.5800 H   0  0  0  0  0  0  0  0  0  0  0  0
    4.6855    7.5086   -4.7129 H   0  0  0  0  0  0  0  0  0  0  0  0
    4.8720    8.4808   -6.1792 H   0  0  0  0  0  0  0  0  0  0  0  0
    6.0176    7.1817   -5.8241 H   0  0  0  0  0  0  0  0  0  0  0  0
    0.3731    3.6584   -8.5737 H   0  0  0  0  0  0  0  0  0  0  0  0
    1.1755    1.3422   -9.0600 H   0  0  0  0  0  0  0  0  0  0  0  0
    3.0360   -1.5458  -13.6393 H   0  0  0  0  0  0  0  0  0  0  0  0
    3.3880    2.4376   -9.3281 H   0  0  0  0  0  0  0  0  0  0  0  0
    3.3643    1.5941   -7.7564 H   0  0  0  0  0  0  0  0  0  0  0  0
    4.7087    2.6915   -8.1598 H   0  0  0  0  0  0  0  0  0  0  0  0
    5.2182   -1.9607  -12.1084 H   0  0  0  0  0  0  0  0  0  0  0  0
    7.4769   -1.2018  -11.5691 H   0  0  0  0  0  0  0  0  0  0  0  0
    8.4432   -1.8842  -10.2368 H   0  0  0  0  0  0  0  0  0  0  0  0
    7.2472   -2.9073  -11.0842 H   0  0  0  0  0  0  0  0  0  0  0  0
    0.9774   -1.9330   -8.4845 H   0  0  0  0  0  0  0  0  0  0  0  0
    0.7313   -1.7121   -6.2970 H   0  0  0  0  0  0  0  0  0  0  0  0
    4.4175   -0.2764   -6.3484 H   0  0  0  0  0  0  0  0  0  0  0  0
    5.5093    2.0862   -6.0091 H   0  0  0  0  0  0  0  0  0  0  0  0
    7.2275    2.0262   -7.7899 H   0  0  0  0  0  0  0  0  0  0  0  0
   11.8983    0.6663   -8.1822 H   0  0  0  0  0  0  0  0  0  0  0  0
   11.3571   -0.2485   -6.7627 H   0  0  0  0  0  0  0  0  0  0  0  0
   11.1105    2.7895   -7.1210 H   0  0  0  0  0  0  0  0  0  0  0  0
   12.3016    1.9812   -6.0924 H   0  0  0  0  0  0  0  0  0  0  0  0
   10.5833    1.8899   -5.6949 H   0  0  0  0  0  0  0  0  0  0  0  0
    7.7156   -0.8578   -3.8284 H   0  0  0  0  0  0  0  0  0  0  0  0
    0.8445    1.5460   -1.9289 H   0  0  0  0  0  0  0  0  0  0  0  0
   -0.9959    1.2616   -0.3189 H   0  0  0  0  0  0  0  0  0  0  0  0
   -2.7583   -2.2726    1.7383 H   0  0  0  0  0  0  0  0  0  0  0  0
   -1.1285   -2.6100    1.1181 H   0  0  0  0  0  0  0  0  0  0  0  0
   -0.2900   -2.7483    3.4924 H   0  0  0  0  0  0  0  0  0  0  0  0
   -1.5692   -3.9302    3.1892 H   0  0  0  0  0  0  0  0  0  0  0  0
   -1.9280   -2.4429    4.0752 H   0  0  0  0  0  0  0  0  0  0  0  0
    3.1258   -1.3881    0.2060 H   0  0  0  0  0  0  0  0  0  0  0  0
    4.3325    0.8912    0.6696 H   0  0  0  0  0  0  0  0  0  0  0  0
    6.8518    1.5156    0.7135 H   0  0  0  0  0  0  0  0  0  0  0  0
  1  2  1  0  0  0  0
  2  3  1  0  0  0  0
  3  4  2  0  0  0  0
  4  5  1  0  0  0  0
  5  6  1  0  0  0  0
  6  7  2  0  0  0  0
  7  8  1  0  0  0  0
  8  9  1  0  0  0  0
  7 10  1  0  0  0  0
 10 11  2  0  0  0  0
 10 12  1  0  0  0  0
 12 13  1  0  0  0  0
  6 14  1  0  0  0  0
 14 15  2  0  0  0  0
 15 16  1  0  0  0  0
 16 17  2  0  0  0  0
 17 18  1  0  0  0  0
 18 19  2  0  0  0  0
 19 20  1  0  0  0  0
 20 21  2  0  0  0  0
 21 22  1  0  0  0  0
 22 23  2  0  0  0  0
 23 24  1  0  0  0  0
 24 25  1  0  0  0  0
 25 26  1  0  0  0  0
 23 27  1  0  0  0  0
 27 28  1  0  0  0  0
 27 29  2  0  0  0  0
 19 30  1  0  0  0  0
 30 31  2  0  0  0  0
 31 32  1  0  0  0  0
 32 33  1  0  0  0  0
 33 34  2  0  0  0  0
 34 35  1  0  0  0  0
 35 36  2  0  0  0  0
 36 37  1  0  0  0  0
 37 38  1  0  0  0  0
 38 39  1  0  0  0  0
 36 40  1  0  0  0  0
 40 41  2  0  0  0  0
 40 42  1  0  0  0  0
 32 43  2  0  0  0  0
 43 44  1  0  0  0  0
 31 45  1  0  0  0  0
 45 46  2  0  0  0  0
 46 47  1  0  0  0  0
 46 48  1  0  0  0  0
 48 49  2  0  0  0  0
 49 50  1  0  0  0  0
 50 51  2  0  0  0  0
 51 52  1  0  0  0  0
 52 53  2  0  0  0  0
 53 54  1  0  0  0  0
 54 55  2  0  0  0  0
 55 56  1  0  0  0  0
 56 57  1  0  0  0  0
 57 58  1  0  0  0  0
 55 59  1  0  0  0  0
 59 60  1  0  0  0  0
 59 61  2  0  0  0  0
 51 62  1  0  0  0  0
 62 63  2  0  0  0  0
 63 64  1  0  0  0  0
 64 65  1  0  0  0  0
 65 66  2  0  0  0  0
 66 67  1  0  0  0  0
 67 68  2  0  0  0  0
 68 69  1  0  0  0  0
 69 70  1  0  0  0  0
 70 71  1  0  0  0  0
 68 72  1  0  0  0  0
 72 73  2  0  0  0  0
 72 74  1  0  0  0  0
 64 75  2  0  0  0  0
 75 76  1  0  0  0  0
 63 77  1  0  0  0  0
 77 78  2  0  0  0  0
 78 79  1  0  0  0  0
 78 80  1  0  0  0  0
 80 81  2  0  0  0  0
 81 82  1  0  0  0  0
 82 83  2  0  0  0  0
 83 84  1  0  0  0  0
 84 85  2  0  0  0  0
 85 86  1  0  0  0  0
 86 87  2  0  0  0  0
 87 88  1  0  0  0  0
 88 89  1  0  0  0  0
 89 90  1  0  0  0  0
 87 91  1  0  0  0  0
 91 92  1  0  0  0  0
 91 93  2  0  0  0  0
 83 94  1  0  0  0  0
 94 95  2  0  0  0  0
 95 96  1  0  0  0  0
 96 97  1  0  0  0  0
 97 98  2  0  0  0  0
 98 99  1  0  0  0  0
 99100  2  0  0  0  0
100101  1  0  0  0  0
101102  1  0  0  0  0
102103  1  0  0  0  0
100104  1  0  0  0  0
104105  2  0  0  0  0
104106  1  0  0  0  0
 96107  2  0  0  0  0
107108  1  0  0  0  0
 95109  1  0  0  0  0
109110  2  0  0  0  0
110111  1  0  0  0  0
110112  1  0  0  0  0
112113  1  0  0  0  0
113114  1  0  0  0  0
114115  2  0  0  0  0
115116  1  0  0  0  0
116117  1  0  0  0  0
117118  2  0  0  0  0
118119  1  0  0  0  0
119120  1  0  0  0  0
118121  1  0  0  0  0
121122  2  0  0  0  0
121123  1  0  0  0  0
123124  1  0  0  0  0
117125  1  0  0  0  0
125126  2  0  0  0  0
126127  1  0  0  0  0
127128  2  0  0  0  0
128129  1  0  0  0  0
129130  2  0  0  0  0
130131  1  0  0  0  0
131132  2  0  0  0  0
132133  1  0  0  0  0
133134  2  0  0  0  0
134135  1  0  0  0  0
135136  1  0  0  0  0
136137  1  0  0  0  0
134138  1  0  0  0  0
138139  1  0  0  0  0
138140  2  0  0  0  0
130141  1  0  0  0  0
141142  2  0  0  0  0
142143  1  0  0  0  0
143144  1  0  0  0  0
144145  2  0  0  0  0
145146  1  0  0  0  0
146147  2  0  0  0  0
147148  1  0  0  0  0
148149  1  0  0  0  0
149150  1  0  0  0  0
147151  1  0  0  0  0
151152  2  0  0  0  0
151153  1  0  0  0  0
143154  2  0  0  0  0
154155  1  0  0  0  0
142156  1  0  0  0  0
156157  2  0  0  0  0
157158  1  0  0  0  0
  5  1  2  0  0  0  0
 44 16  1  0  0  0  0
 76 48  1  0  0  0  0
108 80  1  0  0  0  0
116112  2  0  0  0  0
155127  1  0  0  0  0
 11  4  1  0  0  0  0
 43 18  1  0  0  0  0
 75 50  1  0  0  0  0
107 82  1  0  0  0  0
122115  1  0  0  0  0
154129  1  0  0  0  0
 29 20  1  0  0  0  0
 47 30  1  0  0  0  0
 61 52  1  0  0  0  0
 79 62  1  0  0  0  0
 93 84  1  0  0  0  0
111 94  1  0  0  0  0
140131  1  0  0  0  0
158141  1  0  0  0  0
 41 33  1  0  0  0  0
 73 65  1  0  0  0  0
105 97  1  0  0  0  0
152144  1  0  0  0  0
  1159  1  0  0  0  0
  3160  1  0  0  0  0
  9161  1  0  0  0  0
  9162  1  0  0  0  0
  9163  1  0  0  0  0
 11164  1  0  0  0  0
 13165  1  0  0  0  0
 13166  1  0  0  0  0
 13167  1  0  0  0  0
 14168  1  0  0  0  0
 15169  1  0  0  0  0
 17170  1  0  0  0  0
 21171  1  0  0  0  0
 22172  1  0  0  0  0
 25173  1  0  0  0  0
 25174  1  0  0  0  0
 26175  1  0  0  0  0
 26176  1  0  0  0  0
 26177  1  0  0  0  0
 29178  1  0  0  0  0
 34179  1  0  0  0  0
 35180  1  0  0  0  0
 38181  1  0  0  0  0
 38182  1  0  0  0  0
 39183  1  0  0  0  0
 39184  1  0  0  0  0
 39185  1  0  0  0  0
 41186  1  0  0  0  0
 45187  1  0  0  0  0
 49188  1  0  0  0  0
 53189  1  0  0  0  0
 54190  1  0  0  0  0
 57191  1  0  0  0  0
 57192  1  0  0  0  0
 58193  1  0  0  0  0
 58194  1  0  0  0  0
 58195  1  0  0  0  0
 61196  1  0  0  0  0
 66197  1  0  0  0  0
 67198  1  0  0  0  0
 70199  1  0  0  0  0
 70200  1  0  0  0  0
 71201  1  0  0  0  0
 71202  1  0  0  0  0
 71203  1  0  0  0  0
 73204  1  0  0  0  0
 77205  1  0  0  0  0
 81206  1  0  0  0  0
 85207  1  0  0  0  0
 86208  1  0  0  0  0
 89209  1  0  0  0  0
 89210  1  0  0  0  0
 90211  1  0  0  0  0
 90212  1  0  0  0  0
 90213  1  0  0  0  0
 93214  1  0  0  0  0
 98215  1  0  0  0  0
 99216  1  0  0  0  0
102217  1  0  0  0  0
102218  1  0  0  0  0
103219  1  0  0  0  0
103220  1  0  0  0  0
103221  1  0  0  0  0
105222  1  0  0  0  0
109223  1  0  0  0  0
114224  1  0  0  0  0
120225  1  0  0  0  0
120226  1  0  0  0  0
120227  1  0  0  0  0
122228  1  0  0  0  0
124229  1  0  0  0  0
124230  1  0  0  0  0
124231  1  0  0  0  0
125232  1  0  0  0  0
126233  1  0  0  0  0
128234  1  0  0  0  0
132235  1  0  0  0  0
133236  1  0  0  0  0
136237  1  0  0  0  0
136238  1  0  0  0  0
137239  1  0  0  0  0
137240  1  0  0  0  0
137241  1  0  0  0  0
140242  1  0  0  0  0
145243  1  0  0  0  0
146244  1  0  0  0  0
149245  1  0  0  0  0
149246  1  0  0  0  0
150247  1  0  0  0  0
150248  1  0  0  0  0
150249  1  0  0  0  0
152250  1  0  0  0  0
156251  1  0  0  0  0
157252  1  0  0  0  0
M  END
