202

C         -4.70410       -4.44660       -3.60360
S         -5.36010       -3.82210       -2.14640
C         -6.75060       -3.27070       -2.96180
C         -6.71320       -3.54830       -4.30300
C         -5.50900       -4.23790       -4.69750
C         -5.27060       -4.64430       -6.04800
S         -6.36420       -4.28040       -7.31550
O         -5.74590       -2.88890       -8.17440
C         -5.24260       -1.83010       -7.42290
C         -7.73570       -3.51410       -6.50480
C         -7.77450       -3.22240       -5.19610
O         -8.68830       -3.28200       -7.44580
C         -9.80260       -2.50590       -7.06700
C         -4.16550       -5.36470       -6.59110
C         -2.99350       -5.75250       -6.03520
C         -1.97170       -6.43950       -6.75230
S         -2.40340       -7.31130       -8.20470
C         -0.84290       -7.98980       -8.33790
C         -0.00190       -7.56730       -7.34090
C         -0.61990       -6.62490       -6.44700
C          0.12240       -5.99200       -5.40610
S          1.79070       -6.28420       -5.17340
O          2.65460       -5.22510       -6.30820
C          2.64100       -3.85570       -6.03960
C          2.13600       -7.68170       -6.18330
C          1.30490       -8.10600       -7.14770
O          3.34480       -8.18760       -5.81940
C          3.82840       -9.30300       -6.53220
C         -0.39050       -4.95830       -4.56520
C          0.10570       -4.56340       -3.36770
C         -0.47350       -3.53140       -2.58490
C         -0.08620       -3.10780       -1.34330
C         -0.90750       -2.09530       -0.79200
C         -0.78160       -1.45330        0.45260
C          0.25670       -1.83030        1.41640
C          0.49710       -3.16200        1.75720
C          1.47150       -3.49220        2.67480
C          2.22240       -2.51230        3.32340
S          3.40210       -3.04910        4.52690
C          4.75740       -1.81640        4.46620
C          5.35140       -1.68100        3.07910
C          1.93900       -1.19020        3.00670
F          2.56210       -0.17480        3.65010
C          1.00900       -0.84660        2.04960
C         -1.67590       -0.42370        0.71500
C         -2.70130       -0.04030       -0.17830
C         -2.87090       -0.72640       -1.39390
C         -3.99630       -0.42440       -2.28280
C         -3.82530       -0.22690       -3.65070
C         -4.90570        0.02410       -4.46850
C         -6.20260        0.05610       -3.96340
S         -7.52260        0.27310       -5.12420
C         -8.73200        1.36030       -4.26540
C         -9.98980        0.61780       -3.85900
C         -6.36220       -0.15000       -2.59820
C         -5.28640       -0.36480       -1.76290
F         -7.59670       -0.16150       -2.04180
C         -1.94470       -1.71320       -1.68220
S         -1.89070       -2.65280       -3.15070
C         -3.39020        1.10990        0.27260
C         -2.93860        1.60850        1.46290
S         -1.68760        0.58620        2.13870
C         -3.45930        2.79170        2.08030
S         -5.14400        3.09140        1.73480
C         -5.10780        4.60930        2.50140
C         -3.86610        4.90840        2.99920
C         -2.90420        3.85540        2.79800
C         -1.57290        4.02200        3.25350
S         -1.04060        5.28350        4.25490
O         -1.33750        5.34030        6.07640
C         -0.23280        5.16190        6.89840
C         -2.31960        6.48730        4.05180
C         -3.52620        6.17490        3.54250
O         -2.04140        7.78140        4.31620
C         -0.98160        8.10940        5.18560
C         -0.50470        3.04010        3.05380
C          0.07590        2.33330        4.03660
C         -0.42030        2.21080        5.38180
S         -2.14640        2.24770        5.62110
C         -1.98780        1.87730        7.26980
C         -0.67810        1.73940        7.65620
C          0.24690        1.92800        6.57160
C          1.66110        1.86390        6.76900
S          2.35310        1.28130        8.22820
O          2.59820       -0.41140        8.03420
C          1.72180       -1.13590        7.22080
C          0.99340        1.28320        9.35680
C         -0.28500        1.48580        9.00260
O          1.50530        1.08290       10.60180
C          0.61290        1.10230       11.69240
C          2.62100        2.21840        5.78280
C          3.95210        1.96270        5.84120
C          4.81090        2.06200        4.71190
C          4.45820        2.04460        3.39120
C          5.54450        1.87180        2.50560
C          5.48980        1.62990        1.12450
C          4.19820        1.50880        0.43510
C          3.24490        2.52430        0.47150
C          2.04240        2.37930       -0.18690
C          1.72740        1.21180       -0.88080
S          0.15000        1.14970       -1.67950
C          0.46920        0.22930       -3.22670
C          1.54450        0.87940       -4.07270
C          2.66600        0.18530       -0.86110
F          2.41300       -1.00420       -1.45280
C          3.89000        0.33310       -0.24080
C          6.69840        1.42020        0.47880
C          7.94770        1.47170        1.14020
C          7.99890        1.66800        2.53000
C          9.27690        1.70330        3.25420
C          9.50660        0.88110        4.35470
C         10.69840        0.94910        5.04480
C         11.70440        1.83280        4.66420
S         13.21120        1.82490        5.59720
C         13.55240        3.60750        5.84380
C         12.41090        4.30850        6.55250
C         11.47290        2.62800        3.54690
C         10.27970        2.58080        2.85530
F         12.41910        3.48470        3.09960
C          6.78860        1.82600        3.18500
S          6.55650        1.96720        4.91080
C          9.02770        1.22960        0.23920
C          8.62040        1.02490       -1.02910
S          6.90030        1.10090       -1.22600
H         -3.76230       -4.94320       -3.53420
H         -7.53780       -2.78810       -2.41850
H         -4.64130       -2.20330       -6.58160
H         -4.60510       -1.23940       -8.08140
H         -6.05200       -1.20220       -7.03230
H         -8.63550       -2.73000       -4.76960
H        -10.40830       -3.02210       -6.31530
H         -9.48660       -1.53290       -6.67840
H        -10.38740       -2.36770       -7.97410
H         -4.28390       -5.56460       -7.65310
H         -2.79320       -5.57770       -4.99520
H         -0.62220       -8.67500       -9.13170
H          1.61440       -3.47200       -5.99760
H          3.16960       -3.37030       -6.86100
H          3.14700       -3.62270       -5.09660
H          1.59470       -8.91560       -7.80150
H          4.78160       -9.55550       -6.07180
H          3.98460       -9.06120       -7.58770
H          3.14340      -10.15300       -6.45020
H         -1.25270       -4.42330       -4.93990
H          0.96640       -5.05700       -2.93580
H          0.78400       -3.49880       -0.84870
H         -0.09770       -3.94220        1.30790
H          1.66110       -4.52550        2.92190
H          4.39270       -0.86580        4.85000
H          5.48610       -2.22480        5.16710
H          5.66530       -2.65180        2.70050
H          6.21670       -1.02160        3.11190
H          4.62930       -1.25360        2.38670
H          0.87700        0.19630        1.80960
H         -2.83490       -0.24770       -4.07670
H         -4.75950        0.19960       -5.52230
H         -8.96050        2.14500       -4.98720
H         -8.22490        1.80030       -3.41050
H        -10.47360        0.18100       -4.73060
H        -10.68430        1.30960       -3.38670
H         -9.75870       -0.17350       -3.15120
H         -5.46830       -0.53290       -0.71290
H         -4.14840        1.60310       -0.30950
H         -5.98580        5.22260        2.52860
H         -0.48590        4.46380        7.70100
H          0.61890        4.75390        6.34080
H          0.07620        6.11640        7.34380
H         -4.26930        6.95800        3.49880
H         -0.90570        9.19530        5.15570
H         -0.03710        7.66730        4.85370
H         -1.19960        7.78130        6.20420
H         -0.13350        2.95020        2.04090
H          0.91690        1.70040        3.79220
H         -2.85840        1.78640        7.88880
H          0.77830       -1.34510        7.73740
H          2.21970       -2.07280        6.97110
H          1.50680       -0.58810        6.29550
H         -1.07100        1.46740        9.74380
H          0.09560        2.06440       11.76360
H          1.22720        0.95080       12.57750
H         -0.12490        0.29740       11.61780
H          2.23930        2.70790        4.90180
H          4.39070        1.55730        6.74380
H          3.43860        2.06850        3.05970
H          3.46610        3.44480        0.99010
H          1.31780        3.17960       -0.18550
H          0.71050       -0.80280       -2.98230
H         -0.49670        0.25760       -3.73100
H          1.63750        0.34530       -5.01630
H          1.29310        1.91770       -4.27930
H          2.50780        0.85140       -3.56710
H          4.58820       -0.48940       -0.27040
H          8.74670        0.18260        4.66860
H         10.87220        0.31430        5.89950
H         14.45580        3.60930        6.45350
H         13.77430        4.06130        4.88040
H         12.19260        3.82050        7.50010
H         12.68040        5.34500        6.74590
H         11.50910        4.29520        5.94260
H         10.13860        3.23930        2.01190
H         10.05760        1.19850        0.54550
H          9.22370        0.82190       -1.89220
