
  xtb     03082206073D
 energy: -392.676399855389 gnorm: 0.000230248178 xtb: 6.4.1 (unknown)
227247  0     0  0            999 V2000
   -2.6779   -1.9246    3.0706 C   0  0  0  0  0  0  0  0  0  0  0  0
   -2.5260   -0.8401    1.7505 S   0  0  0  0  0  0  0  0  0  0  0  0
   -0.8863   -0.5384    2.1268 C   0  0  0  0  0  0  0  0  0  0  0  0
   -0.4718   -1.2368    3.2289 C   0  0  0  0  0  0  0  0  0  0  0  0
   -1.5113   -2.0681    3.7774 C   0  0  0  0  0  0  0  0  0  0  0  0
   -1.3062   -2.9052    4.9177 C   0  0  0  0  0  0  0  0  0  0  0  0
    0.0243   -2.6640    5.9558 S   0  0  0  0  0  4  0  0  0  0  0  0
   -0.3572   -1.4136    7.1131 O   0  0  0  0  0  0  0  0  0  0  0  0
   -1.1572   -0.3512    6.6975 C   0  0  0  0  0  0  0  0  0  0  0  0
    1.1583   -1.7414    4.9515 C   0  0  0  0  0  0  0  0  0  0  0  0
    0.8432   -1.1678    3.7783 C   0  0  0  0  0  0  0  0  0  0  0  0
    2.3660   -1.7729    5.5725 O   0  0  0  0  0  0  0  0  0  0  0  0
    3.4545   -1.1431    4.9365 C   0  0  0  0  0  0  0  0  0  0  0  0
   -2.1080   -4.0089    5.3306 C   0  0  0  0  0  0  0  0  0  0  0  0
   -3.0686   -4.6854    4.6558 C   0  0  0  0  0  0  0  0  0  0  0  0
   -3.7878   -5.7680    5.2419 C   0  0  0  0  0  0  0  0  0  0  0  0
   -3.7806   -5.9105    6.9848 S   0  0  0  0  0  0  0  0  0  0  0  0
   -4.8281   -7.2558    6.9442 C   0  0  0  0  0  0  0  0  0  0  0  0
   -5.1864   -7.6018    5.6675 C   0  0  0  0  0  0  0  0  0  0  0  0
   -4.5871   -6.7570    4.6698 C   0  0  0  0  0  0  0  0  0  0  0  0
   -4.7898   -7.0184    3.2736 C   0  0  0  0  0  0  0  0  0  0  0  0
   -6.1720   -7.9037    2.7831 S   0  0  0  0  0  4  0  0  0  0  0  0
   -7.5443   -6.8819    3.1662 O   0  0  0  0  0  0  0  0  0  0  0  0
   -7.4441   -5.5301    2.8426 C   0  0  0  0  0  0  0  0  0  0  0  0
   -6.5045   -8.9692    4.1519 C   0  0  0  0  0  0  0  0  0  0  0  0
   -6.0017   -8.7382    5.3743 C   0  0  0  0  0  0  0  0  0  0  0  0
   -7.2295  -10.0353    3.7189 O   0  0  0  0  0  0  0  0  0  0  0  0
   -7.4862  -11.0677    4.6438 C   0  0  0  0  0  0  0  0  0  0  0  0
   -3.8577   -6.7124    2.2433 C   0  0  0  0  0  0  0  0  0  0  0  0
   -3.9071   -7.2078    0.9782 C   0  0  0  0  0  0  0  0  0  0  0  0
   -2.9505   -6.9446   -0.0301 C   0  0  0  0  0  0  0  0  0  0  0  0
   -1.7738   -5.6752    0.2110 S   0  0  0  0  0  0  0  0  0  0  0  0
   -0.8857   -6.1547   -1.1699 C   0  0  0  0  0  0  0  0  0  0  0  0
   -1.4554   -7.2222   -1.8130 C   0  0  0  0  0  0  0  0  0  0  0  0
   -2.6940   -7.6422   -1.2190 C   0  0  0  0  0  0  0  0  0  0  0  0
   -3.4764   -8.6894   -1.7815 C   0  0  0  0  0  0  0  0  0  0  0  0
   -2.9930   -9.5858   -3.1275 S   0  0  0  0  0  4  0  0  0  0  0  0
   -3.7163   -8.7287   -4.5758 O   0  0  0  0  0  0  0  0  0  0  0  0
   -3.7706   -9.4474   -5.7652 C   0  0  0  0  0  0  0  0  0  0  0  0
   -1.3556   -9.0133   -3.4517 C   0  0  0  0  0  0  0  0  0  0  0  0
   -0.8238   -7.9201   -2.8852 C   0  0  0  0  0  0  0  0  0  0  0  0
   -0.8157   -9.8241   -4.3976 O   0  0  0  0  0  0  0  0  0  0  0  0
    0.4855   -9.5280   -4.8586 C   0  0  0  0  0  0  0  0  0  0  0  0
   -4.8781   -8.9631   -1.4710 C   0  0  0  0  0  0  0  0  0  0  0  0
   -5.8384   -8.0245   -1.3881 C   0  0  0  0  0  0  0  0  0  0  0  0
   -5.5433   -6.6426   -1.6786 C   0  0  0  0  0  0  0  0  0  0  0  0
   -4.7235   -6.2143   -2.6726 C   0  0  0  0  0  0  0  0  0  0  0  0
   -4.3786   -4.8453   -2.5852 C   0  0  0  0  0  0  0  0  0  0  0  0
   -3.4175   -4.1719   -3.3531 C   0  0  0  0  0  0  0  0  0  0  0  0
   -2.7459   -4.8768   -4.4520 C   0  0  0  0  0  0  0  0  0  0  0  0
   -3.4871   -5.4952   -5.4563 C   0  0  0  0  0  0  0  0  0  0  0  0
   -2.8594   -6.2127   -6.4521 C   0  0  0  0  0  0  0  0  0  0  0  0
   -1.4774   -6.3599   -6.4628 C   0  0  0  0  0  0  0  0  0  0  0  0
   -0.7323   -7.3739   -7.7173 S   0  0  0  0  0  0  0  0  0  0  0  0
    0.4990   -6.2210   -8.4326 C   0  0  0  0  0  0  0  0  0  0  0  0
   -0.1609   -4.9905   -9.0215 C   0  0  0  0  0  0  0  0  0  0  0  0
   -0.7516   -5.7439   -5.4516 C   0  0  0  0  0  0  0  0  0  0  0  0
    0.5945   -5.8928   -5.3911 F   0  0  0  0  0  0  0  0  0  0  0  0
   -1.3609   -4.9909   -4.4704 C   0  0  0  0  0  0  0  0  0  0  0  0
   -3.0975   -2.8855   -2.9560 C   0  0  0  0  0  0  0  0  0  0  0  0
   -3.7541   -2.2309   -1.8845 C   0  0  0  0  0  0  0  0  0  0  0  0
   -4.7468   -2.8937   -1.1418 C   0  0  0  0  0  0  0  0  0  0  0  0
   -5.4395   -2.2207   -0.0373 C   0  0  0  0  0  0  0  0  0  0  0  0
   -6.0578   -0.9868   -0.2338 C   0  0  0  0  0  0  0  0  0  0  0  0
   -6.7501   -0.3760    0.7901 C   0  0  0  0  0  0  0  0  0  0  0  0
   -6.8311   -0.9614    2.0497 C   0  0  0  0  0  0  0  0  0  0  0  0
   -7.7430   -0.1159    3.3128 S   0  0  0  0  0  0  0  0  0  0  0  0
   -8.7666   -1.4541    4.0309 C   0  0  0  0  0  0  0  0  0  0  0  0
   -9.6427   -2.1160    2.9864 C   0  0  0  0  0  0  0  0  0  0  0  0
   -6.1648   -2.1655    2.2459 C   0  0  0  0  0  0  0  0  0  0  0  0
   -5.4976   -2.8068    1.2222 C   0  0  0  0  0  0  0  0  0  0  0  0
   -6.1416   -2.7381    3.4718 F   0  0  0  0  0  0  0  0  0  0  0  0
   -5.0042   -4.2108   -1.4839 C   0  0  0  0  0  0  0  0  0  0  0  0
   -6.0557   -5.3210   -0.6399 S   0  0  0  0  0  0  0  0  0  0  0  0
   -3.1921   -0.9584   -1.6229 C   0  0  0  0  0  0  0  0  0  0  0  0
   -2.1459   -0.6424   -2.4394 C   0  0  0  0  0  0  0  0  0  0  0  0
   -1.8470   -1.8816   -3.6423 S   0  0  0  0  0  0  0  0  0  0  0  0
   -1.2580    0.4643   -2.2787 C   0  0  0  0  0  0  0  0  0  0  0  0
   -1.1204    1.2001   -1.1380 C   0  0  0  0  0  0  0  0  0  0  0  0
   -0.0587    2.1343   -1.1852 C   0  0  0  0  0  0  0  0  0  0  0  0
    0.4180    2.9385   -0.1348 C   0  0  0  0  0  0  0  0  0  0  0  0
   -0.2572    2.9347    1.1683 C   0  0  0  0  0  0  0  0  0  0  0  0
    0.4434    2.6948    2.3496 C   0  0  0  0  0  0  0  0  0  0  0  0
   -0.2218    2.6128    3.5526 C   0  0  0  0  0  0  0  0  0  0  0  0
   -1.6035    2.7951    3.6431 C   0  0  0  0  0  0  0  0  0  0  0  0
   -2.2861    2.6950    5.2668 S   0  0  0  0  0  0  0  0  0  0  0  0
   -4.0655    2.3112    5.0779 C   0  0  0  0  0  0  0  0  0  0  0  0
   -4.3143    0.9825    4.3981 C   0  0  0  0  0  0  0  0  0  0  0  0
   -2.2786    3.0920    2.4628 C   0  0  0  0  0  0  0  0  0  0  0  0
   -3.6042    3.3559    2.4552 F   0  0  0  0  0  0  0  0  0  0  0  0
   -1.6303    3.1399    1.2455 C   0  0  0  0  0  0  0  0  0  0  0  0
    1.5557    3.6858   -0.3923 C   0  0  0  0  0  0  0  0  0  0  0  0
    2.2011    3.6847   -1.6535 C   0  0  0  0  0  0  0  0  0  0  0  0
    1.7343    2.8696   -2.6995 C   0  0  0  0  0  0  0  0  0  0  0  0
    2.4483    2.8373   -3.9822 C   0  0  0  0  0  0  0  0  0  0  0  0
    3.8256    2.6190   -4.0166 C   0  0  0  0  0  0  0  0  0  0  0  0
    4.5166    2.6725   -5.2077 C   0  0  0  0  0  0  0  0  0  0  0  0
    3.8638    2.9379   -6.4086 C   0  0  0  0  0  0  0  0  0  0  0  0
    4.8454    3.0051   -7.8813 S   0  0  0  0  0  0  0  0  0  0  0  0
    4.2264    4.5113   -8.7197 C   0  0  0  0  0  0  0  0  0  0  0  0
    4.4032    5.7472   -7.8609 C   0  0  0  0  0  0  0  0  0  0  0  0
    2.4811    3.0892   -6.3685 C   0  0  0  0  0  0  0  0  0  0  0  0
    1.7774    3.0516   -5.1807 C   0  0  0  0  0  0  0  0  0  0  0  0
    1.7798    3.2957   -7.5033 F   0  0  0  0  0  0  0  0  0  0  0  0
    0.6098    2.1062   -2.4359 C   0  0  0  0  0  0  0  0  0  0  0  0
   -0.1031    0.9290   -3.5096 S   0  0  0  0  0  0  0  0  0  0  0  0
    3.2979    4.5771   -1.6842 C   0  0  0  0  0  0  0  0  0  0  0  0
    3.5235    5.2146   -0.4987 C   0  0  0  0  0  0  0  0  0  0  0  0
    2.3573    4.7605    0.7263 S   0  0  0  0  0  0  0  0  0  0  0  0
    4.5918    6.1248   -0.2356 C   0  0  0  0  0  0  0  0  0  0  0  0
    5.5411    6.5169   -1.1331 C   0  0  0  0  0  0  0  0  0  0  0  0
    6.5079    7.3984   -0.5927 C   0  0  0  0  0  0  0  0  0  0  0  0
    7.6076    7.9663   -1.2548 C   0  0  0  0  0  0  0  0  0  0  0  0
    7.8041    7.7076   -2.6872 C   0  0  0  0  0  0  0  0  0  0  0  0
    6.7674    7.9455   -3.5901 C   0  0  0  0  0  0  0  0  0  0  0  0
    6.8995    7.6074   -4.9188 C   0  0  0  0  0  0  0  0  0  0  0  0
    8.0686    7.0206   -5.4002 C   0  0  0  0  0  0  0  0  0  0  0  0
    8.1208    6.5836   -7.1105 S   0  0  0  0  0  0  0  0  0  0  0  0
    9.0817    5.0156   -7.1162 C   0  0  0  0  0  0  0  0  0  0  0  0
    8.6255    4.1603   -8.2815 C   0  0  0  0  0  0  0  0  0  0  0  0
    9.1184    6.8501   -4.5024 C   0  0  0  0  0  0  0  0  0  0  0  0
   10.2997    6.3404   -4.9155 F   0  0  0  0  0  0  0  0  0  0  0  0
    8.9956    7.1760   -3.1659 C   0  0  0  0  0  0  0  0  0  0  0  0
    8.4579    8.7451   -0.4866 C   0  0  0  0  0  0  0  0  0  0  0  0
    8.2297    9.0109    0.8867 C   0  0  0  0  0  0  0  0  0  0  0  0
    7.1144    8.4649    1.5395 C   0  0  0  0  0  0  0  0  0  0  0  0
    6.8266    8.7430    2.9525 C   0  0  0  0  0  0  0  0  0  0  0  0
    6.7638   10.0504    3.4314 C   0  0  0  0  0  0  0  0  0  0  0  0
    6.4433   10.2993    4.7487 C   0  0  0  0  0  0  0  0  0  0  0  0
    6.1909    9.2609    5.6436 C   0  0  0  0  0  0  0  0  0  0  0  0
    5.8213    9.7014    7.3160 S   0  0  0  0  0  0  0  0  0  0  0  0
    4.5101    8.5205    7.8063 C   0  0  0  0  0  0  0  0  0  0  0  0
    3.3109    8.5849    6.8822 C   0  0  0  0  0  0  0  0  0  0  0  0
    6.2950    7.9605    5.1597 C   0  0  0  0  0  0  0  0  0  0  0  0
    6.5867    7.6972    3.8370 C   0  0  0  0  0  0  0  0  0  0  0  0
    6.1182    6.8996    5.9774 F   0  0  0  0  0  0  0  0  0  0  0  0
    6.2856    7.6498    0.7821 C   0  0  0  0  0  0  0  0  0  0  0  0
    4.8481    6.8328    1.3454 S   0  0  0  0  0  0  0  0  0  0  0  0
    9.2609    9.8297    1.4371 C   0  0  0  0  0  0  0  0  0  0  0  0
   10.1950   10.1796    0.5302 C   0  0  0  0  0  0  0  0  0  0  0  0
    9.9018    9.5432   -1.0526 S   0  0  0  0  0  0  0  0  0  0  0  0
   -3.6318   -2.3557    3.2781 H   0  0  0  0  0  0  0  0  0  0  0  0
   -0.3103    0.1395    1.5303 H   0  0  0  0  0  0  0  0  0  0  0  0
   -2.0629   -0.7205    6.2006 H   0  0  0  0  0  0  0  0  0  0  0  0
   -1.4430    0.2072    7.5883 H   0  0  0  0  0  0  0  0  0  0  0  0
   -0.6232    0.3146    6.0101 H   0  0  0  0  0  0  0  0  0  0  0  0
    1.5804   -0.6137    3.2160 H   0  0  0  0  0  0  0  0  0  0  0  0
    3.2820   -0.0681    4.8243 H   0  0  0  0  0  0  0  0  0  0  0  0
    4.3105   -1.3074    5.5877 H   0  0  0  0  0  0  0  0  0  0  0  0
    3.6484   -1.5849    3.9541 H   0  0  0  0  0  0  0  0  0  0  0  0
   -1.8537   -4.3755    6.3197 H   0  0  0  0  0  0  0  0  0  0  0  0
   -3.3205   -4.4181    3.6430 H   0  0  0  0  0  0  0  0  0  0  0  0
   -5.1309   -7.7277    7.8575 H   0  0  0  0  0  0  0  0  0  0  0  0
   -8.0978   -4.9855    3.5246 H   0  0  0  0  0  0  0  0  0  0  0  0
   -7.7434   -5.3397    1.8062 H   0  0  0  0  0  0  0  0  0  0  0  0
   -6.4143   -5.1832    2.9889 H   0  0  0  0  0  0  0  0  0  0  0  0
   -6.2167   -9.4050    6.1965 H   0  0  0  0  0  0  0  0  0  0  0  0
   -8.0975  -10.7101    5.4778 H   0  0  0  0  0  0  0  0  0  0  0  0
   -8.0343  -11.8287    4.0918 H   0  0  0  0  0  0  0  0  0  0  0  0
   -6.5548  -11.4925    5.0314 H   0  0  0  0  0  0  0  0  0  0  0  0
   -3.0078   -6.1064    2.5232 H   0  0  0  0  0  0  0  0  0  0  0  0
   -4.6872   -7.9092    0.7265 H   0  0  0  0  0  0  0  0  0  0  0  0
    0.0349   -5.6606   -1.4079 H   0  0  0  0  0  0  0  0  0  0  0  0
   -3.9897  -10.5052   -5.5796 H   0  0  0  0  0  0  0  0  0  0  0  0
   -2.8252   -9.3745   -6.3158 H   0  0  0  0  0  0  0  0  0  0  0  0
   -4.5758   -9.0259   -6.3713 H   0  0  0  0  0  0  0  0  0  0  0  0
    0.1479   -7.5638   -3.1942 H   0  0  0  0  0  0  0  0  0  0  0  0
    0.5212   -8.5539   -5.3511 H   0  0  0  0  0  0  0  0  0  0  0  0
    1.2083   -9.5505   -4.0376 H   0  0  0  0  0  0  0  0  0  0  0  0
    0.7233  -10.3052   -5.5816 H   0  0  0  0  0  0  0  0  0  0  0  0
   -5.1494  -10.0067   -1.3703 H   0  0  0  0  0  0  0  0  0  0  0  0
   -6.8397   -8.2822   -1.0736 H   0  0  0  0  0  0  0  0  0  0  0  0
   -4.3418   -6.8745   -3.4293 H   0  0  0  0  0  0  0  0  0  0  0  0
   -4.5621   -5.4010   -5.4589 H   0  0  0  0  0  0  0  0  0  0  0  0
   -3.4329   -6.6843   -7.2342 H   0  0  0  0  0  0  0  0  0  0  0  0
    1.2240   -5.9632   -7.6631 H   0  0  0  0  0  0  0  0  0  0  0  0
    0.9925   -6.8135   -9.2025 H   0  0  0  0  0  0  0  0  0  0  0  0
   -0.8959   -5.2741   -9.7719 H   0  0  0  0  0  0  0  0  0  0  0  0
   -0.6623   -4.4124   -8.2467 H   0  0  0  0  0  0  0  0  0  0  0  0
    0.5914   -4.3590   -9.4901 H   0  0  0  0  0  0  0  0  0  0  0  0
   -0.7547   -4.5385   -3.7021 H   0  0  0  0  0  0  0  0  0  0  0  0
   -6.0226   -0.5240   -1.2082 H   0  0  0  0  0  0  0  0  0  0  0  0
   -7.2475    0.5679    0.6306 H   0  0  0  0  0  0  0  0  0  0  0  0
   -8.1134   -2.1675    4.5289 H   0  0  0  0  0  0  0  0  0  0  0  0
   -9.3667   -0.9384    4.7804 H   0  0  0  0  0  0  0  0  0  0  0  0
  -10.2692   -1.3770    2.4911 H   0  0  0  0  0  0  0  0  0  0  0  0
   -9.0374   -2.6180    2.2331 H   0  0  0  0  0  0  0  0  0  0  0  0
  -10.2848   -2.8555    3.4608 H   0  0  0  0  0  0  0  0  0  0  0  0
   -4.9991   -3.7436    1.4180 H   0  0  0  0  0  0  0  0  0  0  0  0
   -3.5348   -0.3197   -0.8309 H   0  0  0  0  0  0  0  0  0  0  0  0
   -1.7286    1.0352   -0.2686 H   0  0  0  0  0  0  0  0  0  0  0  0
    1.5113    2.5411    2.3164 H   0  0  0  0  0  0  0  0  0  0  0  0
    0.3217    2.4059    4.4617 H   0  0  0  0  0  0  0  0  0  0  0  0
   -4.5502    3.1328    4.5560 H   0  0  0  0  0  0  0  0  0  0  0  0
   -4.4141    2.2933    6.1110 H   0  0  0  0  0  0  0  0  0  0  0  0
   -5.3824    0.7770    4.3938 H   0  0  0  0  0  0  0  0  0  0  0  0
   -3.8038    0.1767    4.9212 H   0  0  0  0  0  0  0  0  0  0  0  0
   -3.9704    0.9978    3.3667 H   0  0  0  0  0  0  0  0  0  0  0  0
   -2.2063    3.3735    0.3634 H   0  0  0  0  0  0  0  0  0  0  0  0
    4.3532    2.4030   -3.0999 H   0  0  0  0  0  0  0  0  0  0  0  0
    5.5842    2.5170   -5.2295 H   0  0  0  0  0  0  0  0  0  0  0  0
    3.1882    4.3524   -9.0029 H   0  0  0  0  0  0  0  0  0  0  0  0
    4.8359    4.5691   -9.6213 H   0  0  0  0  0  0  0  0  0  0  0  0
    5.4505    5.8852   -7.6002 H   0  0  0  0  0  0  0  0  0  0  0  0
    3.8212    5.6681   -6.9436 H   0  0  0  0  0  0  0  0  0  0  0  0
    4.0640    6.6234   -8.4097 H   0  0  0  0  0  0  0  0  0  0  0  0
    0.7093    3.2026   -5.2027 H   0  0  0  0  0  0  0  0  0  0  0  0
    3.8910    4.7432   -2.5638 H   0  0  0  0  0  0  0  0  0  0  0  0
    5.5688    6.1752   -2.1508 H   0  0  0  0  0  0  0  0  0  0  0  0
    5.8520    8.3988   -3.2408 H   0  0  0  0  0  0  0  0  0  0  0  0
    6.0900    7.7798   -5.6112 H   0  0  0  0  0  0  0  0  0  0  0  0
    8.8898    4.5197   -6.1661 H   0  0  0  0  0  0  0  0  0  0  0  0
   10.1390    5.2654   -7.1952 H   0  0  0  0  0  0  0  0  0  0  0  0
    9.2104    3.2436   -8.3121 H   0  0  0  0  0  0  0  0  0  0  0  0
    7.5749    3.8974   -8.1795 H   0  0  0  0  0  0  0  0  0  0  0  0
    8.7621    4.6911   -9.2210 H   0  0  0  0  0  0  0  0  0  0  0  0
    9.8309    6.9954   -2.5075 H   0  0  0  0  0  0  0  0  0  0  0  0
    6.9327   10.8748    2.7555 H   0  0  0  0  0  0  0  0  0  0  0  0
    6.3766   11.3127    5.1127 H   0  0  0  0  0  0  0  0  0  0  0  0
    4.2490    8.8462    8.8132 H   0  0  0  0  0  0  0  0  0  0  0  0
    4.9340    7.5201    7.8563 H   0  0  0  0  0  0  0  0  0  0  0  0
    2.9253    9.6008    6.8266 H   0  0  0  0  0  0  0  0  0  0  0  0
    2.5253    7.9323    7.2575 H   0  0  0  0  0  0  0  0  0  0  0  0
    3.5745    8.2596    5.8774 H   0  0  0  0  0  0  0  0  0  0  0  0
    6.6543    6.6691    3.5174 H   0  0  0  0  0  0  0  0  0  0  0  0
    9.2939   10.1210    2.4712 H   0  0  0  0  0  0  0  0  0  0  0  0
   11.0687   10.7823    0.6835 H   0  0  0  0  0  0  0  0  0  0  0  0
  1  2  1  0  0  0  0
  2  3  1  0  0  0  0
  3  4  2  0  0  0  0
  4  5  1  0  0  0  0
  5  6  1  0  0  0  0
  6  7  2  0  0  0  0
  7  8  1  0  0  0  0
  8  9  1  0  0  0  0
  7 10  1  0  0  0  0
 10 11  2  0  0  0  0
 10 12  1  0  0  0  0
 12 13  1  0  0  0  0
  6 14  1  0  0  0  0
 14 15  2  0  0  0  0
 15 16  1  0  0  0  0
 16 17  1  0  0  0  0
 17 18  1  0  0  0  0
 18 19  2  0  0  0  0
 19 20  1  0  0  0  0
 20 21  1  0  0  0  0
 21 22  2  0  0  0  0
 22 23  1  0  0  0  0
 23 24  1  0  0  0  0
 22 25  1  0  0  0  0
 25 26  2  0  0  0  0
 25 27  1  0  0  0  0
 27 28  1  0  0  0  0
 21 29  1  0  0  0  0
 29 30  2  0  0  0  0
 30 31  1  0  0  0  0
 31 32  1  0  0  0  0
 32 33  1  0  0  0  0
 33 34  2  0  0  0  0
 34 35  1  0  0  0  0
 35 36  1  0  0  0  0
 36 37  2  0  0  0  0
 37 38  1  0  0  0  0
 38 39  1  0  0  0  0
 37 40  1  0  0  0  0
 40 41  2  0  0  0  0
 40 42  1  0  0  0  0
 42 43  1  0  0  0  0
 36 44  1  0  0  0  0
 44 45  2  0  0  0  0
 45 46  1  0  0  0  0
 46 47  2  0  0  0  0
 47 48  1  0  0  0  0
 48 49  2  0  0  0  0
 49 50  1  0  0  0  0
 50 51  2  0  0  0  0
 51 52  1  0  0  0  0
 52 53  2  0  0  0  0
 53 54  1  0  0  0  0
 54 55  1  0  0  0  0
 55 56  1  0  0  0  0
 53 57  1  0  0  0  0
 57 58  1  0  0  0  0
 57 59  2  0  0  0  0
 49 60  1  0  0  0  0
 60 61  2  0  0  0  0
 61 62  1  0  0  0  0
 62 63  1  0  0  0  0
 63 64  2  0  0  0  0
 64 65  1  0  0  0  0
 65 66  2  0  0  0  0
 66 67  1  0  0  0  0
 67 68  1  0  0  0  0
 68 69  1  0  0  0  0
 66 70  1  0  0  0  0
 70 71  2  0  0  0  0
 70 72  1  0  0  0  0
 62 73  2  0  0  0  0
 73 74  1  0  0  0  0
 61 75  1  0  0  0  0
 75 76  2  0  0  0  0
 76 77  1  0  0  0  0
 76 78  1  0  0  0  0
 78 79  2  0  0  0  0
 79 80  1  0  0  0  0
 80 81  2  0  0  0  0
 81 82  1  0  0  0  0
 82 83  2  0  0  0  0
 83 84  1  0  0  0  0
 84 85  2  0  0  0  0
 85 86  1  0  0  0  0
 86 87  1  0  0  0  0
 87 88  1  0  0  0  0
 85 89  1  0  0  0  0
 89 90  1  0  0  0  0
 89 91  2  0  0  0  0
 81 92  1  0  0  0  0
 92 93  2  0  0  0  0
 93 94  1  0  0  0  0
 94 95  1  0  0  0  0
 95 96  2  0  0  0  0
 96 97  1  0  0  0  0
 97 98  2  0  0  0  0
 98 99  1  0  0  0  0
 99100  1  0  0  0  0
100101  1  0  0  0  0
 98102  1  0  0  0  0
102103  2  0  0  0  0
102104  1  0  0  0  0
 94105  2  0  0  0  0
105106  1  0  0  0  0
 93107  1  0  0  0  0
107108  2  0  0  0  0
108109  1  0  0  0  0
108110  1  0  0  0  0
110111  2  0  0  0  0
111112  1  0  0  0  0
112113  2  0  0  0  0
113114  1  0  0  0  0
114115  2  0  0  0  0
115116  1  0  0  0  0
116117  2  0  0  0  0
117118  1  0  0  0  0
118119  1  0  0  0  0
119120  1  0  0  0  0
117121  1  0  0  0  0
121122  1  0  0  0  0
121123  2  0  0  0  0
113124  1  0  0  0  0
124125  2  0  0  0  0
125126  1  0  0  0  0
126127  1  0  0  0  0
127128  2  0  0  0  0
128129  1  0  0  0  0
129130  2  0  0  0  0
130131  1  0  0  0  0
131132  1  0  0  0  0
132133  1  0  0  0  0
130134  1  0  0  0  0
134135  2  0  0  0  0
134136  1  0  0  0  0
126137  2  0  0  0  0
137138  1  0  0  0  0
125139  1  0  0  0  0
139140  2  0  0  0  0
140141  1  0  0  0  0
  5  1  2  0  0  0  0
 20 16  2  0  0  0  0
 35 31  2  0  0  0  0
 74 46  1  0  0  0  0
106 78  1  0  0  0  0
138110  1  0  0  0  0
 11  4  1  0  0  0  0
 26 19  1  0  0  0  0
 41 34  1  0  0  0  0
 73 48  1  0  0  0  0
105 80  1  0  0  0  0
137112  1  0  0  0  0
 59 50  1  0  0  0  0
 77 60  1  0  0  0  0
 91 82  1  0  0  0  0
109 92  1  0  0  0  0
123114  1  0  0  0  0
141124  1  0  0  0  0
 71 63  1  0  0  0  0
103 95  1  0  0  0  0
135127  1  0  0  0  0
  1142  1  0  0  0  0
  3143  1  0  0  0  0
  9144  1  0  0  0  0
  9145  1  0  0  0  0
  9146  1  0  0  0  0
 11147  1  0  0  0  0
 13148  1  0  0  0  0
 13149  1  0  0  0  0
 13150  1  0  0  0  0
 14151  1  0  0  0  0
 15152  1  0  0  0  0
 18153  1  0  0  0  0
 24154  1  0  0  0  0
 24155  1  0  0  0  0
 24156  1  0  0  0  0
 26157  1  0  0  0  0
 28158  1  0  0  0  0
 28159  1  0  0  0  0
 28160  1  0  0  0  0
 29161  1  0  0  0  0
 30162  1  0  0  0  0
 33163  1  0  0  0  0
 39164  1  0  0  0  0
 39165  1  0  0  0  0
 39166  1  0  0  0  0
 41167  1  0  0  0  0
 43168  1  0  0  0  0
 43169  1  0  0  0  0
 43170  1  0  0  0  0
 44171  1  0  0  0  0
 45172  1  0  0  0  0
 47173  1  0  0  0  0
 51174  1  0  0  0  0
 52175  1  0  0  0  0
 55176  1  0  0  0  0
 55177  1  0  0  0  0
 56178  1  0  0  0  0
 56179  1  0  0  0  0
 56180  1  0  0  0  0
 59181  1  0  0  0  0
 64182  1  0  0  0  0
 65183  1  0  0  0  0
 68184  1  0  0  0  0
 68185  1  0  0  0  0
 69186  1  0  0  0  0
 69187  1  0  0  0  0
 69188  1  0  0  0  0
 71189  1  0  0  0  0
 75190  1  0  0  0  0
 79191  1  0  0  0  0
 83192  1  0  0  0  0
 84193  1  0  0  0  0
 87194  1  0  0  0  0
 87195  1  0  0  0  0
 88196  1  0  0  0  0
 88197  1  0  0  0  0
 88198  1  0  0  0  0
 91199  1  0  0  0  0
 96200  1  0  0  0  0
 97201  1  0  0  0  0
100202  1  0  0  0  0
100203  1  0  0  0  0
101204  1  0  0  0  0
101205  1  0  0  0  0
101206  1  0  0  0  0
103207  1  0  0  0  0
107208  1  0  0  0  0
111209  1  0  0  0  0
115210  1  0  0  0  0
116211  1  0  0  0  0
119212  1  0  0  0  0
119213  1  0  0  0  0
120214  1  0  0  0  0
120215  1  0  0  0  0
120216  1  0  0  0  0
123217  1  0  0  0  0
128218  1  0  0  0  0
129219  1  0  0  0  0
132220  1  0  0  0  0
132221  1  0  0  0  0
133222  1  0  0  0  0
133223  1  0  0  0  0
133224  1  0  0  0  0
135225  1  0  0  0  0
139226  1  0  0  0  0
140227  1  0  0  0  0
M  END
