
  xtb     03072221513D
 energy: -348.514731426862 gnorm: 0.000571205003 xtb: 6.4.1 (unknown)
202219  0     0  0            999 V2000
    6.5718   -4.3989    9.2985 C   0  0  0  0  0  0  0  0  0  0  0  0
    7.1586   -2.9538   10.0069 S   0  0  0  0  0  0  0  0  0  0  0  0
    8.2359   -2.6909    8.7026 C   0  0  0  0  0  0  0  0  0  0  0  0
    8.1580   -3.6798    7.7594 C   0  0  0  0  0  0  0  0  0  0  0  0
    7.1885   -4.6807    8.1036 C   0  0  0  0  0  0  0  0  0  0  0  0
    6.9449   -5.8229    7.2928 C   0  0  0  0  0  0  0  0  0  0  0  0
    7.4951   -5.9644    5.7034 S   0  0  0  0  0  4  0  0  0  0  0  0
    6.6304   -5.1080    4.3274 O   0  0  0  0  0  0  0  0  0  0  0  0
    6.2336   -5.9000    3.2582 C   0  0  0  0  0  0  0  0  0  0  0  0
    8.7510   -4.7169    5.6465 C   0  0  0  0  0  0  0  0  0  0  0  0
    8.9449   -3.7658    6.5739 C   0  0  0  0  0  0  0  0  0  0  0  0
    9.4519   -4.9100    4.5039 O   0  0  0  0  0  0  0  0  0  0  0  0
   10.3679   -3.9099    4.1150 C   0  0  0  0  0  0  0  0  0  0  0  0
    6.0005   -6.8548    7.7322 C   0  0  0  0  0  0  0  0  0  0  0  0
    4.7967   -7.0735    7.1877 C   0  0  0  0  0  0  0  0  0  0  0  0
    4.1694   -6.2033    6.2232 C   0  0  0  0  0  0  0  0  0  0  0  0
    3.2755   -6.5332    5.2501 C   0  0  0  0  0  0  0  0  0  0  0  0
    2.8872   -5.4349    4.4357 C   0  0  0  0  0  0  0  0  0  0  0  0
    2.0287   -5.4213    3.3245 C   0  0  0  0  0  0  0  0  0  0  0  0
    1.2968   -6.6228    2.9050 C   0  0  0  0  0  0  0  0  0  0  0  0
    0.5326   -7.3484    3.8141 C   0  0  0  0  0  0  0  0  0  0  0  0
   -0.1718   -8.4702    3.4214 C   0  0  0  0  0  0  0  0  0  0  0  0
   -0.1367   -8.9069    2.1021 C   0  0  0  0  0  0  0  0  0  0  0  0
   -0.9644  -10.3339    1.4789 S   0  0  0  0  0  0  0  0  0  0  0  0
   -2.2761  -10.6553    2.7087 C   0  0  0  0  0  0  0  0  0  0  0  0
   -3.3366   -9.5712    2.7128 C   0  0  0  0  0  0  0  0  0  0  0  0
    0.6445   -8.1777    1.2046 C   0  0  0  0  0  0  0  0  0  0  0  0
    0.7189   -8.5841   -0.0788 F   0  0  0  0  0  0  0  0  0  0  0  0
    1.3475   -7.0561    1.5820 C   0  0  0  0  0  0  0  0  0  0  0  0
    1.9056   -4.2179    2.6456 C   0  0  0  0  0  0  0  0  0  0  0  0
    2.6119   -3.0421    3.0053 C   0  0  0  0  0  0  0  0  0  0  0  0
    3.4525   -3.0507    4.1271 C   0  0  0  0  0  0  0  0  0  0  0  0
    4.2376   -1.8821    4.5447 C   0  0  0  0  0  0  0  0  0  0  0  0
    3.6487   -0.6373    4.7502 C   0  0  0  0  0  0  0  0  0  0  0  0
    4.4032    0.4275    5.1997 C   0  0  0  0  0  0  0  0  0  0  0  0
    5.7644    0.2887    5.4454 C   0  0  0  0  0  0  0  0  0  0  0  0
    6.6732    1.6953    6.0351 S   0  0  0  0  0  0  0  0  0  0  0  0
    7.4698    1.0000    7.5307 C   0  0  0  0  0  0  0  0  0  0  0  0
    6.4476    0.4883    8.5260 C   0  0  0  0  0  0  0  0  0  0  0  0
    6.3482   -0.9478    5.1913 C   0  0  0  0  0  0  0  0  0  0  0  0
    5.6062   -2.0271    4.7624 C   0  0  0  0  0  0  0  0  0  0  0  0
    7.6806   -1.1198    5.3577 F   0  0  0  0  0  0  0  0  0  0  0  0
    3.5465   -4.2442    4.8254 C   0  0  0  0  0  0  0  0  0  0  0  0
    4.4972   -4.4837    6.2561 S   0  0  0  0  0  0  0  0  0  0  0  0
    2.3517   -1.9731    2.1112 C   0  0  0  0  0  0  0  0  0  0  0  0
    1.4418   -2.2791    1.1444 C   0  0  0  0  0  0  0  0  0  0  0  0
    0.8736   -3.9346    1.2653 S   0  0  0  0  0  0  0  0  0  0  0  0
    0.9384   -1.4266    0.1202 C   0  0  0  0  0  0  0  0  0  0  0  0
   -0.1157   -1.6459   -0.7131 C   0  0  0  0  0  0  0  0  0  0  0  0
   -0.3750   -0.5722   -1.6011 C   0  0  0  0  0  0  0  0  0  0  0  0
   -1.3625   -0.5146   -2.5974 C   0  0  0  0  0  0  0  0  0  0  0  0
   -2.3291   -1.6066   -2.7661 C   0  0  0  0  0  0  0  0  0  0  0  0
   -2.4727   -2.2623   -3.9825 C   0  0  0  0  0  0  0  0  0  0  0  0
   -3.3680   -3.3048   -4.1291 C   0  0  0  0  0  0  0  0  0  0  0  0
   -4.1570   -3.7170   -3.0630 C   0  0  0  0  0  0  0  0  0  0  0  0
   -5.3675   -5.0006   -3.1237 S   0  0  0  0  0  0  0  0  0  0  0  0
   -4.9571   -5.9326   -4.6365 C   0  0  0  0  0  0  0  0  0  0  0  0
   -3.6541   -6.6974   -4.5047 C   0  0  0  0  0  0  0  0  0  0  0  0
   -4.0265   -3.0255   -1.8582 C   0  0  0  0  0  0  0  0  0  0  0  0
   -4.8127   -3.3718   -0.8143 F   0  0  0  0  0  0  0  0  0  0  0  0
   -3.1294   -1.9959   -1.6947 C   0  0  0  0  0  0  0  0  0  0  0  0
   -1.3973    0.6285   -3.3737 C   0  0  0  0  0  0  0  0  0  0  0  0
   -0.5185    1.7219   -3.1747 C   0  0  0  0  0  0  0  0  0  0  0  0
    0.5305    1.6341   -2.2340 C   0  0  0  0  0  0  0  0  0  0  0  0
    1.5664    2.6669   -2.1727 C   0  0  0  0  0  0  0  0  0  0  0  0
    2.1276    3.0946   -0.9731 C   0  0  0  0  0  0  0  0  0  0  0  0
    3.1035    4.0707   -0.9365 C   0  0  0  0  0  0  0  0  0  0  0  0
    3.5755    4.6485   -2.1074 C   0  0  0  0  0  0  0  0  0  0  0  0
    4.7772    5.9361   -2.1955 S   0  0  0  0  0  0  0  0  0  0  0  0
    5.6247    5.8569   -0.5794 C   0  0  0  0  0  0  0  0  0  0  0  0
    6.4394    4.5878   -0.4186 C   0  0  0  0  0  0  0  0  0  0  0  0
    3.0311    4.1914   -3.3074 C   0  0  0  0  0  0  0  0  0  0  0  0
    2.0537    3.2267   -3.3553 C   0  0  0  0  0  0  0  0  0  0  0  0
    3.4835    4.7092   -4.4704 F   0  0  0  0  0  0  0  0  0  0  0  0
    0.5460    0.4945   -1.4423 C   0  0  0  0  0  0  0  0  0  0  0  0
    1.6857    0.1364   -0.1645 S   0  0  0  0  0  0  0  0  0  0  0  0
   -0.8831    2.8241   -3.9710 C   0  0  0  0  0  0  0  0  0  0  0  0
   -1.9655    2.6123   -4.7910 C   0  0  0  0  0  0  0  0  0  0  0  0
   -2.5689    0.9741   -4.6166 S   0  0  0  0  0  0  0  0  0  0  0  0
   -2.4266    3.5725   -5.7379 C   0  0  0  0  0  0  0  0  0  0  0  0
   -1.3968    4.9848   -5.8736 S   0  0  0  0  0  0  0  0  0  0  0  0
   -2.2295    5.5502   -7.2375 C   0  0  0  0  0  0  0  0  0  0  0  0
   -3.2617    4.7247   -7.6076 C   0  0  0  0  0  0  0  0  0  0  0  0
   -3.4420    3.6091   -6.7089 C   0  0  0  0  0  0  0  0  0  0  0  0
   -4.5000    2.6999   -6.9202 C   0  0  0  0  0  0  0  0  0  0  0  0
   -5.5850    2.7924   -8.2272 S   0  0  0  0  0  4  0  0  0  0  0  0
   -7.0075    3.8697   -7.7948 O   0  0  0  0  0  0  0  0  0  0  0  0
   -7.8673    3.4286   -6.7951 C   0  0  0  0  0  0  0  0  0  0  0  0
   -4.9452    4.0663   -9.2603 C   0  0  0  0  0  0  0  0  0  0  0  0
   -3.9755    4.8931   -8.8234 C   0  0  0  0  0  0  0  0  0  0  0  0
   -5.4197    4.1736  -10.5204 O   0  0  0  0  0  0  0  0  0  0  0  0
   -6.6588    3.5676  -10.8248 C   0  0  0  0  0  0  0  0  0  0  0  0
   -4.9974    1.6809   -6.0145 C   0  0  0  0  0  0  0  0  0  0  0  0
   -5.2963    1.8779   -4.7157 C   0  0  0  0  0  0  0  0  0  0  0  0
   -5.8431    0.8604   -3.8810 C   0  0  0  0  0  0  0  0  0  0  0  0
   -5.6122   -0.8063   -4.3424 S   0  0  0  0  0  0  0  0  0  0  0  0
   -6.5147   -1.3650   -3.0076 C   0  0  0  0  0  0  0  0  0  0  0  0
   -6.9989   -0.3424   -2.2387 C   0  0  0  0  0  0  0  0  0  0  0  0
   -6.6228    0.9557   -2.7308 C   0  0  0  0  0  0  0  0  0  0  0  0
   -7.1532    2.1405   -2.1448 C   0  0  0  0  0  0  0  0  0  0  0  0
   -8.5988    2.0380   -1.2453 S   0  0  0  0  0  4  0  0  0  0  0  0
   -9.8962    1.4924   -2.3231 O   0  0  0  0  0  0  0  0  0  0  0  0
  -10.1576    2.2848   -3.4392 C   0  0  0  0  0  0  0  0  0  0  0  0
   -8.5040    0.4343   -0.5075 C   0  0  0  0  0  0  0  0  0  0  0  0
   -7.7583   -0.5430   -1.0445 C   0  0  0  0  0  0  0  0  0  0  0  0
   -9.2218    0.4221    0.6450 O   0  0  0  0  0  0  0  0  0  0  0  0
   -9.1619   -0.7475    1.4317 C   0  0  0  0  0  0  0  0  0  0  0  0
   -6.7108    3.4996   -2.2798 C   0  0  0  0  0  0  0  0  0  0  0  0
   -5.4542    4.0098   -2.2614 C   0  0  0  0  0  0  0  0  0  0  0  0
   -4.2230    3.3844   -1.9312 C   0  0  0  0  0  0  0  0  0  0  0  0
   -4.1656    1.7788   -1.2441 S   0  0  0  0  0  0  0  0  0  0  0  0
   -2.6218    2.0573   -0.5705 C   0  0  0  0  0  0  0  0  0  0  0  0
   -2.1284    3.3016   -0.8782 C   0  0  0  0  0  0  0  0  0  0  0  0
   -2.9945    4.0423   -1.7496 C   0  0  0  0  0  0  0  0  0  0  0  0
   -2.6302    5.2937   -2.3018 C   0  0  0  0  0  0  0  0  0  0  0  0
   -1.2248    6.1301   -1.8355 S   0  0  0  0  0  4  0  0  0  0  0  0
    0.0026    5.7234   -3.0746 O   0  0  0  0  0  0  0  0  0  0  0  0
    0.9029    6.7336   -3.4211 C   0  0  0  0  0  0  0  0  0  0  0  0
   -0.5835    5.1397   -0.5333 C   0  0  0  0  0  0  0  0  0  0  0  0
   -0.9860    3.8844   -0.2660 C   0  0  0  0  0  0  0  0  0  0  0  0
    0.3828    5.8616    0.1085 O   0  0  0  0  0  0  0  0  0  0  0  0
    0.7427    5.4529    1.4099 C   0  0  0  0  0  0  0  0  0  0  0  0
   -3.3706    5.9278   -3.3737 C   0  0  0  0  0  0  0  0  0  0  0  0
   -3.3001    7.2079   -3.7328 C   0  0  0  0  0  0  0  0  0  0  0  0
    5.8109   -4.9649    9.7956 H   0  0  0  0  0  0  0  0  0  0  0  0
    8.8757   -1.8314    8.7031 H   0  0  0  0  0  0  0  0  0  0  0  0
    7.0870   -6.1588    2.6206 H   0  0  0  0  0  0  0  0  0  0  0  0
    5.5096   -5.3272    2.6729 H   0  0  0  0  0  0  0  0  0  0  0  0
    5.7526   -6.8252    3.5979 H   0  0  0  0  0  0  0  0  0  0  0  0
    9.7063   -3.0136    6.4328 H   0  0  0  0  0  0  0  0  0  0  0  0
   11.2088   -3.8516    4.8132 H   0  0  0  0  0  0  0  0  0  0  0  0
    9.8792   -2.9339    4.0484 H   0  0  0  0  0  0  0  0  0  0  0  0
   10.7307   -4.2076    3.1331 H   0  0  0  0  0  0  0  0  0  0  0  0
    6.3461   -7.4939    8.5354 H   0  0  0  0  0  0  0  0  0  0  0  0
    4.2163   -7.9365    7.4882 H   0  0  0  0  0  0  0  0  0  0  0  0
    2.9477   -7.5426    5.0727 H   0  0  0  0  0  0  0  0  0  0  0  0
    0.4737   -7.0187    4.8406 H   0  0  0  0  0  0  0  0  0  0  0  0
   -0.7487   -9.0070    4.1573 H   0  0  0  0  0  0  0  0  0  0  0  0
   -1.8165  -10.7931    3.6867 H   0  0  0  0  0  0  0  0  0  0  0  0
   -2.6953  -11.6086    2.3868 H   0  0  0  0  0  0  0  0  0  0  0  0
   -4.1215   -9.8231    3.4234 H   0  0  0  0  0  0  0  0  0  0  0  0
   -3.7793   -9.4761    1.7241 H   0  0  0  0  0  0  0  0  0  0  0  0
   -2.9110   -8.6092    2.9906 H   0  0  0  0  0  0  0  0  0  0  0  0
    1.9403   -6.5366    0.8459 H   0  0  0  0  0  0  0  0  0  0  0  0
    2.5880   -0.5150    4.5916 H   0  0  0  0  0  0  0  0  0  0  0  0
    3.9446    1.3876    5.3798 H   0  0  0  0  0  0  0  0  0  0  0  0
    8.1620    0.2198    7.2210 H   0  0  0  0  0  0  0  0  0  0  0  0
    8.0346    1.8386    7.9375 H   0  0  0  0  0  0  0  0  0  0  0  0
    6.9464    0.1602    9.4359 H   0  0  0  0  0  0  0  0  0  0  0  0
    5.7393    1.2737    8.7809 H   0  0  0  0  0  0  0  0  0  0  0  0
    5.8959   -0.3556    8.1145 H   0  0  0  0  0  0  0  0  0  0  0  0
    6.1026   -2.9689    4.5785 H   0  0  0  0  0  0  0  0  0  0  0  0
    2.8221   -1.0085    2.1806 H   0  0  0  0  0  0  0  0  0  0  0  0
   -0.6897   -2.5556   -0.6957 H   0  0  0  0  0  0  0  0  0  0  0  0
   -1.8698   -1.9588   -4.8244 H   0  0  0  0  0  0  0  0  0  0  0  0
   -3.4537   -3.7847   -5.0900 H   0  0  0  0  0  0  0  0  0  0  0  0
   -5.7991   -6.6157   -4.7500 H   0  0  0  0  0  0  0  0  0  0  0  0
   -4.9547   -5.2424   -5.4793 H   0  0  0  0  0  0  0  0  0  0  0  0
   -3.4674   -7.2692   -5.4118 H   0  0  0  0  0  0  0  0  0  0  0  0
   -2.8179   -6.0208   -4.3420 H   0  0  0  0  0  0  0  0  0  0  0  0
   -3.7051   -7.3857   -3.6642 H   0  0  0  0  0  0  0  0  0  0  0  0
   -3.0758   -1.4866   -0.7454 H   0  0  0  0  0  0  0  0  0  0  0  0
    1.7849    2.6701   -0.0427 H   0  0  0  0  0  0  0  0  0  0  0  0
    3.4911    4.3867    0.0188 H   0  0  0  0  0  0  0  0  0  0  0  0
    4.8856    5.9803    0.2113 H   0  0  0  0  0  0  0  0  0  0  0  0
    6.2706    6.7349   -0.5889 H   0  0  0  0  0  0  0  0  0  0  0  0
    6.9561    4.5971    0.5393 H   0  0  0  0  0  0  0  0  0  0  0  0
    5.8026    3.7065   -0.4611 H   0  0  0  0  0  0  0  0  0  0  0  0
    7.1785    4.5148   -1.2130 H   0  0  0  0  0  0  0  0  0  0  0  0
    1.6948    2.8977   -4.3169 H   0  0  0  0  0  0  0  0  0  0  0  0
   -0.3985    3.7799   -3.8946 H   0  0  0  0  0  0  0  0  0  0  0  0
   -1.9123    6.4454   -7.7342 H   0  0  0  0  0  0  0  0  0  0  0  0
   -8.0933    2.3606   -6.8994 H   0  0  0  0  0  0  0  0  0  0  0  0
   -8.7965    3.9956   -6.8893 H   0  0  0  0  0  0  0  0  0  0  0  0
   -7.4399    3.6005   -5.8005 H   0  0  0  0  0  0  0  0  0  0  0  0
   -3.6752    5.7024   -9.4731 H   0  0  0  0  0  0  0  0  0  0  0  0
   -6.9172    3.9119  -11.8244 H   0  0  0  0  0  0  0  0  0  0  0  0
   -6.5718    2.4760  -10.8266 H   0  0  0  0  0  0  0  0  0  0  0  0
   -7.4295    3.8708  -10.1126 H   0  0  0  0  0  0  0  0  0  0  0  0
   -5.2847    0.7426   -6.4769 H   0  0  0  0  0  0  0  0  0  0  0  0
   -5.1281    2.8471   -4.2705 H   0  0  0  0  0  0  0  0  0  0  0  0
   -6.6752   -2.4148   -2.8636 H   0  0  0  0  0  0  0  0  0  0  0  0
  -10.7902    1.6976   -4.1058 H   0  0  0  0  0  0  0  0  0  0  0  0
  -10.6797    3.2087   -3.1661 H   0  0  0  0  0  0  0  0  0  0  0  0
   -9.2287    2.5394   -3.9664 H   0  0  0  0  0  0  0  0  0  0  0  0
   -7.7300   -1.5302   -0.6086 H   0  0  0  0  0  0  0  0  0  0  0  0
   -9.5984   -1.6012    0.9050 H   0  0  0  0  0  0  0  0  0  0  0  0
   -8.1305   -0.9827    1.7110 H   0  0  0  0  0  0  0  0  0  0  0  0
   -9.7459   -0.5325    2.3244 H   0  0  0  0  0  0  0  0  0  0  0  0
   -7.5108    4.2306   -2.2963 H   0  0  0  0  0  0  0  0  0  0  0  0
   -5.3779    5.0834   -2.3681 H   0  0  0  0  0  0  0  0  0  0  0  0
   -2.1551    1.3045    0.0330 H   0  0  0  0  0  0  0  0  0  0  0  0
    1.6206    6.9186   -2.6151 H   0  0  0  0  0  0  0  0  0  0  0  0
    1.4378    6.3959   -4.3091 H   0  0  0  0  0  0  0  0  0  0  0  0
    0.3814    7.6666   -3.6581 H   0  0  0  0  0  0  0  0  0  0  0  0
   -0.4866    3.3021    0.4941 H   0  0  0  0  0  0  0  0  0  0  0  0
    1.3335    4.5337    1.3951 H   0  0  0  0  0  0  0  0  0  0  0  0
    1.3439    6.2634    1.8186 H   0  0  0  0  0  0  0  0  0  0  0  0
   -0.1448    5.3014    2.0318 H   0  0  0  0  0  0  0  0  0  0  0  0
   -3.9913    5.2585   -3.9553 H   0  0  0  0  0  0  0  0  0  0  0  0
   -2.6962    7.9198   -3.1945 H   0  0  0  0  0  0  0  0  0  0  0  0
   -3.8459    7.5821   -4.5803 H   0  0  0  0  0  0  0  0  0  0  0  0
  1  2  1  0  0  0  0
  2  3  1  0  0  0  0
  3  4  2  0  0  0  0
  4  5  1  0  0  0  0
  5  6  1  0  0  0  0
  6  7  2  0  0  0  0
  7  8  1  0  0  0  0
  8  9  1  0  0  0  0
  7 10  1  0  0  0  0
 10 11  2  0  0  0  0
 10 12  1  0  0  0  0
 12 13  1  0  0  0  0
  6 14  1  0  0  0  0
 14 15  2  0  0  0  0
 15 16  1  0  0  0  0
 16 17  2  0  0  0  0
 17 18  1  0  0  0  0
 18 19  2  0  0  0  0
 19 20  1  0  0  0  0
 20 21  2  0  0  0  0
 21 22  1  0  0  0  0
 22 23  2  0  0  0  0
 23 24  1  0  0  0  0
 24 25  1  0  0  0  0
 25 26  1  0  0  0  0
 23 27  1  0  0  0  0
 27 28  1  0  0  0  0
 27 29  2  0  0  0  0
 19 30  1  0  0  0  0
 30 31  2  0  0  0  0
 31 32  1  0  0  0  0
 32 33  1  0  0  0  0
 33 34  2  0  0  0  0
 34 35  1  0  0  0  0
 35 36  2  0  0  0  0
 36 37  1  0  0  0  0
 37 38  1  0  0  0  0
 38 39  1  0  0  0  0
 36 40  1  0  0  0  0
 40 41  2  0  0  0  0
 40 42  1  0  0  0  0
 32 43  2  0  0  0  0
 43 44  1  0  0  0  0
 31 45  1  0  0  0  0
 45 46  2  0  0  0  0
 46 47  1  0  0  0  0
 46 48  1  0  0  0  0
 48 49  2  0  0  0  0
 49 50  1  0  0  0  0
 50 51  2  0  0  0  0
 51 52  1  0  0  0  0
 52 53  2  0  0  0  0
 53 54  1  0  0  0  0
 54 55  2  0  0  0  0
 55 56  1  0  0  0  0
 56 57  1  0  0  0  0
 57 58  1  0  0  0  0
 55 59  1  0  0  0  0
 59 60  1  0  0  0  0
 59 61  2  0  0  0  0
 51 62  1  0  0  0  0
 62 63  2  0  0  0  0
 63 64  1  0  0  0  0
 64 65  1  0  0  0  0
 65 66  2  0  0  0  0
 66 67  1  0  0  0  0
 67 68  2  0  0  0  0
 68 69  1  0  0  0  0
 69 70  1  0  0  0  0
 70 71  1  0  0  0  0
 68 72  1  0  0  0  0
 72 73  2  0  0  0  0
 72 74  1  0  0  0  0
 64 75  2  0  0  0  0
 75 76  1  0  0  0  0
 63 77  1  0  0  0  0
 77 78  2  0  0  0  0
 78 79  1  0  0  0  0
 78 80  1  0  0  0  0
 80 81  1  0  0  0  0
 81 82  1  0  0  0  0
 82 83  2  0  0  0  0
 83 84  1  0  0  0  0
 84 85  1  0  0  0  0
 85 86  2  0  0  0  0
 86 87  1  0  0  0  0
 87 88  1  0  0  0  0
 86 89  1  0  0  0  0
 89 90  2  0  0  0  0
 89 91  1  0  0  0  0
 91 92  1  0  0  0  0
 85 93  1  0  0  0  0
 93 94  2  0  0  0  0
 94 95  1  0  0  0  0
 95 96  1  0  0  0  0
 96 97  1  0  0  0  0
 97 98  2  0  0  0  0
 98 99  1  0  0  0  0
 99100  1  0  0  0  0
100101  2  0  0  0  0
101102  1  0  0  0  0
102103  1  0  0  0  0
101104  1  0  0  0  0
104105  2  0  0  0  0
104106  1  0  0  0  0
106107  1  0  0  0  0
100108  1  0  0  0  0
108109  2  0  0  0  0
109110  1  0  0  0  0
110111  1  0  0  0  0
111112  1  0  0  0  0
112113  2  0  0  0  0
113114  1  0  0  0  0
114115  1  0  0  0  0
115116  2  0  0  0  0
116117  1  0  0  0  0
117118  1  0  0  0  0
116119  1  0  0  0  0
119120  2  0  0  0  0
119121  1  0  0  0  0
121122  1  0  0  0  0
115123  1  0  0  0  0
123124  2  0  0  0  0
  5  1  2  0  0  0  0
 44 16  1  0  0  0  0
 76 48  1  0  0  0  0
 84 80  2  0  0  0  0
 99 95  2  0  0  0  0
114110  2  0  0  0  0
 11  4  1  0  0  0  0
 43 18  1  0  0  0  0
 75 50  1  0  0  0  0
 90 83  1  0  0  0  0
105 98  1  0  0  0  0
120113  1  0  0  0  0
 29 20  1  0  0  0  0
 47 30  1  0  0  0  0
 61 52  1  0  0  0  0
 79 62  1  0  0  0  0
 41 33  1  0  0  0  0
 73 65  1  0  0  0  0
  1125  1  0  0  0  0
  3126  1  0  0  0  0
  9127  1  0  0  0  0
  9128  1  0  0  0  0
  9129  1  0  0  0  0
 11130  1  0  0  0  0
 13131  1  0  0  0  0
 13132  1  0  0  0  0
 13133  1  0  0  0  0
 14134  1  0  0  0  0
 15135  1  0  0  0  0
 17136  1  0  0  0  0
 21137  1  0  0  0  0
 22138  1  0  0  0  0
 25139  1  0  0  0  0
 25140  1  0  0  0  0
 26141  1  0  0  0  0
 26142  1  0  0  0  0
 26143  1  0  0  0  0
 29144  1  0  0  0  0
 34145  1  0  0  0  0
 35146  1  0  0  0  0
 38147  1  0  0  0  0
 38148  1  0  0  0  0
 39149  1  0  0  0  0
 39150  1  0  0  0  0
 39151  1  0  0  0  0
 41152  1  0  0  0  0
 45153  1  0  0  0  0
 49154  1  0  0  0  0
 53155  1  0  0  0  0
 54156  1  0  0  0  0
 57157  1  0  0  0  0
 57158  1  0  0  0  0
 58159  1  0  0  0  0
 58160  1  0  0  0  0
 58161  1  0  0  0  0
 61162  1  0  0  0  0
 66163  1  0  0  0  0
 67164  1  0  0  0  0
 70165  1  0  0  0  0
 70166  1  0  0  0  0
 71167  1  0  0  0  0
 71168  1  0  0  0  0
 71169  1  0  0  0  0
 73170  1  0  0  0  0
 77171  1  0  0  0  0
 82172  1  0  0  0  0
 88173  1  0  0  0  0
 88174  1  0  0  0  0
 88175  1  0  0  0  0
 90176  1  0  0  0  0
 92177  1  0  0  0  0
 92178  1  0  0  0  0
 92179  1  0  0  0  0
 93180  1  0  0  0  0
 94181  1  0  0  0  0
 97182  1  0  0  0  0
103183  1  0  0  0  0
103184  1  0  0  0  0
103185  1  0  0  0  0
105186  1  0  0  0  0
107187  1  0  0  0  0
107188  1  0  0  0  0
107189  1  0  0  0  0
108190  1  0  0  0  0
109191  1  0  0  0  0
112192  1  0  0  0  0
118193  1  0  0  0  0
118194  1  0  0  0  0
118195  1  0  0  0  0
120196  1  0  0  0  0
122197  1  0  0  0  0
122198  1  0  0  0  0
122199  1  0  0  0  0
123200  1  0  0  0  0
124201  1  0  0  0  0
124202  1  0  0  0  0
M  END
