277

C          0.12610       -3.14870        0.90400
C         -0.73100       -3.23460        1.94080
C         -1.28870       -4.53960        2.09310
C         -2.17080       -4.99350        3.08370
C         -2.68220       -4.06800        4.10530
C         -4.04960       -3.85100        4.23060
C         -4.54730       -2.91650        5.11650
C         -3.68900       -2.17440        5.92060
S         -4.20960       -0.94740        7.07620
C         -5.74420       -0.29980        6.32460
C         -5.48560        0.36440        4.98590
C         -2.32260       -2.44200        5.82330
F         -1.46130       -1.77040        6.61250
C         -1.81320       -3.35840        4.92930
C         -2.52670       -6.33140        3.03780
C         -2.05150       -7.22410        2.04580
C         -1.18070       -6.76760        1.04510
C         -0.60360       -7.66410        0.03570
C         -0.62870       -7.33280       -1.31760
C         -0.04950       -8.16100       -2.25440
C          0.58950       -9.34170       -1.88240
S          1.35510      -10.28850       -3.16600
C          1.00170      -12.02650       -2.71050
C         -0.48550      -12.28840       -2.58400
C          0.62680       -9.64860       -0.52550
C          0.03130       -8.84060        0.42160
F          1.26370      -10.75590       -0.08100
C         -0.82560       -5.42660        1.09540
S          0.30060       -4.63270        0.02580
C         -2.54290       -8.54010        2.24660
C         -3.32770       -8.68430        3.35200
S         -3.51140       -7.15780        4.21890
C         -3.77110       -9.93880        3.89140
S         -2.63940      -11.26060        3.71310
C         -3.55590      -12.26960        4.72930
C         -4.69480      -11.65600        5.18740
C         -4.86350      -10.32740        4.66380
C         -6.05370       -9.58210        4.88940
S         -7.27750      -10.08410        5.96960
O         -8.54560      -10.79040        4.95980
C         -8.17180      -11.46900        3.80260
C         -6.64090      -11.58110        6.66190
C         -5.56470      -12.21900        6.16050
O         -7.33210      -12.12260        7.69160
C         -8.51250      -11.48390        8.12740
C         -6.33660       -8.37520        4.19260
C         -7.28260       -7.44990        4.47180
C         -7.38490       -6.24810        3.72050
C         -8.10220       -5.11920        4.00720
C         -7.83200       -4.02330        3.14730
C         -8.29960       -2.69620        3.24840
C         -9.34930       -2.33440        4.20600
C        -10.50040       -3.11100        4.32140
C        -11.50840       -2.77400        5.20300
C        -11.40450       -1.64450        6.00770
S        -12.59470       -1.11950        7.19550
C        -14.11480       -2.01760        6.72940
C        -14.69470       -1.52250        5.41830
C        -10.24520       -0.87700        5.88460
F        -10.09830        0.21820        6.65610
C         -9.23800       -1.19710        5.00340
C         -7.72290       -1.76460        2.39150
C         -6.75490       -2.13420        1.43220
C         -6.28680       -3.45220        1.31880
C         -5.18710       -3.74110        0.38740
C         -4.02600       -2.97220        0.45300
C         -3.02830       -3.09620       -0.49150
C         -3.15280       -4.00330       -1.53720
S         -1.98880       -4.15880       -2.85580
C         -1.09200       -2.55950       -2.82980
C         -0.62920       -2.21530       -4.23190
C         -4.27580       -4.83170       -1.53770
C         -5.28290       -4.71300       -0.60330
F         -4.40730       -5.75330       -2.51560
C         -6.86200       -4.37120        2.16940
S         -6.38740       -6.04090        2.28690
C         -6.33270       -1.04020        0.65380
C         -6.89360        0.15280        1.00120
S         -8.03630       -0.03630        2.31180
C         -6.38010        1.33810        0.36850
C         -5.89760        1.27560       -0.90580
C         -4.87990        2.21750       -1.17760
C         -3.98580        2.17210       -2.25500
C         -4.05540        1.11800       -3.27670
C         -4.10410       -0.22320       -2.90550
C         -4.15720       -1.23040       -3.84890
C         -4.15020       -0.93310       -5.20740
S         -4.18880       -2.11140       -6.51320
C         -4.43640       -3.71860       -5.68260
C         -5.85450       -3.91260       -5.18150
C         -4.07520        0.41580       -5.56520
F         -4.05310        0.74240       -6.87240
C         -4.02650        1.42870       -4.63370
C         -2.92380        3.05670       -2.20200
C         -2.75460        4.01360       -1.17190
C         -3.67590        4.07600       -0.10750
C         -3.50170        5.05540        0.97110
C         -3.30220        6.40010        0.66940
C         -3.14410        7.34360        1.66590
C         -3.17730        6.97550        3.00640
S         -2.96310        8.05640        4.37890
C         -3.07630        9.73090        3.66020
C         -4.49320       10.08790        3.25210
C         -3.36730        5.62180        3.29350
C         -3.52980        4.67270        2.31070
F         -3.38600        5.22370        4.58050
C         -4.68620        3.12200       -0.10460
S         -5.77350        2.74760        1.22080
C         -1.48290        4.64840       -1.25830
C         -0.69960        4.15650       -2.25640
S         -1.53260        2.96900       -3.24320
C          0.70100        4.33190       -2.49610
C          1.52690        3.34480       -2.94060
C          2.89150        3.71830       -2.99400
C          3.98480        2.90340       -3.33150
C          3.78220        1.48830       -3.67480
C          2.90000        1.10410       -4.68400
C          2.66230       -0.22950       -4.93920
C          3.28610       -1.23430       -4.19870
S          2.89810       -2.90670       -4.61440
C          2.98300       -3.80690       -3.01160
C          2.16320       -5.07810       -3.11630
C          4.19870       -0.83540       -3.22650
F          4.87600       -1.75040       -2.49820
C          4.44470        0.49680       -2.95920
C          5.23720        3.49120       -3.26420
C          5.42160        4.85140       -2.91310
C          4.32730        5.66620       -2.57400
C          4.54970        7.07830       -2.23660
C          5.28310        7.89300       -3.09980
C          5.57990        9.19400       -2.75690
C          5.15220        9.73780       -1.54810
S          5.60340       11.41470       -1.19620
C          6.14640       11.34250        0.55160
C          7.33850       10.42600        0.73990
C          4.36340        8.93600       -0.72890
C          4.07190        7.62480       -1.05150
F          3.86200        9.41870        0.42770
C          3.08100        5.06310       -2.58730
S          1.56550        5.81070       -2.13840
C          6.78890        5.21180       -2.91150
C          7.62860        4.19800       -3.27200
S          6.76140        2.71810       -3.62130
C          9.04890        4.30590       -3.37880
C          9.76940        5.44090       -3.14790
C         11.15950        5.29050       -3.36390
C         12.15650        6.26430       -3.19240
C         11.78410        7.63380       -2.81800
C         10.79590        8.31170       -3.52820
C         10.36580        9.56650       -3.14380
C         10.91200       10.19150       -2.02800
S         10.41990       11.75860       -1.39920
C          9.04530       12.25580       -2.50550
C          8.50750       13.59450       -2.03830
C         11.92990        9.51730       -1.34860
F         12.49020       10.10270       -0.27130
C         12.36920        8.26790       -1.72430
C         13.46350        5.84970       -3.39510
C         13.80400        4.52700       -3.77380
C         12.80450        3.55690       -3.94830
C         13.12180        2.16760       -4.29930
C         12.46270        1.52450       -5.34270
C         12.73540        0.20770       -5.65720
C         13.66870       -0.52040       -4.92820
S         14.10860       -2.19960       -5.22920
C         12.70710       -2.85320       -6.20090
C         11.42800       -2.92530       -5.38950
C         14.33030        0.14050       -3.89150
C         14.07380        1.45480       -3.57260
F         15.24950       -0.52910       -3.16740
C         11.49490        3.97070       -3.74920
S         10.06830        2.96820       -3.86570
C         15.20970        4.39080       -3.97930
C         15.88780        5.53450       -3.75630
S         14.88080        6.86030       -3.28440
H          0.68600       -2.29130        0.58230
H         -0.97110       -2.41020        2.58750
H         -4.72860       -4.40940        3.60890
H         -5.61450       -2.77060        5.17720
H         -6.09790        0.42610        7.05630
H         -6.47000       -1.10980        6.25900
H         -5.16440       -0.36550        4.24360
H         -6.39050        0.85100        4.62650
H         -4.71070        1.12090        5.08740
H         -0.74710       -3.52000        4.88720
H         -1.12950       -6.43550       -1.64340
H         -0.08200       -7.90290       -3.30100
H          1.43170      -12.59250       -3.53690
H          1.53840      -12.27090       -1.79660
H         -0.65620      -13.34540       -2.38920
H         -1.00120      -12.01300       -3.50170
H         -0.91210      -11.71460       -1.76330
H          0.10690       -9.11810        1.46190
H         -2.32950       -9.35760        1.58100
H         -3.21310      -13.25810        4.96080
H         -7.84900      -12.49220        4.02800
H         -9.04240      -11.49410        3.14750
H         -7.35680      -10.94200        3.28900
H         -5.30770      -13.18150        6.57860
H         -8.29260      -10.51010        8.57670
H         -8.93610      -12.14300        8.88280
H         -9.22500      -11.35430        7.30790
H         -5.72280       -8.20720        3.31820
H         -7.93640       -7.55240        5.32700
H         -8.75550       -5.05460        4.85880
H        -10.61930       -3.98100        3.69330
H        -12.37970       -3.40600        5.26090
H        -14.79390       -1.81120        7.55660
H        -13.90260       -3.08590        6.71550
H        -13.99630       -1.67730        4.59840
H        -15.61690       -2.05580        5.19580
H        -14.91460       -0.45960        5.48420
H         -8.36960       -0.56110        4.95580
H         -3.90330       -2.26350        1.25850
H         -2.15020       -2.47630       -0.41250
H         -0.24760       -2.66690       -2.14840
H         -1.78040       -1.80040       -2.46210
H         -1.47890       -2.10170       -4.90060
H          0.02540       -2.98620       -4.63040
H         -0.08200       -1.27510       -4.20910
H         -6.14890       -5.35170       -0.67710
H         -5.59840       -1.13330       -0.12300
H         -6.21130        0.52960       -1.61220
H         -4.07450       -0.48690       -1.85780
H         -4.19830       -2.25400       -3.51490
H         -4.20400       -4.44200       -6.46400
H         -3.69640       -3.82420       -4.89100
H         -5.93490       -4.88420       -4.69850
H         -6.13000       -3.14380       -4.46230
H         -6.55840       -3.87290       -6.00960
H         -3.98160        2.45250       -4.96990
H         -3.28870        6.71630       -0.36300
H         -2.98790        8.37230        1.38490
H         -2.73250       10.37680        4.46810
H         -2.37010        9.80580        2.83440
H         -4.86440        9.40920        2.48720
H         -4.52120       11.10300        2.86060
H         -5.15610       10.02830        4.11200
H         -3.65360        3.64110        2.59810
H         -1.12990        5.37350       -0.54670
H          1.17180        2.35940       -3.18290
H          2.40350        1.85860       -5.27510
H          1.97820       -0.52200       -5.72090
H          4.02680       -4.03050       -2.79870
H          2.58540       -3.14180       -2.24620
H          1.12000       -4.85390       -3.32480
H          2.21350       -5.62510       -2.17750
H          2.54520       -5.71460       -3.91070
H          5.14750        0.74700       -2.17970
H          5.61900        7.49800       -4.04650
H          6.15710        9.81650       -3.42330
H          6.40300       12.37640        0.78200
H          5.30100       11.04450        1.16740
H          7.09220        9.40450        0.45310
H          7.63560       10.42610        1.78650
H          8.18430       10.76070        0.14370
H          3.48280        7.03880       -0.36360
H          7.13360        6.18970       -2.63300
H          9.32960        6.36080       -2.81170
H         10.36510        7.85390       -4.40610
H          9.59610       10.05400       -3.71930
H          9.43700       12.32690       -3.52020
H          8.26960       11.49200       -2.44820
H          7.66860       13.89000       -2.66400
H          9.27850       14.35910       -2.09440
H          8.16230       13.52660       -1.00980
H         13.14200        7.78640       -1.14650
H         11.74000        2.06680       -5.93300
H         12.21570       -0.24720       -6.48470
H         12.59530       -2.25440       -7.10410
H         13.04290       -3.85010       -6.48670
H         11.11430       -1.93600       -5.06270
H         11.57710       -3.54590       -4.50900
H         10.63240       -3.36030       -5.99140
H         14.59300        1.90540       -2.74130
H         15.67480        3.47600       -4.29850
H         16.94420        5.70020       -3.83910
