
  xtb     03072219513D
 energy: -392.600405671837 gnorm: 0.000662995135 xtb: 6.4.1 (unknown)
227247  0     0  0            999 V2000
   -1.4892  -14.5607   -0.0740 C   0  0  0  0  0  0  0  0  0  0  0  0
   -0.8577  -14.0901    1.0198 C   0  0  0  0  0  0  0  0  0  0  0  0
   -1.4948  -12.9421    1.5792 C   0  0  0  0  0  0  0  0  0  0  0  0
   -1.1275  -12.2141    2.7202 C   0  0  0  0  0  0  0  0  0  0  0  0
    0.0221  -12.5938    3.5511 C   0  0  0  0  0  0  0  0  0  0  0  0
    1.0019  -11.6582    3.8799 C   0  0  0  0  0  0  0  0  0  0  0  0
    2.0818  -12.0149    4.6565 C   0  0  0  0  0  0  0  0  0  0  0  0
    2.2252  -13.3115    5.1508 C   0  0  0  0  0  0  0  0  0  0  0  0
    3.6318  -13.6264    6.1696 S   0  0  0  0  0  0  0  0  0  0  0  0
    4.0112  -15.4019    5.8834 C   0  0  0  0  0  0  0  0  0  0  0  0
    5.4653  -15.6513    6.2322 C   0  0  0  0  0  0  0  0  0  0  0  0
    1.2247  -14.2267    4.8391 C   0  0  0  0  0  0  0  0  0  0  0  0
    1.2640  -15.4928    5.3178 F   0  0  0  0  0  0  0  0  0  0  0  0
    0.1491  -13.8879    4.0426 C   0  0  0  0  0  0  0  0  0  0  0  0
   -1.9087  -11.1121    3.0321 C   0  0  0  0  0  0  0  0  0  0  0  0
   -3.0316  -10.7128    2.2698 C   0  0  0  0  0  0  0  0  0  0  0  0
   -3.4220  -11.4626    1.1488 C   0  0  0  0  0  0  0  0  0  0  0  0
   -4.6417  -11.1365    0.4013 C   0  0  0  0  0  0  0  0  0  0  0  0
   -5.8461  -10.9457    1.0738 C   0  0  0  0  0  0  0  0  0  0  0  0
   -7.0128  -10.6658    0.3899 C   0  0  0  0  0  0  0  0  0  0  0  0
   -7.0152  -10.5523   -0.9956 C   0  0  0  0  0  0  0  0  0  0  0  0
   -8.4283  -10.2157   -1.9935 S   0  0  0  0  0  0  0  0  0  0  0  0
   -9.6881   -9.6362   -0.8050 C   0  0  0  0  0  0  0  0  0  0  0  0
   -9.3669   -8.2632   -0.2456 C   0  0  0  0  0  0  0  0  0  0  0  0
   -5.8022  -10.7520   -1.6573 C   0  0  0  0  0  0  0  0  0  0  0  0
   -4.6344  -11.0420   -0.9886 C   0  0  0  0  0  0  0  0  0  0  0  0
   -5.7683  -10.6532   -3.0018 F   0  0  0  0  0  0  0  0  0  0  0  0
   -2.6270  -12.5535    0.8234 C   0  0  0  0  0  0  0  0  0  0  0  0
   -2.8922  -13.6464   -0.5121 S   0  0  0  0  0  0  0  0  0  0  0  0
   -3.6198   -9.5320    2.7873 C   0  0  0  0  0  0  0  0  0  0  0  0
   -3.0165   -9.0464    3.9133 C   0  0  0  0  0  0  0  0  0  0  0  0
   -1.6819  -10.0697    4.4112 S   0  0  0  0  0  0  0  0  0  0  0  0
   -3.5037   -7.9396    4.6780 C   0  0  0  0  0  0  0  0  0  0  0  0
   -5.2407   -7.7384    4.6121 S   0  0  0  0  0  0  0  0  0  0  0  0
   -5.1958   -6.4159    5.6806 C   0  0  0  0  0  0  0  0  0  0  0  0
   -3.9216   -6.1073    6.0728 C   0  0  0  0  0  0  0  0  0  0  0  0
   -2.9219   -6.9739    5.5024 C   0  0  0  0  0  0  0  0  0  0  0  0
   -1.5479   -6.7679    5.7909 C   0  0  0  0  0  0  0  0  0  0  0  0
   -0.9394   -5.3753    6.5361 S   0  0  0  0  0  4  0  0  0  0  0  0
   -0.7687   -3.8651    5.5493 O   0  0  0  0  0  0  0  0  0  0  0  0
    0.5195   -3.3712    5.3731 C   0  0  0  0  0  0  0  0  0  0  0  0
   -2.3780   -4.6726    7.2822 C   0  0  0  0  0  0  0  0  0  0  0  0
   -3.6288   -5.0508    6.9841 C   0  0  0  0  0  0  0  0  0  0  0  0
   -1.9770   -3.7177    8.1514 O   0  0  0  0  0  0  0  0  0  0  0  0
   -2.9683   -2.8915    8.7242 C   0  0  0  0  0  0  0  0  0  0  0  0
   -0.4600   -7.6210    5.2772 C   0  0  0  0  0  0  0  0  0  0  0  0
    0.2908   -7.3662    4.1970 C   0  0  0  0  0  0  0  0  0  0  0  0
    0.1188   -6.2472    3.3121 C   0  0  0  0  0  0  0  0  0  0  0  0
   -0.9440   -5.4099    3.1820 C   0  0  0  0  0  0  0  0  0  0  0  0
   -0.6874   -4.2791    2.3705 C   0  0  0  0  0  0  0  0  0  0  0  0
   -1.5103   -3.1537    2.2226 C   0  0  0  0  0  0  0  0  0  0  0  0
   -2.7833   -3.0942    2.9548 C   0  0  0  0  0  0  0  0  0  0  0  0
   -3.7790   -4.0477    2.7592 C   0  0  0  0  0  0  0  0  0  0  0  0
   -4.9318   -4.0237    3.5159 C   0  0  0  0  0  0  0  0  0  0  0  0
   -5.1123   -3.0720    4.5145 C   0  0  0  0  0  0  0  0  0  0  0  0
   -6.5788   -3.1640    5.5077 S   0  0  0  0  0  0  0  0  0  0  0  0
   -7.1668   -1.4235    5.5754 C   0  0  0  0  0  0  0  0  0  0  0  0
   -7.0533   -0.8306    6.9657 C   0  0  0  0  0  0  0  0  0  0  0  0
   -4.1016   -2.1391    4.7100 C   0  0  0  0  0  0  0  0  0  0  0  0
   -4.2040   -1.2217    5.7000 F   0  0  0  0  0  0  0  0  0  0  0  0
   -2.9638   -2.1227    3.9315 C   0  0  0  0  0  0  0  0  0  0  0  0
   -0.9988   -2.1021    1.4846 C   0  0  0  0  0  0  0  0  0  0  0  0
    0.2725   -2.1490    0.8562 C   0  0  0  0  0  0  0  0  0  0  0  0
    1.1023   -3.2730    1.0174 C   0  0  0  0  0  0  0  0  0  0  0  0
    2.4270   -3.3376    0.3875 C   0  0  0  0  0  0  0  0  0  0  0  0
    2.5805   -3.0907   -0.9764 C   0  0  0  0  0  0  0  0  0  0  0  0
    3.8201   -3.1823   -1.5724 C   0  0  0  0  0  0  0  0  0  0  0  0
    4.9545   -3.5107   -0.8336 C   0  0  0  0  0  0  0  0  0  0  0  0
    6.5045   -3.5731   -1.6863 S   0  0  0  0  0  0  0  0  0  0  0  0
    7.2879   -5.0896   -1.0212 C   0  0  0  0  0  0  0  0  0  0  0  0
    6.4212   -6.3147   -1.2328 C   0  0  0  0  0  0  0  0  0  0  0  0
    4.7919   -3.7222    0.5318 C   0  0  0  0  0  0  0  0  0  0  0  0
    3.5539   -3.6563    1.1375 C   0  0  0  0  0  0  0  0  0  0  0  0
    5.8558   -3.9948    1.3199 F   0  0  0  0  0  0  0  0  0  0  0  0
    0.6124   -4.3000    1.8106 C   0  0  0  0  0  0  0  0  0  0  0  0
    1.4697   -5.7376    2.3042 S   0  0  0  0  0  0  0  0  0  0  0  0
    0.5703   -0.9359    0.1873 C   0  0  0  0  0  0  0  0  0  0  0  0
   -0.4202   -0.0000    0.2777 C   0  0  0  0  0  0  0  0  0  0  0  0
   -1.7934   -0.5766    1.2022 S   0  0  0  0  0  0  0  0  0  0  0  0
   -0.4149    1.3211   -0.2607 C   0  0  0  0  0  0  0  0  0  0  0  0
    0.5699    1.9117   -1.0007 C   0  0  0  0  0  0  0  0  0  0  0  0
    0.2828    3.2482   -1.3651 C   0  0  0  0  0  0  0  0  0  0  0  0
    1.1049    4.1477   -2.0689 C   0  0  0  0  0  0  0  0  0  0  0  0
    2.3481    3.7295   -2.7228 C   0  0  0  0  0  0  0  0  0  0  0  0
    3.5082    4.4955   -2.6393 C   0  0  0  0  0  0  0  0  0  0  0  0
    4.6345    4.1647   -3.3653 C   0  0  0  0  0  0  0  0  0  0  0  0
    4.6415    3.0595   -4.2081 C   0  0  0  0  0  0  0  0  0  0  0  0
    6.0126    2.5953   -5.2179 S   0  0  0  0  0  0  0  0  0  0  0  0
    6.7770    4.2076   -5.6198 C   0  0  0  0  0  0  0  0  0  0  0  0
    5.8300    5.1245   -6.3699 C   0  0  0  0  0  0  0  0  0  0  0  0
    3.4931    2.2694   -4.2423 C   0  0  0  0  0  0  0  0  0  0  0  0
    3.4696    1.1705   -5.0221 F   0  0  0  0  0  0  0  0  0  0  0  0
    2.3622    2.5884   -3.5239 C   0  0  0  0  0  0  0  0  0  0  0  0
    0.6399    5.4463   -2.1885 C   0  0  0  0  0  0  0  0  0  0  0  0
   -0.6328    5.8705   -1.7287 C   0  0  0  0  0  0  0  0  0  0  0  0
   -1.4612    4.9655   -1.0383 C   0  0  0  0  0  0  0  0  0  0  0  0
   -2.7606    5.3792   -0.4984 C   0  0  0  0  0  0  0  0  0  0  0  0
   -2.8792    6.5413    0.2595 C   0  0  0  0  0  0  0  0  0  0  0  0
   -4.0950    6.9354    0.7833 C   0  0  0  0  0  0  0  0  0  0  0  0
   -5.2400    6.1765    0.5718 C   0  0  0  0  0  0  0  0  0  0  0  0
   -6.8566    6.5734    1.1534 S   0  0  0  0  0  0  0  0  0  0  0  0
   -6.5773    7.8755    2.4029 C   0  0  0  0  0  0  0  0  0  0  0  0
   -5.9264    7.3354    3.6622 C   0  0  0  0  0  0  0  0  0  0  0  0
   -5.1077    5.0150   -0.1907 C   0  0  0  0  0  0  0  0  0  0  0  0
   -3.9024    4.6111   -0.7181 C   0  0  0  0  0  0  0  0  0  0  0  0
   -6.2011    4.2613   -0.4265 F   0  0  0  0  0  0  0  0  0  0  0  0
   -0.9730    3.6786   -0.8681 C   0  0  0  0  0  0  0  0  0  0  0  0
   -1.7674    2.4011    0.0153 S   0  0  0  0  0  0  0  0  0  0  0  0
   -0.9074    7.2058   -2.0969 C   0  0  0  0  0  0  0  0  0  0  0  0
    0.1089    7.8266   -2.7791 C   0  0  0  0  0  0  0  0  0  0  0  0
    1.4802    6.7443   -2.9963 S   0  0  0  0  0  0  0  0  0  0  0  0
    0.1833    9.1996   -3.1162 C   0  0  0  0  0  0  0  0  0  0  0  0
   -0.9828   10.2686   -2.3502 S   0  0  0  0  0  0  0  0  0  0  0  0
   -0.1007   11.6504   -2.8172 C   0  0  0  0  0  0  0  0  0  0  0  0
    1.0235   11.3461   -3.5323 C   0  0  0  0  0  0  0  0  0  0  0  0
    1.1738    9.9317   -3.7815 C   0  0  0  0  0  0  0  0  0  0  0  0
    2.1459    9.4340   -4.6963 C   0  0  0  0  0  0  0  0  0  0  0  0
    3.6954   10.1909   -4.3296 S   0  0  0  0  0  4  0  0  0  0  0  0
    4.7832   10.2728   -5.5842 O   0  0  0  0  0  0  0  0  0  0  0  0
    5.8063    9.2995   -5.5827 C   0  0  0  0  0  0  0  0  0  0  0  0
    3.1964   11.9501   -4.3974 C   0  0  0  0  0  0  0  0  0  0  0  0
    1.9624   12.3068   -4.0160 C   0  0  0  0  0  0  0  0  0  0  0  0
    4.1153   12.7836   -4.9311 O   0  0  0  0  0  0  0  0  0  0  0  0
    5.2904   12.9948   -4.1645 C   0  0  0  0  0  0  0  0  0  0  0  0
    1.9586    8.3136   -5.5378 C   0  0  0  0  0  0  0  0  0  0  0  0
    2.5402    7.9691   -6.7210 C   0  0  0  0  0  0  0  0  0  0  0  0
    3.3455    8.7454   -7.5978 C   0  0  0  0  0  0  0  0  0  0  0  0
    4.5488    7.8933   -8.5531 S   0  0  0  0  0  0  0  0  0  0  0  0
    5.2296    9.3613   -9.1082 C   0  0  0  0  0  0  0  0  0  0  0  0
    4.5566   10.4587   -8.6386 C   0  0  0  0  0  0  0  0  0  0  0  0
    3.3967   10.1164   -7.8582 C   0  0  0  0  0  0  0  0  0  0  0  0
    2.4872   11.1061   -7.4088 C   0  0  0  0  0  0  0  0  0  0  0  0
    2.7814   12.7688   -7.5858 S   0  0  0  0  0  4  0  0  0  0  0  0
    2.1863   13.3328   -9.1829 O   0  0  0  0  0  0  0  0  0  0  0  0
    0.8334   13.6523   -9.2825 C   0  0  0  0  0  0  0  0  0  0  0  0
    4.4186   12.8508   -8.2274 C   0  0  0  0  0  0  0  0  0  0  0  0
    5.0460   11.7935   -8.7634 C   0  0  0  0  0  0  0  0  0  0  0  0
    4.8518   14.1344   -8.1358 O   0  0  0  0  0  0  0  0  0  0  0  0
    6.0964   14.4488   -8.7161 C   0  0  0  0  0  0  0  0  0  0  0  0
    1.1259   10.9066   -6.9577 C   0  0  0  0  0  0  0  0  0  0  0  0
    0.3000    9.9165   -7.2921 C   0  0  0  0  0  0  0  0  0  0  0  0
   -1.2204  -15.4042   -0.6795 H   0  0  0  0  0  0  0  0  0  0  0  0
    0.0392  -14.5233    1.4239 H   0  0  0  0  0  0  0  0  0  0  0  0
    0.9248  -10.6515    3.4998 H   0  0  0  0  0  0  0  0  0  0  0  0
    2.8452  -11.2916    4.8976 H   0  0  0  0  0  0  0  0  0  0  0  0
    3.3490  -16.0014    6.5061 H   0  0  0  0  0  0  0  0  0  0  0  0
    3.8175  -15.6082    4.8319 H   0  0  0  0  0  0  0  0  0  0  0  0
    5.7078  -16.6990    6.0673 H   0  0  0  0  0  0  0  0  0  0  0  0
    5.6536  -15.4098    7.2758 H   0  0  0  0  0  0  0  0  0  0  0  0
    6.1175  -15.0385    5.6139 H   0  0  0  0  0  0  0  0  0  0  0  0
   -0.6037  -14.6350    3.8430 H   0  0  0  0  0  0  0  0  0  0  0  0
   -5.8761  -11.0442    2.1485 H   0  0  0  0  0  0  0  0  0  0  0  0
   -7.9258  -10.5472    0.9504 H   0  0  0  0  0  0  0  0  0  0  0  0
  -10.6018   -9.6083   -1.3987 H   0  0  0  0  0  0  0  0  0  0  0  0
   -9.8057  -10.3880   -0.0256 H   0  0  0  0  0  0  0  0  0  0  0  0
   -9.2897   -7.5389   -1.0530 H   0  0  0  0  0  0  0  0  0  0  0  0
  -10.1563   -7.9459    0.4331 H   0  0  0  0  0  0  0  0  0  0  0  0
   -8.4244   -8.2721    0.2976 H   0  0  0  0  0  0  0  0  0  0  0  0
   -3.7254  -11.1715   -1.5541 H   0  0  0  0  0  0  0  0  0  0  0  0
   -4.4508   -9.0359    2.3183 H   0  0  0  0  0  0  0  0  0  0  0  0
   -6.1005   -5.9150    5.9619 H   0  0  0  0  0  0  0  0  0  0  0  0
    0.8840   -2.8798    6.2823 H   0  0  0  0  0  0  0  0  0  0  0  0
    1.2223   -4.1660    5.0971 H   0  0  0  0  0  0  0  0  0  0  0  0
    0.4827   -2.6415    4.5609 H   0  0  0  0  0  0  0  0  0  0  0  0
   -4.4781   -4.5455    7.4192 H   0  0  0  0  0  0  0  0  0  0  0  0
   -3.5346   -2.3640    7.9529 H   0  0  0  0  0  0  0  0  0  0  0  0
   -2.4319   -2.1716    9.3391 H   0  0  0  0  0  0  0  0  0  0  0  0
   -3.6531   -3.4712    9.3504 H   0  0  0  0  0  0  0  0  0  0  0  0
   -0.2158   -8.4829    5.8848 H   0  0  0  0  0  0  0  0  0  0  0  0
    1.1251   -8.0170    3.9704 H   0  0  0  0  0  0  0  0  0  0  0  0
   -1.8844   -5.5593    3.6745 H   0  0  0  0  0  0  0  0  0  0  0  0
   -3.6533   -4.8019    1.9967 H   0  0  0  0  0  0  0  0  0  0  0  0
   -5.7098   -4.7527    3.3514 H   0  0  0  0  0  0  0  0  0  0  0  0
   -8.2083   -1.4670    5.2556 H   0  0  0  0  0  0  0  0  0  0  0  0
   -6.5927   -0.8596    4.8438 H   0  0  0  0  0  0  0  0  0  0  0  0
   -7.4678    0.1755    6.9668 H   0  0  0  0  0  0  0  0  0  0  0  0
   -7.6040   -1.4357    7.6825 H   0  0  0  0  0  0  0  0  0  0  0  0
   -6.0143   -0.7760    7.2791 H   0  0  0  0  0  0  0  0  0  0  0  0
   -2.2061   -1.3810    4.1276 H   0  0  0  0  0  0  0  0  0  0  0  0
    1.7139   -2.8588   -1.5767 H   0  0  0  0  0  0  0  0  0  0  0  0
    3.9331   -3.0034   -2.6304 H   0  0  0  0  0  0  0  0  0  0  0  0
    7.5253   -4.9349    0.0290 H   0  0  0  0  0  0  0  0  0  0  0  0
    8.2157   -5.1607   -1.5887 H   0  0  0  0  0  0  0  0  0  0  0  0
    6.9550   -7.2030   -0.9009 H   0  0  0  0  0  0  0  0  0  0  0  0
    5.4953   -6.2384   -0.6652 H   0  0  0  0  0  0  0  0  0  0  0  0
    6.1722   -6.4288   -2.2858 H   0  0  0  0  0  0  0  0  0  0  0  0
    3.4880   -3.8249    2.2009 H   0  0  0  0  0  0  0  0  0  0  0  0
    1.5006   -0.7583   -0.3196 H   0  0  0  0  0  0  0  0  0  0  0  0
    1.4900    1.4182   -1.2542 H   0  0  0  0  0  0  0  0  0  0  0  0
    3.5349    5.3550   -1.9876 H   0  0  0  0  0  0  0  0  0  0  0  0
    5.5176    4.7770   -3.2735 H   0  0  0  0  0  0  0  0  0  0  0  0
    7.6275    3.9321   -6.2428 H   0  0  0  0  0  0  0  0  0  0  0  0
    7.1513    4.6615   -4.7026 H   0  0  0  0  0  0  0  0  0  0  0  0
    6.3500    6.0329   -6.6683 H   0  0  0  0  0  0  0  0  0  0  0  0
    4.9766    5.3971   -5.7514 H   0  0  0  0  0  0  0  0  0  0  0  0
    5.4594    4.6327   -7.2657 H   0  0  0  0  0  0  0  0  0  0  0  0
    1.4834    1.9715   -3.6284 H   0  0  0  0  0  0  0  0  0  0  0  0
   -2.0019    7.1377    0.4594 H   0  0  0  0  0  0  0  0  0  0  0  0
   -4.1407    7.8469    1.3569 H   0  0  0  0  0  0  0  0  0  0  0  0
   -7.5812    8.2445    2.6134 H   0  0  0  0  0  0  0  0  0  0  0  0
   -6.0021    8.6804    1.9472 H   0  0  0  0  0  0  0  0  0  0  0  0
   -4.9471    6.9137    3.4462 H   0  0  0  0  0  0  0  0  0  0  0  0
   -6.5457    6.5548    4.0978 H   0  0  0  0  0  0  0  0  0  0  0  0
   -5.8088    8.1349    4.3915 H   0  0  0  0  0  0  0  0  0  0  0  0
   -3.8660    3.7108   -1.3106 H   0  0  0  0  0  0  0  0  0  0  0  0
   -1.8382    7.7004   -1.8841 H   0  0  0  0  0  0  0  0  0  0  0  0
   -0.4430   12.6248   -2.5295 H   0  0  0  0  0  0  0  0  0  0  0  0
    6.4505    9.5485   -6.4247 H   0  0  0  0  0  0  0  0  0  0  0  0
    6.3837    9.3302   -4.6541 H   0  0  0  0  0  0  0  0  0  0  0  0
    5.3973    8.2966   -5.7225 H   0  0  0  0  0  0  0  0  0  0  0  0
    1.6697   13.3441   -4.0861 H   0  0  0  0  0  0  0  0  0  0  0  0
    5.8964   13.6911   -4.7397 H   0  0  0  0  0  0  0  0  0  0  0  0
    5.0479   13.4319   -3.1911 H   0  0  0  0  0  0  0  0  0  0  0  0
    5.8442   12.0641   -4.0145 H   0  0  0  0  0  0  0  0  0  0  0  0
    1.1587    7.6547   -5.2274 H   0  0  0  0  0  0  0  0  0  0  0  0
    2.3265    6.9682   -7.0789 H   0  0  0  0  0  0  0  0  0  0  0  0
    6.1054    9.3430   -9.7261 H   0  0  0  0  0  0  0  0  0  0  0  0
    0.6606   13.9834  -10.3077 H   0  0  0  0  0  0  0  0  0  0  0  0
    0.2022   12.7798   -9.0773 H   0  0  0  0  0  0  0  0  0  0  0  0
    0.5592   14.4609   -8.5952 H   0  0  0  0  0  0  0  0  0  0  0  0
    6.0003   11.9142   -9.2563 H   0  0  0  0  0  0  0  0  0  0  0  0
    6.2481   15.5109   -8.5335 H   0  0  0  0  0  0  0  0  0  0  0  0
    6.9073   13.8765   -8.2528 H   0  0  0  0  0  0  0  0  0  0  0  0
    6.0897   14.2611   -9.7938 H   0  0  0  0  0  0  0  0  0  0  0  0
    0.7414   11.7314   -6.3640 H   0  0  0  0  0  0  0  0  0  0  0  0
    0.5966    9.1163   -7.9444 H   0  0  0  0  0  0  0  0  0  0  0  0
   -0.7107    9.8912   -6.9245 H   0  0  0  0  0  0  0  0  0  0  0  0
  1  2  2  0  0  0  0
  2  3  1  0  0  0  0
  3  4  2  0  0  0  0
  4  5  1  0  0  0  0
  5  6  2  0  0  0  0
  6  7  1  0  0  0  0
  7  8  2  0  0  0  0
  8  9  1  0  0  0  0
  9 10  1  0  0  0  0
 10 11  1  0  0  0  0
  8 12  1  0  0  0  0
 12 13  1  0  0  0  0
 12 14  2  0  0  0  0
  4 15  1  0  0  0  0
 15 16  2  0  0  0  0
 16 17  1  0  0  0  0
 17 18  1  0  0  0  0
 18 19  2  0  0  0  0
 19 20  1  0  0  0  0
 20 21  2  0  0  0  0
 21 22  1  0  0  0  0
 22 23  1  0  0  0  0
 23 24  1  0  0  0  0
 21 25  1  0  0  0  0
 25 26  2  0  0  0  0
 25 27  1  0  0  0  0
 17 28  2  0  0  0  0
 28 29  1  0  0  0  0
 16 30  1  0  0  0  0
 30 31  2  0  0  0  0
 31 32  1  0  0  0  0
 31 33  1  0  0  0  0
 33 34  1  0  0  0  0
 34 35  1  0  0  0  0
 35 36  2  0  0  0  0
 36 37  1  0  0  0  0
 37 38  1  0  0  0  0
 38 39  2  0  0  0  0
 39 40  1  0  0  0  0
 40 41  1  0  0  0  0
 39 42  1  0  0  0  0
 42 43  2  0  0  0  0
 42 44  1  0  0  0  0
 44 45  1  0  0  0  0
 38 46  1  0  0  0  0
 46 47  2  0  0  0  0
 47 48  1  0  0  0  0
 48 49  2  0  0  0  0
 49 50  1  0  0  0  0
 50 51  2  0  0  0  0
 51 52  1  0  0  0  0
 52 53  2  0  0  0  0
 53 54  1  0  0  0  0
 54 55  2  0  0  0  0
 55 56  1  0  0  0  0
 56 57  1  0  0  0  0
 57 58  1  0  0  0  0
 55 59  1  0  0  0  0
 59 60  1  0  0  0  0
 59 61  2  0  0  0  0
 51 62  1  0  0  0  0
 62 63  2  0  0  0  0
 63 64  1  0  0  0  0
 64 65  1  0  0  0  0
 65 66  2  0  0  0  0
 66 67  1  0  0  0  0
 67 68  2  0  0  0  0
 68 69  1  0  0  0  0
 69 70  1  0  0  0  0
 70 71  1  0  0  0  0
 68 72  1  0  0  0  0
 72 73  2  0  0  0  0
 72 74  1  0  0  0  0
 64 75  2  0  0  0  0
 75 76  1  0  0  0  0
 63 77  1  0  0  0  0
 77 78  2  0  0  0  0
 78 79  1  0  0  0  0
 78 80  1  0  0  0  0
 80 81  2  0  0  0  0
 81 82  1  0  0  0  0
 82 83  2  0  0  0  0
 83 84  1  0  0  0  0
 84 85  2  0  0  0  0
 85 86  1  0  0  0  0
 86 87  2  0  0  0  0
 87 88  1  0  0  0  0
 88 89  1  0  0  0  0
 89 90  1  0  0  0  0
 87 91  1  0  0  0  0
 91 92  1  0  0  0  0
 91 93  2  0  0  0  0
 83 94  1  0  0  0  0
 94 95  2  0  0  0  0
 95 96  1  0  0  0  0
 96 97  1  0  0  0  0
 97 98  2  0  0  0  0
 98 99  1  0  0  0  0
 99100  2  0  0  0  0
100101  1  0  0  0  0
101102  1  0  0  0  0
102103  1  0  0  0  0
100104  1  0  0  0  0
104105  2  0  0  0  0
104106  1  0  0  0  0
 96107  2  0  0  0  0
107108  1  0  0  0  0
 95109  1  0  0  0  0
109110  2  0  0  0  0
110111  1  0  0  0  0
110112  1  0  0  0  0
112113  1  0  0  0  0
113114  1  0  0  0  0
114115  2  0  0  0  0
115116  1  0  0  0  0
116117  1  0  0  0  0
117118  2  0  0  0  0
118119  1  0  0  0  0
119120  1  0  0  0  0
118121  1  0  0  0  0
121122  2  0  0  0  0
121123  1  0  0  0  0
123124  1  0  0  0  0
117125  1  0  0  0  0
125126  2  0  0  0  0
126127  1  0  0  0  0
127128  1  0  0  0  0
128129  1  0  0  0  0
129130  2  0  0  0  0
130131  1  0  0  0  0
131132  1  0  0  0  0
132133  2  0  0  0  0
133134  1  0  0  0  0
134135  1  0  0  0  0
133136  1  0  0  0  0
136137  2  0  0  0  0
136138  1  0  0  0  0
138139  1  0  0  0  0
132140  1  0  0  0  0
140141  2  0  0  0  0
 29  1  1  0  0  0  0
 37 33  2  0  0  0  0
 76 48  1  0  0  0  0
108 80  1  0  0  0  0
116112  2  0  0  0  0
131127  2  0  0  0  0
 28  3  1  0  0  0  0
 43 36  1  0  0  0  0
 75 50  1  0  0  0  0
107 82  1  0  0  0  0
122115  1  0  0  0  0
137130  1  0  0  0  0
 14  5  1  0  0  0  0
 32 15  1  0  0  0  0
 61 52  1  0  0  0  0
 79 62  1  0  0  0  0
 93 84  1  0  0  0  0
111 94  1  0  0  0  0
 26 18  1  0  0  0  0
 73 65  1  0  0  0  0
105 97  1  0  0  0  0
  1142  1  0  0  0  0
  2143  1  0  0  0  0
  6144  1  0  0  0  0
  7145  1  0  0  0  0
 10146  1  0  0  0  0
 10147  1  0  0  0  0
 11148  1  0  0  0  0
 11149  1  0  0  0  0
 11150  1  0  0  0  0
 14151  1  0  0  0  0
 19152  1  0  0  0  0
 20153  1  0  0  0  0
 23154  1  0  0  0  0
 23155  1  0  0  0  0
 24156  1  0  0  0  0
 24157  1  0  0  0  0
 24158  1  0  0  0  0
 26159  1  0  0  0  0
 30160  1  0  0  0  0
 35161  1  0  0  0  0
 41162  1  0  0  0  0
 41163  1  0  0  0  0
 41164  1  0  0  0  0
 43165  1  0  0  0  0
 45166  1  0  0  0  0
 45167  1  0  0  0  0
 45168  1  0  0  0  0
 46169  1  0  0  0  0
 47170  1  0  0  0  0
 49171  1  0  0  0  0
 53172  1  0  0  0  0
 54173  1  0  0  0  0
 57174  1  0  0  0  0
 57175  1  0  0  0  0
 58176  1  0  0  0  0
 58177  1  0  0  0  0
 58178  1  0  0  0  0
 61179  1  0  0  0  0
 66180  1  0  0  0  0
 67181  1  0  0  0  0
 70182  1  0  0  0  0
 70183  1  0  0  0  0
 71184  1  0  0  0  0
 71185  1  0  0  0  0
 71186  1  0  0  0  0
 73187  1  0  0  0  0
 77188  1  0  0  0  0
 81189  1  0  0  0  0
 85190  1  0  0  0  0
 86191  1  0  0  0  0
 89192  1  0  0  0  0
 89193  1  0  0  0  0
 90194  1  0  0  0  0
 90195  1  0  0  0  0
 90196  1  0  0  0  0
 93197  1  0  0  0  0
 98198  1  0  0  0  0
 99199  1  0  0  0  0
102200  1  0  0  0  0
102201  1  0  0  0  0
103202  1  0  0  0  0
103203  1  0  0  0  0
103204  1  0  0  0  0
105205  1  0  0  0  0
109206  1  0  0  0  0
114207  1  0  0  0  0
120208  1  0  0  0  0
120209  1  0  0  0  0
120210  1  0  0  0  0
122211  1  0  0  0  0
124212  1  0  0  0  0
124213  1  0  0  0  0
124214  1  0  0  0  0
125215  1  0  0  0  0
126216  1  0  0  0  0
129217  1  0  0  0  0
135218  1  0  0  0  0
135219  1  0  0  0  0
135220  1  0  0  0  0
137221  1  0  0  0  0
139222  1  0  0  0  0
139223  1  0  0  0  0
139224  1  0  0  0  0
140225  1  0  0  0  0
141226  1  0  0  0  0
141227  1  0  0  0  0
M  END
