
  xtb     03042217483D
 energy: -403.918133434449 gnorm: 0.000289441880 xtb: 6.4.1 (unknown)
230253  0     0  0            999 V2000
   -1.4649   -3.7299   14.2700 C   0  0  0  0  0  0  0  0  0  0  0  0
   -1.0969   -2.8636   13.3049 C   0  0  0  0  0  0  0  0  0  0  0  0
   -1.5431   -3.2536   12.0065 C   0  0  0  0  0  0  0  0  0  0  0  0
   -1.3700   -2.5724   10.7911 C   0  0  0  0  0  0  0  0  0  0  0  0
   -0.5742   -1.3426   10.6965 C   0  0  0  0  0  0  0  0  0  0  0  0
    0.7170   -1.2802   11.2195 C   0  0  0  0  0  0  0  0  0  0  0  0
    1.4747   -0.1376   11.0836 C   0  0  0  0  0  0  0  0  0  0  0  0
    0.9774    0.9921   10.4338 C   0  0  0  0  0  0  0  0  0  0  0  0
    2.0316    2.4041   10.3465 S   0  0  0  0  0  0  0  0  0  0  0  0
    1.5764    3.1953    8.7506 C   0  0  0  0  0  0  0  0  0  0  0  0
    2.7528    4.0142    8.2575 C   0  0  0  0  0  0  0  0  0  0  0  0
   -0.3236    0.9251    9.9440 C   0  0  0  0  0  0  0  0  0  0  0  0
   -0.8970    1.9945    9.3464 F   0  0  0  0  0  0  0  0  0  0  0  0
   -1.0853   -0.2202   10.0541 C   0  0  0  0  0  0  0  0  0  0  0  0
   -1.9718   -3.1322    9.6732 C   0  0  0  0  0  0  0  0  0  0  0  0
   -2.7063   -4.3408    9.7248 C   0  0  0  0  0  0  0  0  0  0  0  0
   -2.8834   -5.0231   10.9391 C   0  0  0  0  0  0  0  0  0  0  0  0
   -3.6635   -6.2662   10.9602 C   0  0  0  0  0  0  0  0  0  0  0  0
   -3.1606   -7.4398   11.5178 C   0  0  0  0  0  0  0  0  0  0  0  0
   -3.8517   -8.6272   11.3942 C   0  0  0  0  0  0  0  0  0  0  0  0
   -5.0712   -8.6888   10.7231 C   0  0  0  0  0  0  0  0  0  0  0  0
   -5.8583  -10.2595   10.5404 S   0  0  0  0  0  0  0  0  0  0  0  0
   -6.5388  -10.1615    8.8312 C   0  0  0  0  0  0  0  0  0  0  0  0
   -6.5506  -11.5476    8.2181 C   0  0  0  0  0  0  0  0  0  0  0  0
   -5.6029   -7.4931   10.2488 C   0  0  0  0  0  0  0  0  0  0  0  0
   -4.9152   -6.3029   10.3497 C   0  0  0  0  0  0  0  0  0  0  0  0
   -6.8196   -7.4656    9.6569 F   0  0  0  0  0  0  0  0  0  0  0  0
   -2.2834   -4.4610   12.0553 C   0  0  0  0  0  0  0  0  0  0  0  0
   -2.3779   -5.0784   13.6837 S   0  0  0  0  0  0  0  0  0  0  0  0
   -3.1587   -4.7360    8.4431 C   0  0  0  0  0  0  0  0  0  0  0  0
   -2.8235   -3.8702    7.4471 C   0  0  0  0  0  0  0  0  0  0  0  0
   -1.8939   -2.5086    8.0404 S   0  0  0  0  0  0  0  0  0  0  0  0
   -3.2089   -4.0030    6.0811 C   0  0  0  0  0  0  0  0  0  0  0  0
   -2.9148   -3.2227    5.0046 C   0  0  0  0  0  0  0  0  0  0  0  0
   -3.5340   -3.6616    3.8048 C   0  0  0  0  0  0  0  0  0  0  0  0
   -3.4282   -3.1179    2.5161 C   0  0  0  0  0  0  0  0  0  0  0  0
   -2.6487   -1.9144    2.2020 C   0  0  0  0  0  0  0  0  0  0  0  0
   -2.8302   -0.7193    2.8892 C   0  0  0  0  0  0  0  0  0  0  0  0
   -2.1565    0.4287    2.5159 C   0  0  0  0  0  0  0  0  0  0  0  0
   -1.2743    0.4233    1.4406 C   0  0  0  0  0  0  0  0  0  0  0  0
   -0.3620    1.8014    0.8453 S   0  0  0  0  0  0  0  0  0  0  0  0
   -1.0379    3.2290    1.7559 C   0  0  0  0  0  0  0  0  0  0  0  0
   -2.4081    3.6355    1.2486 C   0  0  0  0  0  0  0  0  0  0  0  0
   -1.0769   -0.7928    0.7833 C   0  0  0  0  0  0  0  0  0  0  0  0
   -0.2040   -0.8500   -0.2457 F   0  0  0  0  0  0  0  0  0  0  0  0
   -1.7417   -1.9409    1.1426 C   0  0  0  0  0  0  0  0  0  0  0  0
   -4.1175   -3.7769    1.5102 C   0  0  0  0  0  0  0  0  0  0  0  0
   -4.8880   -4.9503    1.7026 C   0  0  0  0  0  0  0  0  0  0  0  0
   -4.9941   -5.4934    2.9925 C   0  0  0  0  0  0  0  0  0  0  0  0
   -5.7620   -6.7084    3.2922 C   0  0  0  0  0  0  0  0  0  0  0  0
   -6.6698   -6.7204    4.3480 C   0  0  0  0  0  0  0  0  0  0  0  0
   -7.3385   -7.8732    4.7083 C   0  0  0  0  0  0  0  0  0  0  0  0
   -7.1289   -9.0600    4.0166 C   0  0  0  0  0  0  0  0  0  0  0  0
   -7.8603  -10.6129    4.4174 S   0  0  0  0  0  0  0  0  0  0  0  0
   -9.2406  -10.1838    5.5355 C   0  0  0  0  0  0  0  0  0  0  0  0
  -10.3716   -9.4810    4.8094 C   0  0  0  0  0  0  0  0  0  0  0  0
   -6.2352   -9.0290    2.9440 C   0  0  0  0  0  0  0  0  0  0  0  0
   -5.5593   -7.8864    2.5765 C   0  0  0  0  0  0  0  0  0  0  0  0
   -6.0107  -10.1616    2.2479 F   0  0  0  0  0  0  0  0  0  0  0  0
   -4.3196   -4.8242    4.0042 C   0  0  0  0  0  0  0  0  0  0  0  0
   -4.2714   -5.3375    5.6670 S   0  0  0  0  0  0  0  0  0  0  0  0
   -5.5005   -5.3902    0.4992 C   0  0  0  0  0  0  0  0  0  0  0  0
   -5.2296   -4.5857   -0.5676 C   0  0  0  0  0  0  0  0  0  0  0  0
   -4.1953   -3.2365   -0.1413 S   0  0  0  0  0  0  0  0  0  0  0  0
   -5.6041   -4.6972   -1.9352 C   0  0  0  0  0  0  0  0  0  0  0  0
   -5.3206   -3.3351   -2.9847 S   0  0  0  0  0  0  0  0  0  0  0  0
   -5.8091   -4.2194   -4.4036 C   0  0  0  0  0  0  0  0  0  0  0  0
   -6.1996   -5.4886   -4.0375 C   0  0  0  0  0  0  0  0  0  0  0  0
   -6.0911   -5.7598   -2.6555 C   0  0  0  0  0  0  0  0  0  0  0  0
   -6.5025   -7.3705   -2.1140 S   0  0  0  0  0  0  0  0  0  0  0  0
   -7.3183   -7.8331   -3.6809 C   0  0  0  0  0  0  0  0  0  0  0  0
   -6.7337   -6.7990   -5.0668 S   0  0  0  0  0  0  0  0  0  0  0  0
   -5.8680   -3.6610   -5.7137 C   0  0  0  0  0  0  0  0  0  0  0  0
   -5.5501   -2.4094   -6.0914 C   0  0  0  0  0  0  0  0  0  0  0  0
   -4.9792   -1.3775   -5.2574 C   0  0  0  0  0  0  0  0  0  0  0  0
   -5.8034    0.1651   -5.1137 S   0  0  0  0  0  0  0  0  0  0  0  0
   -4.5856    0.8058   -4.0268 C   0  0  0  0  0  0  0  0  0  0  0  0
   -3.5965   -0.1282   -3.8444 C   0  0  0  0  0  0  0  0  0  0  0  0
   -3.8198   -1.3486   -4.5351 C   0  0  0  0  0  0  0  0  0  0  0  0
   -2.5655   -2.5653   -4.3864 S   0  0  0  0  0  0  0  0  0  0  0  0
   -1.9125   -1.8372   -2.8501 C   0  0  0  0  0  0  0  0  0  0  0  0
   -2.1535   -0.0300   -2.8668 S   0  0  0  0  0  0  0  0  0  0  0  0
   -4.7898    2.0679   -3.3806 C   0  0  0  0  0  0  0  0  0  0  0  0
   -3.8435    2.9377   -2.9702 C   0  0  0  0  0  0  0  0  0  0  0  0
   -2.4664    2.9226   -3.3579 C   0  0  0  0  0  0  0  0  0  0  0  0
   -1.9308    2.4018   -4.5001 C   0  0  0  0  0  0  0  0  0  0  0  0
   -0.5404    2.6204   -4.6442 C   0  0  0  0  0  0  0  0  0  0  0  0
    0.2697    2.2548   -5.7332 C   0  0  0  0  0  0  0  0  0  0  0  0
   -0.3019    1.5030   -6.8565 C   0  0  0  0  0  0  0  0  0  0  0  0
   -0.1462    1.9359   -8.1716 C   0  0  0  0  0  0  0  0  0  0  0  0
   -0.7766    1.2772   -9.2059 C   0  0  0  0  0  0  0  0  0  0  0  0
   -1.5697    0.1559   -8.9737 C   0  0  0  0  0  0  0  0  0  0  0  0
   -2.3511   -0.6001  -10.3687 S   0  0  0  0  0  0  0  0  0  0  0  0
   -4.0005   -1.0933   -9.7403 C   0  0  0  0  0  0  0  0  0  0  0  0
   -4.7569    0.0737   -9.1368 C   0  0  0  0  0  0  0  0  0  0  0  0
   -1.6584   -0.3071   -7.6643 C   0  0  0  0  0  0  0  0  0  0  0  0
   -2.3605   -1.4256   -7.3786 F   0  0  0  0  0  0  0  0  0  0  0  0
   -1.0531    0.3553   -6.6172 C   0  0  0  0  0  0  0  0  0  0  0  0
    1.5925    2.6648   -5.6848 C   0  0  0  0  0  0  0  0  0  0  0  0
    2.1253    3.3873   -4.5887 C   0  0  0  0  0  0  0  0  0  0  0  0
    1.3128    3.7642   -3.5051 C   0  0  0  0  0  0  0  0  0  0  0  0
    1.8598    4.5862   -2.4192 C   0  0  0  0  0  0  0  0  0  0  0  0
    2.5710    5.7480   -2.7115 C   0  0  0  0  0  0  0  0  0  0  0  0
    3.1256    6.5234   -1.7127 C   0  0  0  0  0  0  0  0  0  0  0  0
    2.9754    6.1694   -0.3774 C   0  0  0  0  0  0  0  0  0  0  0  0
    3.6537    7.0477    0.9936 S   0  0  0  0  0  0  0  0  0  0  0  0
    4.1747    8.6492    0.2886 C   0  0  0  0  0  0  0  0  0  0  0  0
    2.9930    9.5350   -0.0570 C   0  0  0  0  0  0  0  0  0  0  0  0
    2.2490    5.0106   -0.0994 C   0  0  0  0  0  0  0  0  0  0  0  0
    1.6947    4.2244   -1.0847 C   0  0  0  0  0  0  0  0  0  0  0  0
    2.0870    4.6420    1.1909 F   0  0  0  0  0  0  0  0  0  0  0  0
   -0.0095    3.3572   -3.5563 C   0  0  0  0  0  0  0  0  0  0  0  0
   -1.2489    3.7389   -2.3937 S   0  0  0  0  0  0  0  0  0  0  0  0
    3.5079    3.6375   -4.7472 C   0  0  0  0  0  0  0  0  0  0  0  0
    4.0230    3.1708   -5.9214 C   0  0  0  0  0  0  0  0  0  0  0  0
    2.8151    2.3599   -6.8944 S   0  0  0  0  0  0  0  0  0  0  0  0
    5.3728    3.3553   -6.3524 C   0  0  0  0  0  0  0  0  0  0  0  0
    6.3842    3.8406   -5.5769 C   0  0  0  0  0  0  0  0  0  0  0  0
    7.6030    4.0223   -6.2730 C   0  0  0  0  0  0  0  0  0  0  0  0
    8.8036    4.5481   -5.7688 C   0  0  0  0  0  0  0  0  0  0  0  0
    8.8712    5.0257   -4.3823 C   0  0  0  0  0  0  0  0  0  0  0  0
    9.8721    4.6030   -3.5104 C   0  0  0  0  0  0  0  0  0  0  0  0
    9.8563    4.9867   -2.1860 C   0  0  0  0  0  0  0  0  0  0  0  0
    8.8555    5.8132   -1.6793 C   0  0  0  0  0  0  0  0  0  0  0  0
    8.9194    6.2232    0.0406 S   0  0  0  0  0  0  0  0  0  0  0  0
    7.1708    6.1036    0.5745 C   0  0  0  0  0  0  0  0  0  0  0  0
    6.5593    4.7532    0.2642 C   0  0  0  0  0  0  0  0  0  0  0  0
    7.9009    6.2817   -2.5765 C   0  0  0  0  0  0  0  0  0  0  0  0
    6.9290    7.1370   -2.1753 F   0  0  0  0  0  0  0  0  0  0  0  0
    7.8934    5.8926   -3.8995 C   0  0  0  0  0  0  0  0  0  0  0  0
    9.8771    4.5858   -6.6458 C   0  0  0  0  0  0  0  0  0  0  0  0
    9.7818    4.1731   -7.9978 C   0  0  0  0  0  0  0  0  0  0  0  0
    8.5688    3.6874   -8.5102 C   0  0  0  0  0  0  0  0  0  0  0  0
    8.4203    3.3149   -9.9227 C   0  0  0  0  0  0  0  0  0  0  0  0
    7.8653    2.0914  -10.2930 C   0  0  0  0  0  0  0  0  0  0  0  0
    7.7291    1.7571  -11.6229 C   0  0  0  0  0  0  0  0  0  0  0  0
    8.1200    2.6300  -12.6374 C   0  0  0  0  0  0  0  0  0  0  0  0
    7.8377    2.1022  -14.3008 S   0  0  0  0  0  0  0  0  0  0  0  0
    9.2663    2.7536  -15.2432 C   0  0  0  0  0  0  0  0  0  0  0  0
   10.5870    2.2515  -14.6956 C   0  0  0  0  0  0  0  0  0  0  0  0
    8.6407    3.8617  -12.2520 C   0  0  0  0  0  0  0  0  0  0  0  0
    8.8079    4.1990  -10.9243 C   0  0  0  0  0  0  0  0  0  0  0  0
    9.0007    4.7853  -13.1723 F   0  0  0  0  0  0  0  0  0  0  0  0
    7.5061    3.6034   -7.6219 C   0  0  0  0  0  0  0  0  0  0  0  0
    5.8916    3.0512   -7.9964 S   0  0  0  0  0  0  0  0  0  0  0  0
   11.0304    4.3150   -8.6749 C   0  0  0  0  0  0  0  0  0  0  0  0
   11.9991    4.8299   -7.8918 C   0  0  0  0  0  0  0  0  0  0  0  0
   11.4774    5.1753   -6.2780 S   0  0  0  0  0  0  0  0  0  0  0  0
   -1.2600   -3.6707   15.3211 H   0  0  0  0  0  0  0  0  0  0  0  0
   -0.5439   -1.9613   13.4925 H   0  0  0  0  0  0  0  0  0  0  0  0
    1.1390   -2.1476   11.7038 H   0  0  0  0  0  0  0  0  0  0  0  0
    2.4792   -0.0983   11.4755 H   0  0  0  0  0  0  0  0  0  0  0  0
    0.7006    3.8216    8.9140 H   0  0  0  0  0  0  0  0  0  0  0  0
    1.3345    2.3945    8.0535 H   0  0  0  0  0  0  0  0  0  0  0  0
    3.6260    3.3815    8.1146 H   0  0  0  0  0  0  0  0  0  0  0  0
    2.5012    4.4826    7.3084 H   0  0  0  0  0  0  0  0  0  0  0  0
    3.0042    4.7918    8.9751 H   0  0  0  0  0  0  0  0  0  0  0  0
   -2.0895   -0.2118    9.6601 H   0  0  0  0  0  0  0  0  0  0  0  0
   -2.2013   -7.4289   12.0114 H   0  0  0  0  0  0  0  0  0  0  0  0
   -3.4435   -9.5408   11.7970 H   0  0  0  0  0  0  0  0  0  0  0  0
   -7.5433   -9.7437    8.8902 H   0  0  0  0  0  0  0  0  0  0  0  0
   -5.8916   -9.4907    8.2677 H   0  0  0  0  0  0  0  0  0  0  0  0
   -7.2032  -12.2102    8.7819 H   0  0  0  0  0  0  0  0  0  0  0  0
   -6.9048  -11.4958    7.1905 H   0  0  0  0  0  0  0  0  0  0  0  0
   -5.5486  -11.9702    8.2168 H   0  0  0  0  0  0  0  0  0  0  0  0
   -5.3718   -5.4043    9.9645 H   0  0  0  0  0  0  0  0  0  0  0  0
   -3.7018   -5.6441    8.2541 H   0  0  0  0  0  0  0  0  0  0  0  0
   -2.2661   -2.3669    5.0630 H   0  0  0  0  0  0  0  0  0  0  0  0
   -3.5307   -0.6770    3.7097 H   0  0  0  0  0  0  0  0  0  0  0  0
   -2.3310    1.3343    3.0736 H   0  0  0  0  0  0  0  0  0  0  0  0
   -1.0337    2.9921    2.8188 H   0  0  0  0  0  0  0  0  0  0  0  0
   -0.3086    4.0176    1.5784 H   0  0  0  0  0  0  0  0  0  0  0  0
   -2.7663    4.4988    1.8062 H   0  0  0  0  0  0  0  0  0  0  0  0
   -2.3503    3.8994    0.1952 H   0  0  0  0  0  0  0  0  0  0  0  0
   -3.1262    2.8254    1.3596 H   0  0  0  0  0  0  0  0  0  0  0  0
   -1.5365   -2.8551    0.6079 H   0  0  0  0  0  0  0  0  0  0  0  0
   -6.8651   -5.8110    4.8951 H   0  0  0  0  0  0  0  0  0  0  0  0
   -8.0152   -7.8382    5.5462 H   0  0  0  0  0  0  0  0  0  0  0  0
   -8.8503   -9.5982    6.3669 H   0  0  0  0  0  0  0  0  0  0  0  0
   -9.5676  -11.1515    5.9164 H   0  0  0  0  0  0  0  0  0  0  0  0
  -10.0357   -8.5394    4.3802 H   0  0  0  0  0  0  0  0  0  0  0  0
  -11.1851   -9.2766    5.5027 H   0  0  0  0  0  0  0  0  0  0  0  0
  -10.7485  -10.1090    4.0056 H   0  0  0  0  0  0  0  0  0  0  0  0
   -4.8595   -7.9300    1.7567 H   0  0  0  0  0  0  0  0  0  0  0  0
   -6.1342   -6.2559    0.4335 H   0  0  0  0  0  0  0  0  0  0  0  0
   -8.3943   -7.6961   -3.5680 H   0  0  0  0  0  0  0  0  0  0  0  0
   -7.0924   -8.8744   -3.9001 H   0  0  0  0  0  0  0  0  0  0  0  0
   -6.2695   -4.3391   -6.4567 H   0  0  0  0  0  0  0  0  0  0  0  0
   -5.7924   -2.1045   -7.1008 H   0  0  0  0  0  0  0  0  0  0  0  0
   -0.8491   -2.0468   -2.7691 H   0  0  0  0  0  0  0  0  0  0  0  0
   -2.4542   -2.2532   -2.0004 H   0  0  0  0  0  0  0  0  0  0  0  0
   -5.8264    2.3047   -3.1773 H   0  0  0  0  0  0  0  0  0  0  0  0
   -4.1452    3.7631   -2.3390 H   0  0  0  0  0  0  0  0  0  0  0  0
   -2.5330    1.9365   -5.2583 H   0  0  0  0  0  0  0  0  0  0  0  0
    0.4405    2.8171   -8.3797 H   0  0  0  0  0  0  0  0  0  0  0  0
   -0.6766    1.6312  -10.2201 H   0  0  0  0  0  0  0  0  0  0  0  0
   -3.8804   -1.9134   -9.0350 H   0  0  0  0  0  0  0  0  0  0  0  0
   -4.5014   -1.4643  -10.6347 H   0  0  0  0  0  0  0  0  0  0  0  0
   -5.7745   -0.2288   -8.8959 H   0  0  0  0  0  0  0  0  0  0  0  0
   -4.2785    0.4193   -8.2222 H   0  0  0  0  0  0  0  0  0  0  0  0
   -4.8001    0.9042   -9.8383 H   0  0  0  0  0  0  0  0  0  0  0  0
   -1.1471   -0.0450   -5.6203 H   0  0  0  0  0  0  0  0  0  0  0  0
    2.6794    6.0603   -3.7394 H   0  0  0  0  0  0  0  0  0  0  0  0
    3.6855    7.4021   -1.9875 H   0  0  0  0  0  0  0  0  0  0  0  0
    4.7732    9.0938    1.0840 H   0  0  0  0  0  0  0  0  0  0  0  0
    4.8200    8.4639   -0.5691 H   0  0  0  0  0  0  0  0  0  0  0  0
    3.3472   10.4874   -0.4466 H   0  0  0  0  0  0  0  0  0  0  0  0
    2.3924    9.7231    0.8300 H   0  0  0  0  0  0  0  0  0  0  0  0
    2.3590    9.0665   -0.8070 H   0  0  0  0  0  0  0  0  0  0  0  0
    1.1620    3.3275   -0.8109 H   0  0  0  0  0  0  0  0  0  0  0  0
    4.0964    4.1469   -4.0077 H   0  0  0  0  0  0  0  0  0  0  0  0
    6.2725    4.0425   -4.5284 H   0  0  0  0  0  0  0  0  0  0  0  0
   10.6442    3.9380   -3.8643 H   0  0  0  0  0  0  0  0  0  0  0  0
   10.6180    4.6358   -1.5076 H   0  0  0  0  0  0  0  0  0  0  0  0
    6.6102    6.9173    0.1221 H   0  0  0  0  0  0  0  0  0  0  0  0
    7.2259    6.2694    1.6501 H   0  0  0  0  0  0  0  0  0  0  0  0
    6.4803    4.5965   -0.8105 H   0  0  0  0  0  0  0  0  0  0  0  0
    5.5608    4.7013    0.6932 H   0  0  0  0  0  0  0  0  0  0  0  0
    7.1631    3.9531    0.6866 H   0  0  0  0  0  0  0  0  0  0  0  0
    7.1338    6.2907   -4.5550 H   0  0  0  0  0  0  0  0  0  0  0  0
    7.5643    1.3873   -9.5331 H   0  0  0  0  0  0  0  0  0  0  0  0
    7.3116    0.8032  -11.9050 H   0  0  0  0  0  0  0  0  0  0  0  0
    9.2170    3.8400  -15.2599 H   0  0  0  0  0  0  0  0  0  0  0  0
    9.0898    2.3752  -16.2502 H   0  0  0  0  0  0  0  0  0  0  0  0
   10.5974    1.1641  -14.6609 H   0  0  0  0  0  0  0  0  0  0  0  0
   10.7601    2.6308  -13.6903 H   0  0  0  0  0  0  0  0  0  0  0  0
   11.4004    2.5897  -15.3343 H   0  0  0  0  0  0  0  0  0  0  0  0
    9.2051    5.1732  -10.6831 H   0  0  0  0  0  0  0  0  0  0  0  0
   11.1838    4.0245   -9.6982 H   0  0  0  0  0  0  0  0  0  0  0  0
   13.0192    5.0337   -8.1529 H   0  0  0  0  0  0  0  0  0  0  0  0
  1  2  2  0  0  0  0
  2  3  1  0  0  0  0
  3  4  2  0  0  0  0
  4  5  1  0  0  0  0
  5  6  2  0  0  0  0
  6  7  1  0  0  0  0
  7  8  2  0  0  0  0
  8  9  1  0  0  0  0
  9 10  1  0  0  0  0
 10 11  1  0  0  0  0
  8 12  1  0  0  0  0
 12 13  1  0  0  0  0
 12 14  2  0  0  0  0
  4 15  1  0  0  0  0
 15 16  2  0  0  0  0
 16 17  1  0  0  0  0
 17 18  1  0  0  0  0
 18 19  2  0  0  0  0
 19 20  1  0  0  0  0
 20 21  2  0  0  0  0
 21 22  1  0  0  0  0
 22 23  1  0  0  0  0
 23 24  1  0  0  0  0
 21 25  1  0  0  0  0
 25 26  2  0  0  0  0
 25 27  1  0  0  0  0
 17 28  2  0  0  0  0
 28 29  1  0  0  0  0
 16 30  1  0  0  0  0
 30 31  2  0  0  0  0
 31 32  1  0  0  0  0
 31 33  1  0  0  0  0
 33 34  2  0  0  0  0
 34 35  1  0  0  0  0
 35 36  2  0  0  0  0
 36 37  1  0  0  0  0
 37 38  2  0  0  0  0
 38 39  1  0  0  0  0
 39 40  2  0  0  0  0
 40 41  1  0  0  0  0
 41 42  1  0  0  0  0
 42 43  1  0  0  0  0
 40 44  1  0  0  0  0
 44 45  1  0  0  0  0
 44 46  2  0  0  0  0
 36 47  1  0  0  0  0
 47 48  2  0  0  0  0
 48 49  1  0  0  0  0
 49 50  1  0  0  0  0
 50 51  2  0  0  0  0
 51 52  1  0  0  0  0
 52 53  2  0  0  0  0
 53 54  1  0  0  0  0
 54 55  1  0  0  0  0
 55 56  1  0  0  0  0
 53 57  1  0  0  0  0
 57 58  2  0  0  0  0
 57 59  1  0  0  0  0
 49 60  2  0  0  0  0
 60 61  1  0  0  0  0
 48 62  1  0  0  0  0
 62 63  2  0  0  0  0
 63 64  1  0  0  0  0
 63 65  1  0  0  0  0
 65 66  1  0  0  0  0
 66 67  1  0  0  0  0
 67 68  2  0  0  0  0
 68 69  1  0  0  0  0
 69 70  1  0  0  0  0
 70 71  1  0  0  0  0
 71 72  1  0  0  0  0
 67 73  1  0  0  0  0
 73 74  2  0  0  0  0
 74 75  1  0  0  0  0
 75 76  1  0  0  0  0
 76 77  1  0  0  0  0
 77 78  2  0  0  0  0
 78 79  1  0  0  0  0
 79 80  1  0  0  0  0
 80 81  1  0  0  0  0
 81 82  1  0  0  0  0
 77 83  1  0  0  0  0
 83 84  2  0  0  0  0
 84 85  1  0  0  0  0
 85 86  2  0  0  0  0
 86 87  1  0  0  0  0
 87 88  2  0  0  0  0
 88 89  1  0  0  0  0
 89 90  2  0  0  0  0
 90 91  1  0  0  0  0
 91 92  2  0  0  0  0
 92 93  1  0  0  0  0
 93 94  1  0  0  0  0
 94 95  1  0  0  0  0
 92 96  1  0  0  0  0
 96 97  1  0  0  0  0
 96 98  2  0  0  0  0
 88 99  1  0  0  0  0
 99100  2  0  0  0  0
100101  1  0  0  0  0
101102  1  0  0  0  0
102103  2  0  0  0  0
103104  1  0  0  0  0
104105  2  0  0  0  0
105106  1  0  0  0  0
106107  1  0  0  0  0
107108  1  0  0  0  0
105109  1  0  0  0  0
109110  2  0  0  0  0
109111  1  0  0  0  0
101112  2  0  0  0  0
112113  1  0  0  0  0
100114  1  0  0  0  0
114115  2  0  0  0  0
115116  1  0  0  0  0
115117  1  0  0  0  0
117118  2  0  0  0  0
118119  1  0  0  0  0
119120  2  0  0  0  0
120121  1  0  0  0  0
121122  2  0  0  0  0
122123  1  0  0  0  0
123124  2  0  0  0  0
124125  1  0  0  0  0
125126  1  0  0  0  0
126127  1  0  0  0  0
124128  1  0  0  0  0
128129  1  0  0  0  0
128130  2  0  0  0  0
120131  1  0  0  0  0
131132  2  0  0  0  0
132133  1  0  0  0  0
133134  1  0  0  0  0
134135  2  0  0  0  0
135136  1  0  0  0  0
136137  2  0  0  0  0
137138  1  0  0  0  0
138139  1  0  0  0  0
139140  1  0  0  0  0
137141  1  0  0  0  0
141142  2  0  0  0  0
141143  1  0  0  0  0
133144  2  0  0  0  0
144145  1  0  0  0  0
132146  1  0  0  0  0
146147  2  0  0  0  0
147148  1  0  0  0  0
 29  1  1  0  0  0  0
 61 33  1  0  0  0  0
 69 65  2  0  0  0  0
 79 75  2  0  0  0  0
113 85  1  0  0  0  0
145117  1  0  0  0  0
 28  3  1  0  0  0  0
 60 35  1  0  0  0  0
 72 68  1  0  0  0  0
 82 78  1  0  0  0  0
112 87  1  0  0  0  0
144119  1  0  0  0  0
 14  5  1  0  0  0  0
 32 15  1  0  0  0  0
 46 37  1  0  0  0  0
 64 47  1  0  0  0  0
 98 89  1  0  0  0  0
116 99  1  0  0  0  0
130121  1  0  0  0  0
148131  1  0  0  0  0
 26 18  1  0  0  0  0
 58 50  1  0  0  0  0
110102  1  0  0  0  0
142134  1  0  0  0  0
  1149  1  0  0  0  0
  2150  1  0  0  0  0
  6151  1  0  0  0  0
  7152  1  0  0  0  0
 10153  1  0  0  0  0
 10154  1  0  0  0  0
 11155  1  0  0  0  0
 11156  1  0  0  0  0
 11157  1  0  0  0  0
 14158  1  0  0  0  0
 19159  1  0  0  0  0
 20160  1  0  0  0  0
 23161  1  0  0  0  0
 23162  1  0  0  0  0
 24163  1  0  0  0  0
 24164  1  0  0  0  0
 24165  1  0  0  0  0
 26166  1  0  0  0  0
 30167  1  0  0  0  0
 34168  1  0  0  0  0
 38169  1  0  0  0  0
 39170  1  0  0  0  0
 42171  1  0  0  0  0
 42172  1  0  0  0  0
 43173  1  0  0  0  0
 43174  1  0  0  0  0
 43175  1  0  0  0  0
 46176  1  0  0  0  0
 51177  1  0  0  0  0
 52178  1  0  0  0  0
 55179  1  0  0  0  0
 55180  1  0  0  0  0
 56181  1  0  0  0  0
 56182  1  0  0  0  0
 56183  1  0  0  0  0
 58184  1  0  0  0  0
 62185  1  0  0  0  0
 71186  1  0  0  0  0
 71187  1  0  0  0  0
 73188  1  0  0  0  0
 74189  1  0  0  0  0
 81190  1  0  0  0  0
 81191  1  0  0  0  0
 83192  1  0  0  0  0
 84193  1  0  0  0  0
 86194  1  0  0  0  0
 90195  1  0  0  0  0
 91196  1  0  0  0  0
 94197  1  0  0  0  0
 94198  1  0  0  0  0
 95199  1  0  0  0  0
 95200  1  0  0  0  0
 95201  1  0  0  0  0
 98202  1  0  0  0  0
103203  1  0  0  0  0
104204  1  0  0  0  0
107205  1  0  0  0  0
107206  1  0  0  0  0
108207  1  0  0  0  0
108208  1  0  0  0  0
108209  1  0  0  0  0
110210  1  0  0  0  0
114211  1  0  0  0  0
118212  1  0  0  0  0
122213  1  0  0  0  0
123214  1  0  0  0  0
126215  1  0  0  0  0
126216  1  0  0  0  0
127217  1  0  0  0  0
127218  1  0  0  0  0
127219  1  0  0  0  0
130220  1  0  0  0  0
135221  1  0  0  0  0
136222  1  0  0  0  0
139223  1  0  0  0  0
139224  1  0  0  0  0
140225  1  0  0  0  0
140226  1  0  0  0  0
140227  1  0  0  0  0
142228  1  0  0  0  0
146229  1  0  0  0  0
147230  1  0  0  0  0
M  END
