
  xtb     03032204343D
 energy: -451.779851152535 gnorm: 0.000262231324 xtb: 6.4.1 (unknown)
222248  0     0  0            999 V2000
   -8.1197  -16.7029   10.0679 C   0  0  0  0  0  0  0  0  0  0  0  0
   -7.6343  -16.9728    8.8394 C   0  0  0  0  0  0  0  0  0  0  0  0
   -7.5303  -15.8120    8.0185 C   0  0  0  0  0  0  0  0  0  0  0  0
   -7.0917  -15.7218    6.6882 C   0  0  0  0  0  0  0  0  0  0  0  0
   -6.5571  -16.8747    5.9823 C   0  0  0  0  0  0  0  0  0  0  0  0
   -7.1609  -17.3474    4.4231 S   0  0  0  0  0  0  0  0  0  0  0  0
   -6.0462  -18.6656    4.3058 C   0  0  0  0  0  0  0  0  0  0  0  0
   -5.9927  -19.5197    3.0879 C   0  0  0  0  0  0  0  0  0  0  0  0
   -5.1804  -18.8385    1.9838 C   0  0  0  0  0  0  0  0  0  0  0  0
   -5.2518  -18.7158    5.4123 C   0  0  0  0  0  0  0  0  0  0  0  0
   -4.0143  -19.8805    5.6526 Cl  0  0  0  0  0  0  0  0  0  0  0  0
   -5.5419  -17.7055    6.3681 C   0  0  0  0  0  0  0  0  0  0  0  0
   -4.6383  -17.5147    7.8150 Cl  0  0  0  0  0  0  0  0  0  0  0  0
   -7.1626  -14.4736    6.0832 C   0  0  0  0  0  0  0  0  0  0  0  0
   -7.6139  -13.3149    6.7605 C   0  0  0  0  0  0  0  0  0  0  0  0
   -8.0476  -13.4031    8.0946 C   0  0  0  0  0  0  0  0  0  0  0  0
   -8.5444  -12.2331    8.7987 C   0  0  0  0  0  0  0  0  0  0  0  0
   -7.9015  -11.7627   10.3437 S   0  0  0  0  0  0  0  0  0  0  0  0
   -8.9477  -10.3895   10.4486 C   0  0  0  0  0  0  0  0  0  0  0  0
   -8.8675   -9.4388   11.5914 C   0  0  0  0  0  0  0  0  0  0  0  0
   -7.8658   -8.3190   11.2982 C   0  0  0  0  0  0  0  0  0  0  0  0
   -9.7418  -10.3119    9.3430 C   0  0  0  0  0  0  0  0  0  0  0  0
   -9.5178  -11.3552    8.4061 C   0  0  0  0  0  0  0  0  0  0  0  0
  -10.4457  -11.5178    6.9698 Cl  0  0  0  0  0  0  0  0  0  0  0  0
  -10.9184   -9.0877    9.0960 Cl  0  0  0  0  0  0  0  0  0  0  0  0
   -7.9839  -14.6542    8.6948 C   0  0  0  0  0  0  0  0  0  0  0  0
   -8.4930  -15.0322   10.3165 S   0  0  0  0  0  0  0  0  0  0  0  0
   -7.5052  -12.1568    5.9540 C   0  0  0  0  0  0  0  0  0  0  0  0
   -7.0214  -12.4082    4.7026 C   0  0  0  0  0  0  0  0  0  0  0  0
   -6.6541  -14.1018    4.4610 S   0  0  0  0  0  0  0  0  0  0  0  0
   -6.7870  -11.4495    3.6713 C   0  0  0  0  0  0  0  0  0  0  0  0
   -7.1131  -10.1236    3.7021 C   0  0  0  0  0  0  0  0  0  0  0  0
   -6.6902   -9.4096    2.5579 C   0  0  0  0  0  0  0  0  0  0  0  0
   -6.8618   -8.0417    2.2802 C   0  0  0  0  0  0  0  0  0  0  0  0
   -7.5527   -7.1578    3.2028 C   0  0  0  0  0  0  0  0  0  0  0  0
   -7.1250   -7.0871    4.8878 S   0  0  0  0  0  0  0  0  0  0  0  0
   -8.3169   -5.8778    5.2249 C   0  0  0  0  0  0  0  0  0  0  0  0
   -8.5247   -5.3750    6.6104 C   0  0  0  0  0  0  0  0  0  0  0  0
   -9.1653   -6.4486    7.4921 C   0  0  0  0  0  0  0  0  0  0  0  0
   -9.0007   -5.5617    4.0897 C   0  0  0  0  0  0  0  0  0  0  0  0
  -10.2699   -4.4112    4.0228 Cl  0  0  0  0  0  0  0  0  0  0  0  0
   -8.5661   -6.2772    2.9405 C   0  0  0  0  0  0  0  0  0  0  0  0
   -9.3195   -6.1006    1.4148 Cl  0  0  0  0  0  0  0  0  0  0  0  0
   -6.3099   -7.5638    1.0968 C   0  0  0  0  0  0  0  0  0  0  0  0
   -5.6424   -8.4071    0.1691 C   0  0  0  0  0  0  0  0  0  0  0  0
   -5.5450   -9.7946    0.4091 C   0  0  0  0  0  0  0  0  0  0  0  0
   -4.9497  -10.6820   -0.5714 C   0  0  0  0  0  0  0  0  0  0  0  0
   -3.7417  -11.8536   -0.1341 S   0  0  0  0  0  0  0  0  0  0  0  0
   -3.6107  -12.4392   -1.7558 C   0  0  0  0  0  0  0  0  0  0  0  0
   -2.6289  -13.4974   -2.1191 C   0  0  0  0  0  0  0  0  0  0  0  0
   -1.2698  -12.8849   -2.4667 C   0  0  0  0  0  0  0  0  0  0  0  0
   -4.4584  -11.7569   -2.5780 C   0  0  0  0  0  0  0  0  0  0  0  0
   -5.2214  -10.7622   -1.9116 C   0  0  0  0  0  0  0  0  0  0  0  0
   -6.4212   -9.8334   -2.7133 Cl  0  0  0  0  0  0  0  0  0  0  0  0
   -4.6128  -12.0635   -4.2587 Cl  0  0  0  0  0  0  0  0  0  0  0  0
   -6.0380  -10.2531    1.6210 C   0  0  0  0  0  0  0  0  0  0  0  0
   -5.9721  -11.8974    2.1900 S   0  0  0  0  0  0  0  0  0  0  0  0
   -5.0633   -7.6686   -0.8794 C   0  0  0  0  0  0  0  0  0  0  0  0
   -5.2752   -6.3150   -0.7730 C   0  0  0  0  0  0  0  0  0  0  0  0
   -6.2346   -5.8913    0.6293 S   0  0  0  0  0  0  0  0  0  0  0  0
   -4.7495   -5.3164   -1.6224 C   0  0  0  0  0  0  0  0  0  0  0  0
   -4.8305   -3.9508   -1.4959 C   0  0  0  0  0  0  0  0  0  0  0  0
   -4.0740   -3.2017   -2.4470 C   0  0  0  0  0  0  0  0  0  0  0  0
   -3.3803   -3.9879   -3.4233 C   0  0  0  0  0  0  0  0  0  0  0  0
   -2.6771   -3.6917   -4.3503 O   0  0  0  0  0  0  0  0  0  0  0  0
   -3.7560   -5.7355   -3.0132 S   0  0  0  0  0  0  0  0  0  0  0  0
   -4.1860   -1.8687   -2.0886 C   0  0  0  0  0  0  0  0  0  0  0  0
   -4.9988   -1.7447   -1.0068 O   0  0  0  0  0  0  0  0  0  0  0  0
   -5.4281   -3.0000   -0.5826 C   0  0  0  0  0  0  0  0  0  0  0  0
   -6.1467   -3.1376    0.3694 O   0  0  0  0  0  0  0  0  0  0  0  0
   -3.5322   -0.7203   -2.5821 C   0  0  0  0  0  0  0  0  0  0  0  0
   -2.6252   -0.6646   -3.6129 C   0  0  0  0  0  0  0  0  0  0  0  0
   -2.0171    0.5979   -3.7430 C   0  0  0  0  0  0  0  0  0  0  0  0
   -1.0107    0.9817   -4.6577 C   0  0  0  0  0  0  0  0  0  0  0  0
   -0.5043    0.0580   -5.6558 C   0  0  0  0  0  0  0  0  0  0  0  0
    0.0220   -1.5453   -5.2358 S   0  0  0  0  0  0  0  0  0  0  0  0
    0.4232   -1.9278   -6.8708 C   0  0  0  0  0  0  0  0  0  0  0  0
    1.0000   -3.2513   -7.2309 C   0  0  0  0  0  0  0  0  0  0  0  0
    2.5175   -3.2630   -7.0325 C   0  0  0  0  0  0  0  0  0  0  0  0
    0.1719   -0.8620   -7.6847 C   0  0  0  0  0  0  0  0  0  0  0  0
    0.4433   -0.8672   -9.3786 Cl  0  0  0  0  0  0  0  0  0  0  0  0
   -0.3519    0.2661   -7.0014 C   0  0  0  0  0  0  0  0  0  0  0  0
   -0.8296    1.6934   -7.8187 Cl  0  0  0  0  0  0  0  0  0  0  0  0
   -0.5062    2.2673   -4.5262 C   0  0  0  0  0  0  0  0  0  0  0  0
   -1.0000    3.1878   -3.5662 C   0  0  0  0  0  0  0  0  0  0  0  0
   -2.0647    2.8370   -2.7145 C   0  0  0  0  0  0  0  0  0  0  0  0
   -2.5974    3.8114   -1.7796 C   0  0  0  0  0  0  0  0  0  0  0  0
   -2.7920    3.4561   -0.0887 S   0  0  0  0  0  0  0  0  0  0  0  0
   -3.3484    5.0549    0.2634 C   0  0  0  0  0  0  0  0  0  0  0  0
   -3.6573    5.4846    1.6550 C   0  0  0  0  0  0  0  0  0  0  0  0
   -2.4419    6.1588    2.2970 C   0  0  0  0  0  0  0  0  0  0  0  0
   -3.3778    5.8084   -0.8728 C   0  0  0  0  0  0  0  0  0  0  0  0
   -2.9596    5.1080   -2.0336 C   0  0  0  0  0  0  0  0  0  0  0  0
   -2.9923    5.8192   -3.5969 Cl  0  0  0  0  0  0  0  0  0  0  0  0
   -3.8720    7.4509   -0.9159 Cl  0  0  0  0  0  0  0  0  0  0  0  0
   -2.5213    1.5295   -2.7933 C   0  0  0  0  0  0  0  0  0  0  0  0
   -3.7330    0.8174   -1.7697 S   0  0  0  0  0  0  0  0  0  0  0  0
   -0.2300    4.3681   -3.5242 C   0  0  0  0  0  0  0  0  0  0  0  0
    0.8104    4.3751   -4.4114 C   0  0  0  0  0  0  0  0  0  0  0  0
    0.8724    2.9186   -5.3705 S   0  0  0  0  0  0  0  0  0  0  0  0
    1.7905    5.4096   -4.4947 C   0  0  0  0  0  0  0  0  0  0  0  0
    1.6654    6.6526   -3.9431 C   0  0  0  0  0  0  0  0  0  0  0  0
    2.8493    7.4210   -4.0016 C   0  0  0  0  0  0  0  0  0  0  0  0
    3.0819    8.6839   -3.4250 C   0  0  0  0  0  0  0  0  0  0  0  0
    2.0307    9.3890   -2.7109 C   0  0  0  0  0  0  0  0  0  0  0  0
    1.0782    8.5949   -1.4869 S   0  0  0  0  0  0  0  0  0  0  0  0
    0.1412   10.0157   -1.1703 C   0  0  0  0  0  0  0  0  0  0  0  0
   -0.9427   10.0050   -0.1500 C   0  0  0  0  0  0  0  0  0  0  0  0
   -0.3949    9.7405    1.2527 C   0  0  0  0  0  0  0  0  0  0  0  0
    0.5613   11.0394   -1.9649 C   0  0  0  0  0  0  0  0  0  0  0  0
   -0.1235   12.6128   -1.9478 Cl  0  0  0  0  0  0  0  0  0  0  0  0
    1.6285   10.6900   -2.8380 C   0  0  0  0  0  0  0  0  0  0  0  0
    2.2562   11.7898   -3.9917 Cl  0  0  0  0  0  0  0  0  0  0  0  0
    4.3737    9.1848   -3.5255 C   0  0  0  0  0  0  0  0  0  0  0  0
    5.4118    8.4974   -4.2050 C   0  0  0  0  0  0  0  0  0  0  0  0
    5.1633    7.2621   -4.8311 C   0  0  0  0  0  0  0  0  0  0  0  0
    6.2072    6.5549   -5.5535 C   0  0  0  0  0  0  0  0  0  0  0  0
    7.7782    6.2742   -4.8565 S   0  0  0  0  0  0  0  0  0  0  0  0
    8.3514    5.4518   -6.2663 C   0  0  0  0  0  0  0  0  0  0  0  0
    9.7276    4.8883   -6.3233 C   0  0  0  0  0  0  0  0  0  0  0  0
    9.8037    3.5410   -5.6019 C   0  0  0  0  0  0  0  0  0  0  0  0
    7.3685    5.3934   -7.2082 C   0  0  0  0  0  0  0  0  0  0  0  0
    6.1552    6.0183   -6.8112 C   0  0  0  0  0  0  0  0  0  0  0  0
    4.8133    6.1542   -7.8679 Cl  0  0  0  0  0  0  0  0  0  0  0  0
    7.5579    4.6542   -8.7450 Cl  0  0  0  0  0  0  0  0  0  0  0  0
    3.8840    6.7385   -4.6901 C   0  0  0  0  0  0  0  0  0  0  0  0
    3.3661    5.1583   -5.2058 S   0  0  0  0  0  0  0  0  0  0  0  0
    6.6428    9.1873   -4.1128 C   0  0  0  0  0  0  0  0  0  0  0  0
    6.5783   10.3232   -3.3607 C   0  0  0  0  0  0  0  0  0  0  0  0
    4.9642   10.6403   -2.7753 S   0  0  0  0  0  0  0  0  0  0  0  0
    7.6920   11.1583   -3.0347 C   0  0  0  0  0  0  0  0  0  0  0  0
    8.9963   10.7615   -3.0467 C   0  0  0  0  0  0  0  0  0  0  0  0
    9.9049   11.7961   -2.7191 C   0  0  0  0  0  0  0  0  0  0  0  0
   11.3051   11.7189   -2.6300 C   0  0  0  0  0  0  0  0  0  0  0  0
   12.0020   10.4838   -2.9456 C   0  0  0  0  0  0  0  0  0  0  0  0
   13.1413    9.7857   -1.8326 S   0  0  0  0  0  0  0  0  0  0  0  0
   13.4274    8.4213   -2.8565 C   0  0  0  0  0  0  0  0  0  0  0  0
   14.4149    7.3708   -2.4853 C   0  0  0  0  0  0  0  0  0  0  0  0
   15.8276    7.7761   -2.9137 C   0  0  0  0  0  0  0  0  0  0  0  0
   12.6884    8.5234   -3.9971 C   0  0  0  0  0  0  0  0  0  0  0  0
   12.7075    7.3581   -5.2559 Cl  0  0  0  0  0  0  0  0  0  0  0  0
   11.8776    9.6879   -4.0519 C   0  0  0  0  0  0  0  0  0  0  0  0
   10.9170   10.0691   -5.4248 Cl  0  0  0  0  0  0  0  0  0  0  0  0
   11.9715   12.8677   -2.2224 C   0  0  0  0  0  0  0  0  0  0  0  0
   11.3046   14.0798   -1.9235 C   0  0  0  0  0  0  0  0  0  0  0  0
    9.9045   14.1511   -2.0008 C   0  0  0  0  0  0  0  0  0  0  0  0
    9.1827   15.3596   -1.6385 C   0  0  0  0  0  0  0  0  0  0  0  0
    8.0136   16.0744   -2.7072 S   0  0  0  0  0  0  0  0  0  0  0  0
    7.6454   17.3378   -1.5848 C   0  0  0  0  0  0  0  0  0  0  0  0
    6.5923   18.3474   -1.8805 C   0  0  0  0  0  0  0  0  0  0  0  0
    5.2110   17.8179   -1.4865 C   0  0  0  0  0  0  0  0  0  0  0  0
    8.3839   17.1934   -0.4480 C   0  0  0  0  0  0  0  0  0  0  0  0
    9.2608   16.0764   -0.4764 C   0  0  0  0  0  0  0  0  0  0  0  0
   10.2459   15.6409    0.8603 Cl  0  0  0  0  0  0  0  0  0  0  0  0
    8.2835   18.2514    0.8999 Cl  0  0  0  0  0  0  0  0  0  0  0  0
    9.2363   13.0067   -2.4175 C   0  0  0  0  0  0  0  0  0  0  0  0
    7.5097   12.8348   -2.5733 S   0  0  0  0  0  0  0  0  0  0  0  0
   12.2266   15.1200   -1.6057 C   0  0  0  0  0  0  0  0  0  0  0  0
   13.5106   14.7109   -1.6423 C   0  0  0  0  0  0  0  0  0  0  0  0
   13.6970   13.0453   -2.0716 S   0  0  0  0  0  0  0  0  0  0  0  0
   -8.2945  -17.3905   10.8721 H   0  0  0  0  0  0  0  0  0  0  0  0
   -7.3680  -17.9589    8.5071 H   0  0  0  0  0  0  0  0  0  0  0  0
   -5.5321  -20.4741    3.3484 H   0  0  0  0  0  0  0  0  0  0  0  0
   -7.0067  -19.7056    2.7294 H   0  0  0  0  0  0  0  0  0  0  0  0
   -4.1620  -18.6613    2.3204 H   0  0  0  0  0  0  0  0  0  0  0  0
   -5.1508  -19.4690    1.0994 H   0  0  0  0  0  0  0  0  0  0  0  0
   -5.6299  -17.8842    1.7198 H   0  0  0  0  0  0  0  0  0  0  0  0
   -9.8561   -9.0076   11.7607 H   0  0  0  0  0  0  0  0  0  0  0  0
   -8.5608   -9.9774   12.4891 H   0  0  0  0  0  0  0  0  0  0  0  0
   -7.8161   -7.6333   12.1396 H   0  0  0  0  0  0  0  0  0  0  0  0
   -8.1691   -7.7654   10.4134 H   0  0  0  0  0  0  0  0  0  0  0  0
   -6.8756   -8.7341   11.1267 H   0  0  0  0  0  0  0  0  0  0  0  0
   -7.7515  -11.1715    6.3010 H   0  0  0  0  0  0  0  0  0  0  0  0
   -7.6410   -9.6701    4.5189 H   0  0  0  0  0  0  0  0  0  0  0  0
   -9.1710   -4.4972    6.5662 H   0  0  0  0  0  0  0  0  0  0  0  0
   -7.5648   -5.0802    7.0402 H   0  0  0  0  0  0  0  0  0  0  0  0
  -10.1223   -6.7558    7.0783 H   0  0  0  0  0  0  0  0  0  0  0  0
   -8.5184   -7.3211    7.5547 H   0  0  0  0  0  0  0  0  0  0  0  0
   -9.3301   -6.0611    8.4940 H   0  0  0  0  0  0  0  0  0  0  0  0
   -3.0107  -14.0491   -2.9802 H   0  0  0  0  0  0  0  0  0  0  0  0
   -2.5145  -14.1873   -1.2817 H   0  0  0  0  0  0  0  0  0  0  0  0
   -0.5651  -13.6678   -2.7331 H   0  0  0  0  0  0  0  0  0  0  0  0
   -1.3679  -12.2032   -3.3075 H   0  0  0  0  0  0  0  0  0  0  0  0
   -0.8759  -12.3341   -1.6160 H   0  0  0  0  0  0  0  0  0  0  0  0
   -4.4725   -8.0952   -1.6696 H   0  0  0  0  0  0  0  0  0  0  0  0
   -2.4015   -1.5171   -4.2269 H   0  0  0  0  0  0  0  0  0  0  0  0
    0.7663   -3.4617   -8.2762 H   0  0  0  0  0  0  0  0  0  0  0  0
    0.5437   -4.0219   -6.6074 H   0  0  0  0  0  0  0  0  0  0  0  0
    2.9853   -2.5060   -7.6570 H   0  0  0  0  0  0  0  0  0  0  0  0
    2.7640   -3.0578   -5.9935 H   0  0  0  0  0  0  0  0  0  0  0  0
    2.9207   -4.2353   -7.3021 H   0  0  0  0  0  0  0  0  0  0  0  0
   -3.9497    4.6152    2.2448 H   0  0  0  0  0  0  0  0  0  0  0  0
   -4.4914    6.1891    1.6310 H   0  0  0  0  0  0  0  0  0  0  0  0
   -1.6029    5.4685    2.3342 H   0  0  0  0  0  0  0  0  0  0  0  0
   -2.1485    7.0322    1.7208 H   0  0  0  0  0  0  0  0  0  0  0  0
   -2.6815    6.4723    3.3093 H   0  0  0  0  0  0  0  0  0  0  0  0
   -0.3955    5.1565   -2.8152 H   0  0  0  0  0  0  0  0  0  0  0  0
    0.7507    7.0031   -3.5056 H   0  0  0  0  0  0  0  0  0  0  0  0
   -1.6691    9.2288   -0.4047 H   0  0  0  0  0  0  0  0  0  0  0  0
   -1.4497   10.9707   -0.1769 H   0  0  0  0  0  0  0  0  0  0  0  0
    0.1078    8.7764    1.2867 H   0  0  0  0  0  0  0  0  0  0  0  0
    0.3175   10.5127    1.5323 H   0  0  0  0  0  0  0  0  0  0  0  0
   -1.2062    9.7386    1.9758 H   0  0  0  0  0  0  0  0  0  0  0  0
   10.4253    5.5874   -5.8586 H   0  0  0  0  0  0  0  0  0  0  0  0
   10.0071    4.7603   -7.3705 H   0  0  0  0  0  0  0  0  0  0  0  0
   10.8137    3.1446   -5.6602 H   0  0  0  0  0  0  0  0  0  0  0  0
    9.1221    2.8286   -6.0600 H   0  0  0  0  0  0  0  0  0  0  0  0
    9.5335    3.6577   -4.5549 H   0  0  0  0  0  0  0  0  0  0  0  0
    7.5462    8.8614   -4.5915 H   0  0  0  0  0  0  0  0  0  0  0  0
    9.2931    9.7496   -3.2465 H   0  0  0  0  0  0  0  0  0  0  0  0
   14.3928    7.2192   -1.4050 H   0  0  0  0  0  0  0  0  0  0  0  0
   14.1365    6.4366   -2.9766 H   0  0  0  0  0  0  0  0  0  0  0  0
   15.8709    7.9124   -3.9913 H   0  0  0  0  0  0  0  0  0  0  0  0
   16.1138    8.7087   -2.4335 H   0  0  0  0  0  0  0  0  0  0  0  0
   16.5386    7.0044   -2.6314 H   0  0  0  0  0  0  0  0  0  0  0  0
    6.8096   19.2583   -1.3196 H   0  0  0  0  0  0  0  0  0  0  0  0
    6.6018   18.5804   -2.9465 H   0  0  0  0  0  0  0  0  0  0  0  0
    4.4494   18.5604   -1.7086 H   0  0  0  0  0  0  0  0  0  0  0  0
    4.9848   16.9082   -2.0375 H   0  0  0  0  0  0  0  0  0  0  0  0
    5.1822   17.5959   -0.4227 H   0  0  0  0  0  0  0  0  0  0  0  0
   11.9285   16.1263   -1.3770 H   0  0  0  0  0  0  0  0  0  0  0  0
   14.3919   15.2891   -1.4444 H   0  0  0  0  0  0  0  0  0  0  0  0
  1  2  2  0  0  0  0
  2  3  1  0  0  0  0
  3  4  2  0  0  0  0
  4  5  1  0  0  0  0
  5  6  1  0  0  0  0
  6  7  1  0  0  0  0
  7  8  1  0  0  0  0
  8  9  1  0  0  0  0
  7 10  2  0  0  0  0
 10 11  1  0  0  0  0
 10 12  1  0  0  0  0
 12 13  1  0  0  0  0
  4 14  1  0  0  0  0
 14 15  2  0  0  0  0
 15 16  1  0  0  0  0
 16 17  1  0  0  0  0
 17 18  1  0  0  0  0
 18 19  1  0  0  0  0
 19 20  1  0  0  0  0
 20 21  1  0  0  0  0
 19 22  2  0  0  0  0
 22 23  1  0  0  0  0
 23 24  1  0  0  0  0
 22 25  1  0  0  0  0
 16 26  2  0  0  0  0
 26 27  1  0  0  0  0
 15 28  1  0  0  0  0
 28 29  2  0  0  0  0
 29 30  1  0  0  0  0
 29 31  1  0  0  0  0
 31 32  2  0  0  0  0
 32 33  1  0  0  0  0
 33 34  2  0  0  0  0
 34 35  1  0  0  0  0
 35 36  1  0  0  0  0
 36 37  1  0  0  0  0
 37 38  1  0  0  0  0
 38 39  1  0  0  0  0
 37 40  2  0  0  0  0
 40 41  1  0  0  0  0
 40 42  1  0  0  0  0
 42 43  1  0  0  0  0
 34 44  1  0  0  0  0
 44 45  2  0  0  0  0
 45 46  1  0  0  0  0
 46 47  1  0  0  0  0
 47 48  1  0  0  0  0
 48 49  1  0  0  0  0
 49 50  1  0  0  0  0
 50 51  1  0  0  0  0
 49 52  2  0  0  0  0
 52 53  1  0  0  0  0
 53 54  1  0  0  0  0
 52 55  1  0  0  0  0
 46 56  2  0  0  0  0
 56 57  1  0  0  0  0
 45 58  1  0  0  0  0
 58 59  2  0  0  0  0
 59 60  1  0  0  0  0
 59 61  1  0  0  0  0
 61 62  2  0  0  0  0
 62 63  1  0  0  0  0
 63 64  1  0  0  0  0
 64 65  2  0  0  0  0
 64 66  1  0  0  0  0
 63 67  2  0  0  0  0
 67 68  1  0  0  0  0
 68 69  1  0  0  0  0
 69 70  2  0  0  0  0
 67 71  1  0  0  0  0
 71 72  2  0  0  0  0
 72 73  1  0  0  0  0
 73 74  2  0  0  0  0
 74 75  1  0  0  0  0
 75 76  1  0  0  0  0
 76 77  1  0  0  0  0
 77 78  1  0  0  0  0
 78 79  1  0  0  0  0
 77 80  2  0  0  0  0
 80 81  1  0  0  0  0
 80 82  1  0  0  0  0
 82 83  1  0  0  0  0
 74 84  1  0  0  0  0
 84 85  2  0  0  0  0
 85 86  1  0  0  0  0
 86 87  1  0  0  0  0
 87 88  1  0  0  0  0
 88 89  1  0  0  0  0
 89 90  1  0  0  0  0
 90 91  1  0  0  0  0
 89 92  2  0  0  0  0
 92 93  1  0  0  0  0
 93 94  1  0  0  0  0
 92 95  1  0  0  0  0
 86 96  2  0  0  0  0
 96 97  1  0  0  0  0
 85 98  1  0  0  0  0
 98 99  2  0  0  0  0
 99100  1  0  0  0  0
 99101  1  0  0  0  0
101102  2  0  0  0  0
102103  1  0  0  0  0
103104  2  0  0  0  0
104105  1  0  0  0  0
105106  1  0  0  0  0
106107  1  0  0  0  0
107108  1  0  0  0  0
108109  1  0  0  0  0
107110  2  0  0  0  0
110111  1  0  0  0  0
110112  1  0  0  0  0
112113  1  0  0  0  0
104114  1  0  0  0  0
114115  2  0  0  0  0
115116  1  0  0  0  0
116117  1  0  0  0  0
117118  1  0  0  0  0
118119  1  0  0  0  0
119120  1  0  0  0  0
120121  1  0  0  0  0
119122  2  0  0  0  0
122123  1  0  0  0  0
123124  1  0  0  0  0
122125  1  0  0  0  0
116126  2  0  0  0  0
126127  1  0  0  0  0
115128  1  0  0  0  0
128129  2  0  0  0  0
129130  1  0  0  0  0
129131  1  0  0  0  0
131132  2  0  0  0  0
132133  1  0  0  0  0
133134  2  0  0  0  0
134135  1  0  0  0  0
135136  1  0  0  0  0
136137  1  0  0  0  0
137138  1  0  0  0  0
138139  1  0  0  0  0
137140  2  0  0  0  0
140141  1  0  0  0  0
140142  1  0  0  0  0
142143  1  0  0  0  0
134144  1  0  0  0  0
144145  2  0  0  0  0
145146  1  0  0  0  0
146147  1  0  0  0  0
147148  1  0  0  0  0
148149  1  0  0  0  0
149150  1  0  0  0  0
150151  1  0  0  0  0
149152  2  0  0  0  0
152153  1  0  0  0  0
153154  1  0  0  0  0
152155  1  0  0  0  0
146156  2  0  0  0  0
156157  1  0  0  0  0
145158  1  0  0  0  0
158159  2  0  0  0  0
159160  1  0  0  0  0
 27  1  1  0  0  0  0
 57 31  1  0  0  0  0
 66 61  1  0  0  0  0
 97 71  1  0  0  0  0
127101  1  0  0  0  0
157131  1  0  0  0  0
 26  3  1  0  0  0  0
 56 33  1  0  0  0  0
 69 62  1  0  0  0  0
 96 73  1  0  0  0  0
126103  1  0  0  0  0
156133  1  0  0  0  0
 12  5  2  0  0  0  0
 30 14  1  0  0  0  0
 42 35  2  0  0  0  0
 60 44  1  0  0  0  0
 82 75  2  0  0  0  0
100 84  1  0  0  0  0
112105  2  0  0  0  0
130114  1  0  0  0  0
142135  2  0  0  0  0
160144  1  0  0  0  0
 23 17  2  0  0  0  0
 53 47  2  0  0  0  0
 93 87  2  0  0  0  0
123117  2  0  0  0  0
153147  2  0  0  0  0
  1161  1  0  0  0  0
  2162  1  0  0  0  0
  8163  1  0  0  0  0
  8164  1  0  0  0  0
  9165  1  0  0  0  0
  9166  1  0  0  0  0
  9167  1  0  0  0  0
 20168  1  0  0  0  0
 20169  1  0  0  0  0
 21170  1  0  0  0  0
 21171  1  0  0  0  0
 21172  1  0  0  0  0
 28173  1  0  0  0  0
 32174  1  0  0  0  0
 38175  1  0  0  0  0
 38176  1  0  0  0  0
 39177  1  0  0  0  0
 39178  1  0  0  0  0
 39179  1  0  0  0  0
 50180  1  0  0  0  0
 50181  1  0  0  0  0
 51182  1  0  0  0  0
 51183  1  0  0  0  0
 51184  1  0  0  0  0
 58185  1  0  0  0  0
 72186  1  0  0  0  0
 78187  1  0  0  0  0
 78188  1  0  0  0  0
 79189  1  0  0  0  0
 79190  1  0  0  0  0
 79191  1  0  0  0  0
 90192  1  0  0  0  0
 90193  1  0  0  0  0
 91194  1  0  0  0  0
 91195  1  0  0  0  0
 91196  1  0  0  0  0
 98197  1  0  0  0  0
102198  1  0  0  0  0
108199  1  0  0  0  0
108200  1  0  0  0  0
109201  1  0  0  0  0
109202  1  0  0  0  0
109203  1  0  0  0  0
120204  1  0  0  0  0
120205  1  0  0  0  0
121206  1  0  0  0  0
121207  1  0  0  0  0
121208  1  0  0  0  0
128209  1  0  0  0  0
132210  1  0  0  0  0
138211  1  0  0  0  0
138212  1  0  0  0  0
139213  1  0  0  0  0
139214  1  0  0  0  0
139215  1  0  0  0  0
150216  1  0  0  0  0
150217  1  0  0  0  0
151218  1  0  0  0  0
151219  1  0  0  0  0
151220  1  0  0  0  0
158221  1  0  0  0  0
159222  1  0  0  0  0
M  END
