242

C          8.32100       -6.62870        0.99720
C          7.71180       -5.45440        0.74350
C          6.57240       -5.59590       -0.10350
C          5.68360       -4.60340       -0.53100
C          5.80960       -3.18590       -0.15950
C          6.96280       -2.45890       -0.42560
C          7.05700       -1.11940       -0.09760
C          6.00170       -0.46520        0.52380
S          5.99690        1.21340        1.06080
C          7.60940        1.86840        0.52380
C          7.64210        2.18410       -0.95900
C          4.84780       -1.20540        0.77670
F          3.80540       -0.59370        1.38930
C          4.73530       -2.53470        0.44550
C          4.63070       -5.02330       -1.32710
C          4.39050       -6.36980       -1.69210
C          5.26800       -7.36780       -1.23700
C          5.03350       -8.78820       -1.52040
C          6.04590       -9.60480       -2.01360
C          5.83120      -10.94890       -2.25150
C          4.59190      -11.52690       -2.00310
S          4.18090      -13.22560       -2.22260
C          5.60140      -13.92500       -3.13120
C          5.63010      -13.48720       -4.58350
C          3.58600      -10.69600       -1.50450
C          3.78570       -9.35610       -1.26600
F          2.37390      -11.22500       -1.23910
C          6.34970       -6.94570       -0.47220
S          7.56090       -7.98660        0.23500
C          3.24330       -6.49350       -2.52680
C          2.64040       -5.30260       -2.79610
S          3.46190       -3.95420       -2.02580
C          1.44170       -4.96730       -3.49640
S          0.19130       -6.11870       -3.91980
C         -0.88560       -4.82610       -4.39380
C         -0.25130       -3.57630       -4.26040
C          1.06380       -3.68410       -3.77690
C         -0.99350       -2.40780       -4.51270
C         -2.34610       -2.55610       -4.82640
S         -3.10740       -1.01000       -5.05400
C         -1.61910       -0.20070       -4.71770
C         -0.59860       -1.04300       -4.44780
C         -2.98080       -3.80750       -4.96280
C         -2.21950       -4.95210       -4.77220
C         -4.40190       -3.77610       -5.23390
C         -5.13570       -4.55560       -6.03980
C         -6.51560       -4.22320       -6.28000
S         -7.41990       -3.39300       -5.02680
C         -8.69130       -3.01670       -6.15270
C         -8.44010       -3.58370       -7.41570
C         -7.21400       -4.29270       -7.45150
C         -9.35360       -3.28970       -8.44840
C        -10.39590       -2.38630       -8.18330
S        -11.35680       -2.10690       -9.60580
C        -10.37770       -3.20290      -10.51450
C         -9.36890       -3.74250       -9.79670
C        -10.58790       -1.76960       -6.93400
C         -9.74970       -2.15560       -5.89910
C        -11.62550       -0.76260       -6.75500
C        -11.52430        0.34500       -6.00850
C        -10.33360        0.78400       -5.31200
C         -9.04530        0.78680       -5.74610
C         -8.10230        1.18880       -4.76120
C         -6.69840        1.20820       -4.84440
C         -5.97800        0.76190       -6.04350
C         -6.33640       -0.41980       -6.68840
C         -5.63430       -0.87220       -7.78630
C         -4.54300       -0.16530       -8.27070
S         -3.66520       -0.74860       -9.70370
C         -2.05530       -1.16380       -8.93370
C         -2.10460       -2.53510       -8.28950
C         -4.19450        1.01670       -7.62730
F         -3.14460        1.73950       -8.06710
C         -4.89130        1.48320       -6.53140
C         -6.01310        1.60010       -3.70080
C         -6.66070        1.94760       -2.49060
C         -8.06140        1.93600       -2.41130
C         -8.73100        2.28250       -1.14880
C         -8.44550        1.57270        0.01580
C         -9.00490        1.94750        1.21980
C         -9.85620        3.04320        1.30140
S        -10.49940        3.51790        2.88730
C         -9.88020        5.24000        2.99090
C         -8.36590        5.28960        2.97930
C        -10.17380        3.71070        0.12340
C         -9.62330        3.34630       -1.08980
F        -11.02420        4.75650        0.14320
C         -8.74700        1.56350       -3.55380
S        -10.47720        1.38830       -3.67050
C         -5.74140        2.24720       -1.45440
C         -4.43650        2.10120       -1.82340
S         -4.28120        1.64080       -3.50380
C         -3.28680        2.25000       -0.98780
C         -3.26490        2.75080        0.28100
C         -1.98490        2.71960        0.88670
C         -1.63410        3.13680        2.18190
C         -2.62250        3.74960        3.07760
C         -2.79860        3.27810        4.37500
C         -3.73490        3.84030        5.22030
C         -4.52370        4.90600        4.80240
S         -5.76180        5.69860        5.77430
C         -5.36450        5.20380        7.48600
C         -4.06600        5.81450        7.97770
C         -4.33920        5.36710        3.49780
F         -5.09130        6.39560        3.05330
C         -3.41370        4.81210        2.64330
C         -0.32120        2.91830        2.57110
C          0.64860        2.33920        1.71630
C          0.30230        1.95200        0.41340
C          1.32430        1.34320       -0.45140
C          1.20900        0.02150       -0.86610
C          2.22270       -0.57000       -1.59140
C          3.35710        0.14400       -1.95510
S          4.65010       -0.67460       -2.86040
C          4.72290        0.37810       -4.36130
C          3.41520        0.35400       -5.12760
C          3.44720        1.47150       -1.55390
C          2.45650        2.06920       -0.80320
F          4.52050        2.21460       -1.89340
C         -1.01390        2.13690        0.03250
S         -1.70370        1.70490       -1.51140
C          1.90420        2.17950        2.35390
C          1.91670        2.63350        3.63860
S          0.37000        3.30400        4.12380
C          2.99720        2.57580        4.57070
C          4.20330        1.95790        4.41450
C          5.04040        2.06430        5.55510
C          6.34090        1.56720        5.72910
C          7.00210        0.71280        4.73450
C          6.38290       -0.44170        4.25860
C          7.06200       -1.31340        3.43190
C          8.36790       -1.04910        3.03670
S          9.22580       -2.21330        2.00630
C         10.70590       -2.55640        3.02940
C         10.33540       -3.17200        4.36350
C          8.94890        0.14050        3.45960
F         10.19000        0.47530        3.04320
C          8.29460        1.00560        4.31110
C          6.97060        1.87040        6.92920
C          6.35690        2.61560        7.96430
C          5.05190        3.09780        7.79900
C          4.36710        3.87790        8.83770
C          4.94840        5.01790        9.38950
C          4.26650        5.76990       10.32180
C          2.99210        5.40870       10.75740
S          2.23880        6.44050       11.97910
C          0.45690        6.43270       11.55730
C          0.20020        6.90150       10.13940
C          2.44360        4.24460       10.22830
C          3.10150        3.49950        9.27140
F          1.23660        3.79460       10.63870
C          4.42720        2.80650        6.59560
S          2.82950        3.32980        6.14220
C          7.19760        2.71520        9.11330
C          8.38010        2.08900        8.95420
S          8.56280        1.33440        7.40680
H          9.19370       -6.80560        1.59520
H          8.03860       -4.50710        1.13240
H          7.79780       -2.94050       -0.90980
H          7.97040       -0.59790       -0.32720
H          8.37690        1.15400        0.81780
H          7.73120        2.77430        1.11840
H          6.89600        2.93690       -1.19940
H          8.62490        2.56340       -1.23250
H          7.43080        1.29810       -1.55350
H          3.82110       -3.05790        0.67830
H          7.01510       -9.18230       -2.22990
H          6.64740      -11.54410       -2.62690
H          6.51620      -13.66980       -2.59800
H          5.44570      -15.00120       -3.05550
H          5.73340      -12.40740       -4.66590
H          6.46740      -13.95750       -5.09580
H          4.70860      -13.78110       -5.08050
H          2.97830       -8.76840       -0.85790
H          2.89050       -7.42830       -2.92460
H          1.70760       -2.83890       -3.61630
H         -1.60620        0.87120       -4.73580
H          0.39700       -0.71840       -4.20650
H         -2.67540       -5.92620       -4.85230
H         -4.90090       -2.92750       -4.77620
H         -4.70030       -5.36200       -6.61280
H         -6.82680       -4.76860       -8.33490
H        -10.62140       -3.37410      -11.54460
H         -8.65810       -4.44220      -10.19740
H         -9.89190       -1.76110       -4.90620
H        -12.54460       -0.94270       -7.29820
H        -12.39500        0.97580       -5.88320
H         -8.77750        0.51120       -6.74960
H         -7.15680       -1.00200       -6.30550
H         -5.92100       -1.78930       -8.27740
H         -1.33150       -1.13080       -9.74680
H         -1.81860       -0.38430       -8.21240
H         -2.91240       -2.58540       -7.56200
H         -1.16570       -2.74590       -7.78020
H         -2.27380       -3.30090       -9.04290
H         -4.59260        2.41900       -6.08550
H         -7.78000        0.72370       -0.02880
H         -8.77660        1.40530        2.12430
H        -10.27980        5.60560        3.93590
H        -10.31600        5.81260        2.17450
H         -7.95810        4.68870        3.78910
H         -7.97250        4.91310        2.03610
H         -8.02420        6.31400        3.10890
H         -9.88200        3.90640       -1.97500
H         -6.04810        2.53820       -0.46680
H         -4.14190        3.11940        0.77980
H         -2.21190        2.44230        4.72340
H         -3.85190        3.43010        6.21000
H         -5.36230        4.11610        7.54490
H         -6.21200        5.57900        8.05970
H         -3.22330        5.48470        7.37340
H         -3.88880        5.52010        9.01050
H         -4.11970        6.89970        7.92830
H         -3.29540        5.22750        1.65460
H          0.33500       -0.55120       -0.59680
H          2.15430       -1.60840       -1.86960
H          5.53220       -0.05700       -4.94660
H          5.00070        1.38740       -4.06440
H          3.51140        0.93820       -6.04060
H          2.61070        0.78060       -4.52980
H          3.14890       -0.66690       -5.39440
H          2.57710        3.09560       -0.49280
H          2.75290        1.72300        1.88010
H          4.49390        1.45280        3.51200
H          5.37690       -0.67500        4.57090
H          6.59320       -2.22270        3.08830
H         11.26640       -1.63140        3.14880
H         11.28720       -3.24840        2.42040
H          9.75520       -4.08090        4.21660
H         11.23890       -3.41950        4.91710
H          9.74490       -2.47760        4.95960
H          8.79390        1.90950        4.62280
H          5.92550        5.33330        9.05650
H          4.70970        6.66410       10.73190
H          0.03110        7.12570       12.28330
H          0.05410        5.43870       11.73840
H         -0.87200        6.96580        9.96460
H          0.62320        6.20780        9.41540
H          0.64070        7.88280        9.97580
H          2.62610        2.60770        8.89380
H          6.90550        3.22220       10.01500
H          9.18660        2.01200        9.65690
