
  xtb     03042207243D
 energy: -420.940541492000 gnorm: 0.000246171240 xtb: 6.4.1 (unknown)
242267  0     0  0            999 V2000
    8.3210   -6.6287    0.9972 C   0  0  0  0  0  0  0  0  0  0  0  0
    7.7118   -5.4544    0.7435 C   0  0  0  0  0  0  0  0  0  0  0  0
    6.5724   -5.5959   -0.1035 C   0  0  0  0  0  0  0  0  0  0  0  0
    5.6836   -4.6034   -0.5310 C   0  0  0  0  0  0  0  0  0  0  0  0
    5.8096   -3.1859   -0.1595 C   0  0  0  0  0  0  0  0  0  0  0  0
    6.9628   -2.4589   -0.4256 C   0  0  0  0  0  0  0  0  0  0  0  0
    7.0570   -1.1194   -0.0976 C   0  0  0  0  0  0  0  0  0  0  0  0
    6.0017   -0.4652    0.5238 C   0  0  0  0  0  0  0  0  0  0  0  0
    5.9969    1.2134    1.0608 S   0  0  0  0  0  0  0  0  0  0  0  0
    7.6094    1.8684    0.5238 C   0  0  0  0  0  0  0  0  0  0  0  0
    7.6421    2.1841   -0.9590 C   0  0  0  0  0  0  0  0  0  0  0  0
    4.8478   -1.2054    0.7767 C   0  0  0  0  0  0  0  0  0  0  0  0
    3.8054   -0.5937    1.3893 F   0  0  0  0  0  0  0  0  0  0  0  0
    4.7353   -2.5347    0.4455 C   0  0  0  0  0  0  0  0  0  0  0  0
    4.6307   -5.0233   -1.3271 C   0  0  0  0  0  0  0  0  0  0  0  0
    4.3905   -6.3698   -1.6921 C   0  0  0  0  0  0  0  0  0  0  0  0
    5.2680   -7.3678   -1.2370 C   0  0  0  0  0  0  0  0  0  0  0  0
    5.0335   -8.7882   -1.5204 C   0  0  0  0  0  0  0  0  0  0  0  0
    6.0459   -9.6048   -2.0136 C   0  0  0  0  0  0  0  0  0  0  0  0
    5.8312  -10.9489   -2.2515 C   0  0  0  0  0  0  0  0  0  0  0  0
    4.5919  -11.5269   -2.0031 C   0  0  0  0  0  0  0  0  0  0  0  0
    4.1809  -13.2256   -2.2226 S   0  0  0  0  0  0  0  0  0  0  0  0
    5.6014  -13.9250   -3.1312 C   0  0  0  0  0  0  0  0  0  0  0  0
    5.6301  -13.4872   -4.5835 C   0  0  0  0  0  0  0  0  0  0  0  0
    3.5860  -10.6960   -1.5045 C   0  0  0  0  0  0  0  0  0  0  0  0
    3.7857   -9.3561   -1.2660 C   0  0  0  0  0  0  0  0  0  0  0  0
    2.3739  -11.2250   -1.2391 F   0  0  0  0  0  0  0  0  0  0  0  0
    6.3497   -6.9457   -0.4722 C   0  0  0  0  0  0  0  0  0  0  0  0
    7.5609   -7.9866    0.2350 S   0  0  0  0  0  0  0  0  0  0  0  0
    3.2433   -6.4935   -2.5268 C   0  0  0  0  0  0  0  0  0  0  0  0
    2.6404   -5.3026   -2.7961 C   0  0  0  0  0  0  0  0  0  0  0  0
    3.4619   -3.9542   -2.0258 S   0  0  0  0  0  0  0  0  0  0  0  0
    1.4417   -4.9673   -3.4964 C   0  0  0  0  0  0  0  0  0  0  0  0
    0.1913   -6.1187   -3.9198 S   0  0  0  0  0  0  0  0  0  0  0  0
   -0.8856   -4.8261   -4.3938 C   0  0  0  0  0  0  0  0  0  0  0  0
   -0.2513   -3.5763   -4.2604 C   0  0  0  0  0  0  0  0  0  0  0  0
    1.0638   -3.6841   -3.7769 C   0  0  0  0  0  0  0  0  0  0  0  0
   -0.9935   -2.4078   -4.5127 C   0  0  0  0  0  0  0  0  0  0  0  0
   -2.3461   -2.5561   -4.8264 C   0  0  0  0  0  0  0  0  0  0  0  0
   -3.1074   -1.0100   -5.0540 S   0  0  0  0  0  0  0  0  0  0  0  0
   -1.6191   -0.2007   -4.7177 C   0  0  0  0  0  0  0  0  0  0  0  0
   -0.5986   -1.0430   -4.4478 C   0  0  0  0  0  0  0  0  0  0  0  0
   -2.9808   -3.8075   -4.9628 C   0  0  0  0  0  0  0  0  0  0  0  0
   -2.2195   -4.9521   -4.7722 C   0  0  0  0  0  0  0  0  0  0  0  0
   -4.4019   -3.7761   -5.2339 C   0  0  0  0  0  0  0  0  0  0  0  0
   -5.1357   -4.5556   -6.0398 C   0  0  0  0  0  0  0  0  0  0  0  0
   -6.5156   -4.2232   -6.2800 C   0  0  0  0  0  0  0  0  0  0  0  0
   -7.4199   -3.3930   -5.0268 S   0  0  0  0  0  0  0  0  0  0  0  0
   -8.6913   -3.0167   -6.1527 C   0  0  0  0  0  0  0  0  0  0  0  0
   -8.4401   -3.5837   -7.4157 C   0  0  0  0  0  0  0  0  0  0  0  0
   -7.2140   -4.2927   -7.4515 C   0  0  0  0  0  0  0  0  0  0  0  0
   -9.3536   -3.2897   -8.4484 C   0  0  0  0  0  0  0  0  0  0  0  0
  -10.3959   -2.3863   -8.1833 C   0  0  0  0  0  0  0  0  0  0  0  0
  -11.3568   -2.1069   -9.6058 S   0  0  0  0  0  0  0  0  0  0  0  0
  -10.3777   -3.2029  -10.5145 C   0  0  0  0  0  0  0  0  0  0  0  0
   -9.3689   -3.7425   -9.7967 C   0  0  0  0  0  0  0  0  0  0  0  0
  -10.5879   -1.7696   -6.9340 C   0  0  0  0  0  0  0  0  0  0  0  0
   -9.7497   -2.1556   -5.8991 C   0  0  0  0  0  0  0  0  0  0  0  0
  -11.6255   -0.7626   -6.7550 C   0  0  0  0  0  0  0  0  0  0  0  0
  -11.5243    0.3450   -6.0085 C   0  0  0  0  0  0  0  0  0  0  0  0
  -10.3336    0.7840   -5.3120 C   0  0  0  0  0  0  0  0  0  0  0  0
   -9.0453    0.7868   -5.7461 C   0  0  0  0  0  0  0  0  0  0  0  0
   -8.1023    1.1888   -4.7612 C   0  0  0  0  0  0  0  0  0  0  0  0
   -6.6984    1.2082   -4.8444 C   0  0  0  0  0  0  0  0  0  0  0  0
   -5.9780    0.7619   -6.0435 C   0  0  0  0  0  0  0  0  0  0  0  0
   -6.3364   -0.4198   -6.6884 C   0  0  0  0  0  0  0  0  0  0  0  0
   -5.6343   -0.8722   -7.7863 C   0  0  0  0  0  0  0  0  0  0  0  0
   -4.5430   -0.1653   -8.2707 C   0  0  0  0  0  0  0  0  0  0  0  0
   -3.6652   -0.7486   -9.7037 S   0  0  0  0  0  0  0  0  0  0  0  0
   -2.0553   -1.1638   -8.9337 C   0  0  0  0  0  0  0  0  0  0  0  0
   -2.1046   -2.5351   -8.2895 C   0  0  0  0  0  0  0  0  0  0  0  0
   -4.1945    1.0167   -7.6273 C   0  0  0  0  0  0  0  0  0  0  0  0
   -3.1446    1.7395   -8.0671 F   0  0  0  0  0  0  0  0  0  0  0  0
   -4.8913    1.4832   -6.5314 C   0  0  0  0  0  0  0  0  0  0  0  0
   -6.0131    1.6001   -3.7008 C   0  0  0  0  0  0  0  0  0  0  0  0
   -6.6607    1.9476   -2.4906 C   0  0  0  0  0  0  0  0  0  0  0  0
   -8.0614    1.9360   -2.4113 C   0  0  0  0  0  0  0  0  0  0  0  0
   -8.7310    2.2825   -1.1488 C   0  0  0  0  0  0  0  0  0  0  0  0
   -8.4455    1.5727    0.0158 C   0  0  0  0  0  0  0  0  0  0  0  0
   -9.0049    1.9475    1.2198 C   0  0  0  0  0  0  0  0  0  0  0  0
   -9.8562    3.0432    1.3014 C   0  0  0  0  0  0  0  0  0  0  0  0
  -10.4994    3.5179    2.8873 S   0  0  0  0  0  0  0  0  0  0  0  0
   -9.8802    5.2400    2.9909 C   0  0  0  0  0  0  0  0  0  0  0  0
   -8.3659    5.2896    2.9793 C   0  0  0  0  0  0  0  0  0  0  0  0
  -10.1738    3.7107    0.1234 C   0  0  0  0  0  0  0  0  0  0  0  0
   -9.6233    3.3463   -1.0898 C   0  0  0  0  0  0  0  0  0  0  0  0
  -11.0242    4.7565    0.1432 F   0  0  0  0  0  0  0  0  0  0  0  0
   -8.7470    1.5635   -3.5538 C   0  0  0  0  0  0  0  0  0  0  0  0
  -10.4772    1.3883   -3.6705 S   0  0  0  0  0  0  0  0  0  0  0  0
   -5.7414    2.2472   -1.4544 C   0  0  0  0  0  0  0  0  0  0  0  0
   -4.4365    2.1012   -1.8234 C   0  0  0  0  0  0  0  0  0  0  0  0
   -4.2812    1.6408   -3.5038 S   0  0  0  0  0  0  0  0  0  0  0  0
   -3.2868    2.2500   -0.9878 C   0  0  0  0  0  0  0  0  0  0  0  0
   -3.2649    2.7508    0.2810 C   0  0  0  0  0  0  0  0  0  0  0  0
   -1.9849    2.7196    0.8867 C   0  0  0  0  0  0  0  0  0  0  0  0
   -1.6341    3.1368    2.1819 C   0  0  0  0  0  0  0  0  0  0  0  0
   -2.6225    3.7496    3.0776 C   0  0  0  0  0  0  0  0  0  0  0  0
   -2.7986    3.2781    4.3750 C   0  0  0  0  0  0  0  0  0  0  0  0
   -3.7349    3.8403    5.2203 C   0  0  0  0  0  0  0  0  0  0  0  0
   -4.5237    4.9060    4.8024 C   0  0  0  0  0  0  0  0  0  0  0  0
   -5.7618    5.6986    5.7743 S   0  0  0  0  0  0  0  0  0  0  0  0
   -5.3645    5.2038    7.4860 C   0  0  0  0  0  0  0  0  0  0  0  0
   -4.0660    5.8145    7.9777 C   0  0  0  0  0  0  0  0  0  0  0  0
   -4.3392    5.3671    3.4978 C   0  0  0  0  0  0  0  0  0  0  0  0
   -5.0913    6.3956    3.0533 F   0  0  0  0  0  0  0  0  0  0  0  0
   -3.4137    4.8121    2.6433 C   0  0  0  0  0  0  0  0  0  0  0  0
   -0.3212    2.9183    2.5711 C   0  0  0  0  0  0  0  0  0  0  0  0
    0.6486    2.3392    1.7163 C   0  0  0  0  0  0  0  0  0  0  0  0
    0.3023    1.9520    0.4134 C   0  0  0  0  0  0  0  0  0  0  0  0
    1.3243    1.3432   -0.4514 C   0  0  0  0  0  0  0  0  0  0  0  0
    1.2090    0.0215   -0.8661 C   0  0  0  0  0  0  0  0  0  0  0  0
    2.2227   -0.5700   -1.5914 C   0  0  0  0  0  0  0  0  0  0  0  0
    3.3571    0.1440   -1.9551 C   0  0  0  0  0  0  0  0  0  0  0  0
    4.6501   -0.6746   -2.8604 S   0  0  0  0  0  0  0  0  0  0  0  0
    4.7229    0.3781   -4.3613 C   0  0  0  0  0  0  0  0  0  0  0  0
    3.4152    0.3540   -5.1276 C   0  0  0  0  0  0  0  0  0  0  0  0
    3.4472    1.4715   -1.5539 C   0  0  0  0  0  0  0  0  0  0  0  0
    2.4565    2.0692   -0.8032 C   0  0  0  0  0  0  0  0  0  0  0  0
    4.5205    2.2146   -1.8934 F   0  0  0  0  0  0  0  0  0  0  0  0
   -1.0139    2.1369    0.0325 C   0  0  0  0  0  0  0  0  0  0  0  0
   -1.7037    1.7049   -1.5114 S   0  0  0  0  0  0  0  0  0  0  0  0
    1.9042    2.1795    2.3539 C   0  0  0  0  0  0  0  0  0  0  0  0
    1.9167    2.6335    3.6386 C   0  0  0  0  0  0  0  0  0  0  0  0
    0.3700    3.3040    4.1238 S   0  0  0  0  0  0  0  0  0  0  0  0
    2.9972    2.5758    4.5707 C   0  0  0  0  0  0  0  0  0  0  0  0
    4.2033    1.9579    4.4145 C   0  0  0  0  0  0  0  0  0  0  0  0
    5.0404    2.0643    5.5551 C   0  0  0  0  0  0  0  0  0  0  0  0
    6.3409    1.5672    5.7291 C   0  0  0  0  0  0  0  0  0  0  0  0
    7.0021    0.7128    4.7345 C   0  0  0  0  0  0  0  0  0  0  0  0
    6.3829   -0.4417    4.2586 C   0  0  0  0  0  0  0  0  0  0  0  0
    7.0620   -1.3134    3.4319 C   0  0  0  0  0  0  0  0  0  0  0  0
    8.3679   -1.0491    3.0367 C   0  0  0  0  0  0  0  0  0  0  0  0
    9.2258   -2.2133    2.0063 S   0  0  0  0  0  0  0  0  0  0  0  0
   10.7059   -2.5564    3.0294 C   0  0  0  0  0  0  0  0  0  0  0  0
   10.3354   -3.1720    4.3635 C   0  0  0  0  0  0  0  0  0  0  0  0
    8.9489    0.1405    3.4596 C   0  0  0  0  0  0  0  0  0  0  0  0
   10.1900    0.4753    3.0432 F   0  0  0  0  0  0  0  0  0  0  0  0
    8.2946    1.0056    4.3111 C   0  0  0  0  0  0  0  0  0  0  0  0
    6.9706    1.8704    6.9292 C   0  0  0  0  0  0  0  0  0  0  0  0
    6.3569    2.6156    7.9643 C   0  0  0  0  0  0  0  0  0  0  0  0
    5.0519    3.0978    7.7990 C   0  0  0  0  0  0  0  0  0  0  0  0
    4.3671    3.8779    8.8377 C   0  0  0  0  0  0  0  0  0  0  0  0
    4.9484    5.0179    9.3895 C   0  0  0  0  0  0  0  0  0  0  0  0
    4.2665    5.7699   10.3218 C   0  0  0  0  0  0  0  0  0  0  0  0
    2.9921    5.4087   10.7574 C   0  0  0  0  0  0  0  0  0  0  0  0
    2.2388    6.4405   11.9791 S   0  0  0  0  0  0  0  0  0  0  0  0
    0.4569    6.4327   11.5573 C   0  0  0  0  0  0  0  0  0  0  0  0
    0.2002    6.9015   10.1394 C   0  0  0  0  0  0  0  0  0  0  0  0
    2.4436    4.2446   10.2283 C   0  0  0  0  0  0  0  0  0  0  0  0
    3.1015    3.4995    9.2714 C   0  0  0  0  0  0  0  0  0  0  0  0
    1.2366    3.7946   10.6387 F   0  0  0  0  0  0  0  0  0  0  0  0
    4.4272    2.8065    6.5956 C   0  0  0  0  0  0  0  0  0  0  0  0
    2.8295    3.3298    6.1422 S   0  0  0  0  0  0  0  0  0  0  0  0
    7.1976    2.7152    9.1133 C   0  0  0  0  0  0  0  0  0  0  0  0
    8.3801    2.0890    8.9542 C   0  0  0  0  0  0  0  0  0  0  0  0
    8.5628    1.3344    7.4068 S   0  0  0  0  0  0  0  0  0  0  0  0
    9.1937   -6.8056    1.5952 H   0  0  0  0  0  0  0  0  0  0  0  0
    8.0386   -4.5071    1.1324 H   0  0  0  0  0  0  0  0  0  0  0  0
    7.7978   -2.9405   -0.9098 H   0  0  0  0  0  0  0  0  0  0  0  0
    7.9704   -0.5979   -0.3272 H   0  0  0  0  0  0  0  0  0  0  0  0
    8.3769    1.1540    0.8178 H   0  0  0  0  0  0  0  0  0  0  0  0
    7.7312    2.7743    1.1184 H   0  0  0  0  0  0  0  0  0  0  0  0
    6.8960    2.9369   -1.1994 H   0  0  0  0  0  0  0  0  0  0  0  0
    8.6249    2.5634   -1.2325 H   0  0  0  0  0  0  0  0  0  0  0  0
    7.4308    1.2981   -1.5535 H   0  0  0  0  0  0  0  0  0  0  0  0
    3.8211   -3.0579    0.6783 H   0  0  0  0  0  0  0  0  0  0  0  0
    7.0151   -9.1823   -2.2299 H   0  0  0  0  0  0  0  0  0  0  0  0
    6.6474  -11.5441   -2.6269 H   0  0  0  0  0  0  0  0  0  0  0  0
    6.5162  -13.6698   -2.5980 H   0  0  0  0  0  0  0  0  0  0  0  0
    5.4457  -15.0012   -3.0555 H   0  0  0  0  0  0  0  0  0  0  0  0
    5.7334  -12.4074   -4.6659 H   0  0  0  0  0  0  0  0  0  0  0  0
    6.4674  -13.9575   -5.0958 H   0  0  0  0  0  0  0  0  0  0  0  0
    4.7086  -13.7811   -5.0805 H   0  0  0  0  0  0  0  0  0  0  0  0
    2.9783   -8.7684   -0.8579 H   0  0  0  0  0  0  0  0  0  0  0  0
    2.8905   -7.4283   -2.9246 H   0  0  0  0  0  0  0  0  0  0  0  0
    1.7076   -2.8389   -3.6163 H   0  0  0  0  0  0  0  0  0  0  0  0
   -1.6062    0.8712   -4.7358 H   0  0  0  0  0  0  0  0  0  0  0  0
    0.3970   -0.7184   -4.2065 H   0  0  0  0  0  0  0  0  0  0  0  0
   -2.6754   -5.9262   -4.8523 H   0  0  0  0  0  0  0  0  0  0  0  0
   -4.9009   -2.9275   -4.7762 H   0  0  0  0  0  0  0  0  0  0  0  0
   -4.7003   -5.3620   -6.6128 H   0  0  0  0  0  0  0  0  0  0  0  0
   -6.8268   -4.7686   -8.3349 H   0  0  0  0  0  0  0  0  0  0  0  0
  -10.6214   -3.3741  -11.5446 H   0  0  0  0  0  0  0  0  0  0  0  0
   -8.6581   -4.4422  -10.1974 H   0  0  0  0  0  0  0  0  0  0  0  0
   -9.8919   -1.7611   -4.9062 H   0  0  0  0  0  0  0  0  0  0  0  0
  -12.5446   -0.9427   -7.2982 H   0  0  0  0  0  0  0  0  0  0  0  0
  -12.3950    0.9758   -5.8832 H   0  0  0  0  0  0  0  0  0  0  0  0
   -8.7775    0.5112   -6.7496 H   0  0  0  0  0  0  0  0  0  0  0  0
   -7.1568   -1.0020   -6.3055 H   0  0  0  0  0  0  0  0  0  0  0  0
   -5.9210   -1.7893   -8.2774 H   0  0  0  0  0  0  0  0  0  0  0  0
   -1.3315   -1.1308   -9.7468 H   0  0  0  0  0  0  0  0  0  0  0  0
   -1.8186   -0.3843   -8.2124 H   0  0  0  0  0  0  0  0  0  0  0  0
   -2.9124   -2.5854   -7.5620 H   0  0  0  0  0  0  0  0  0  0  0  0
   -1.1657   -2.7459   -7.7802 H   0  0  0  0  0  0  0  0  0  0  0  0
   -2.2738   -3.3009   -9.0429 H   0  0  0  0  0  0  0  0  0  0  0  0
   -4.5926    2.4190   -6.0855 H   0  0  0  0  0  0  0  0  0  0  0  0
   -7.7800    0.7237   -0.0288 H   0  0  0  0  0  0  0  0  0  0  0  0
   -8.7766    1.4053    2.1243 H   0  0  0  0  0  0  0  0  0  0  0  0
  -10.2798    5.6056    3.9359 H   0  0  0  0  0  0  0  0  0  0  0  0
  -10.3160    5.8126    2.1745 H   0  0  0  0  0  0  0  0  0  0  0  0
   -7.9581    4.6887    3.7891 H   0  0  0  0  0  0  0  0  0  0  0  0
   -7.9725    4.9131    2.0361 H   0  0  0  0  0  0  0  0  0  0  0  0
   -8.0242    6.3140    3.1089 H   0  0  0  0  0  0  0  0  0  0  0  0
   -9.8820    3.9064   -1.9750 H   0  0  0  0  0  0  0  0  0  0  0  0
   -6.0481    2.5382   -0.4668 H   0  0  0  0  0  0  0  0  0  0  0  0
   -4.1419    3.1194    0.7798 H   0  0  0  0  0  0  0  0  0  0  0  0
   -2.2119    2.4423    4.7234 H   0  0  0  0  0  0  0  0  0  0  0  0
   -3.8519    3.4301    6.2100 H   0  0  0  0  0  0  0  0  0  0  0  0
   -5.3623    4.1161    7.5449 H   0  0  0  0  0  0  0  0  0  0  0  0
   -6.2120    5.5790    8.0597 H   0  0  0  0  0  0  0  0  0  0  0  0
   -3.2233    5.4847    7.3734 H   0  0  0  0  0  0  0  0  0  0  0  0
   -3.8888    5.5201    9.0105 H   0  0  0  0  0  0  0  0  0  0  0  0
   -4.1197    6.8997    7.9283 H   0  0  0  0  0  0  0  0  0  0  0  0
   -3.2954    5.2275    1.6546 H   0  0  0  0  0  0  0  0  0  0  0  0
    0.3350   -0.5512   -0.5968 H   0  0  0  0  0  0  0  0  0  0  0  0
    2.1543   -1.6084   -1.8696 H   0  0  0  0  0  0  0  0  0  0  0  0
    5.5322   -0.0570   -4.9466 H   0  0  0  0  0  0  0  0  0  0  0  0
    5.0007    1.3874   -4.0644 H   0  0  0  0  0  0  0  0  0  0  0  0
    3.5114    0.9382   -6.0406 H   0  0  0  0  0  0  0  0  0  0  0  0
    2.6107    0.7806   -4.5298 H   0  0  0  0  0  0  0  0  0  0  0  0
    3.1489   -0.6669   -5.3944 H   0  0  0  0  0  0  0  0  0  0  0  0
    2.5771    3.0956   -0.4928 H   0  0  0  0  0  0  0  0  0  0  0  0
    2.7529    1.7230    1.8801 H   0  0  0  0  0  0  0  0  0  0  0  0
    4.4939    1.4528    3.5120 H   0  0  0  0  0  0  0  0  0  0  0  0
    5.3769   -0.6750    4.5709 H   0  0  0  0  0  0  0  0  0  0  0  0
    6.5932   -2.2227    3.0883 H   0  0  0  0  0  0  0  0  0  0  0  0
   11.2664   -1.6314    3.1488 H   0  0  0  0  0  0  0  0  0  0  0  0
   11.2872   -3.2484    2.4204 H   0  0  0  0  0  0  0  0  0  0  0  0
    9.7552   -4.0809    4.2166 H   0  0  0  0  0  0  0  0  0  0  0  0
   11.2389   -3.4195    4.9171 H   0  0  0  0  0  0  0  0  0  0  0  0
    9.7449   -2.4776    4.9596 H   0  0  0  0  0  0  0  0  0  0  0  0
    8.7939    1.9095    4.6228 H   0  0  0  0  0  0  0  0  0  0  0  0
    5.9255    5.3333    9.0565 H   0  0  0  0  0  0  0  0  0  0  0  0
    4.7097    6.6641   10.7319 H   0  0  0  0  0  0  0  0  0  0  0  0
    0.0311    7.1257   12.2833 H   0  0  0  0  0  0  0  0  0  0  0  0
    0.0541    5.4387   11.7384 H   0  0  0  0  0  0  0  0  0  0  0  0
   -0.8720    6.9658    9.9646 H   0  0  0  0  0  0  0  0  0  0  0  0
    0.6232    6.2078    9.4154 H   0  0  0  0  0  0  0  0  0  0  0  0
    0.6407    7.8828    9.9758 H   0  0  0  0  0  0  0  0  0  0  0  0
    2.6261    2.6077    8.8938 H   0  0  0  0  0  0  0  0  0  0  0  0
    6.9055    3.2222   10.0150 H   0  0  0  0  0  0  0  0  0  0  0  0
    9.1866    2.0120    9.6569 H   0  0  0  0  0  0  0  0  0  0  0  0
  1  2  2  0  0  0  0
  2  3  1  0  0  0  0
  3  4  2  0  0  0  0
  4  5  1  0  0  0  0
  5  6  2  0  0  0  0
  6  7  1  0  0  0  0
  7  8  2  0  0  0  0
  8  9  1  0  0  0  0
  9 10  1  0  0  0  0
 10 11  1  0  0  0  0
  8 12  1  0  0  0  0
 12 13  1  0  0  0  0
 12 14  2  0  0  0  0
  4 15  1  0  0  0  0
 15 16  2  0  0  0  0
 16 17  1  0  0  0  0
 17 18  1  0  0  0  0
 18 19  2  0  0  0  0
 19 20  1  0  0  0  0
 20 21  2  0  0  0  0
 21 22  1  0  0  0  0
 22 23  1  0  0  0  0
 23 24  1  0  0  0  0
 21 25  1  0  0  0  0
 25 26  2  0  0  0  0
 25 27  1  0  0  0  0
 17 28  2  0  0  0  0
 28 29  1  0  0  0  0
 16 30  1  0  0  0  0
 30 31  2  0  0  0  0
 31 32  1  0  0  0  0
 31 33  1  0  0  0  0
 33 34  1  0  0  0  0
 34 35  1  0  0  0  0
 35 36  2  0  0  0  0
 36 37  1  0  0  0  0
 36 38  1  0  0  0  0
 38 39  2  0  0  0  0
 39 40  1  0  0  0  0
 40 41  1  0  0  0  0
 41 42  2  0  0  0  0
 39 43  1  0  0  0  0
 43 44  2  0  0  0  0
 43 45  1  0  0  0  0
 45 46  2  0  0  0  0
 46 47  1  0  0  0  0
 47 48  1  0  0  0  0
 48 49  1  0  0  0  0
 49 50  2  0  0  0  0
 50 51  1  0  0  0  0
 50 52  1  0  0  0  0
 52 53  2  0  0  0  0
 53 54  1  0  0  0  0
 54 55  1  0  0  0  0
 55 56  2  0  0  0  0
 53 57  1  0  0  0  0
 57 58  2  0  0  0  0
 57 59  1  0  0  0  0
 59 60  2  0  0  0  0
 60 61  1  0  0  0  0
 61 62  2  0  0  0  0
 62 63  1  0  0  0  0
 63 64  2  0  0  0  0
 64 65  1  0  0  0  0
 65 66  2  0  0  0  0
 66 67  1  0  0  0  0
 67 68  2  0  0  0  0
 68 69  1  0  0  0  0
 69 70  1  0  0  0  0
 70 71  1  0  0  0  0
 68 72  1  0  0  0  0
 72 73  1  0  0  0  0
 72 74  2  0  0  0  0
 64 75  1  0  0  0  0
 75 76  2  0  0  0  0
 76 77  1  0  0  0  0
 77 78  1  0  0  0  0
 78 79  2  0  0  0  0
 79 80  1  0  0  0  0
 80 81  2  0  0  0  0
 81 82  1  0  0  0  0
 82 83  1  0  0  0  0
 83 84  1  0  0  0  0
 81 85  1  0  0  0  0
 85 86  2  0  0  0  0
 85 87  1  0  0  0  0
 77 88  2  0  0  0  0
 88 89  1  0  0  0  0
 76 90  1  0  0  0  0
 90 91  2  0  0  0  0
 91 92  1  0  0  0  0
 91 93  1  0  0  0  0
 93 94  2  0  0  0  0
 94 95  1  0  0  0  0
 95 96  2  0  0  0  0
 96 97  1  0  0  0  0
 97 98  2  0  0  0  0
 98 99  1  0  0  0  0
 99100  2  0  0  0  0
100101  1  0  0  0  0
101102  1  0  0  0  0
102103  1  0  0  0  0
100104  1  0  0  0  0
104105  1  0  0  0  0
104106  2  0  0  0  0
 96107  1  0  0  0  0
107108  2  0  0  0  0
108109  1  0  0  0  0
109110  1  0  0  0  0
110111  2  0  0  0  0
111112  1  0  0  0  0
112113  2  0  0  0  0
113114  1  0  0  0  0
114115  1  0  0  0  0
115116  1  0  0  0  0
113117  1  0  0  0  0
117118  2  0  0  0  0
117119  1  0  0  0  0
109120  2  0  0  0  0
120121  1  0  0  0  0
108122  1  0  0  0  0
122123  2  0  0  0  0
123124  1  0  0  0  0
123125  1  0  0  0  0
125126  2  0  0  0  0
126127  1  0  0  0  0
127128  2  0  0  0  0
128129  1  0  0  0  0
129130  2  0  0  0  0
130131  1  0  0  0  0
131132  2  0  0  0  0
132133  1  0  0  0  0
133134  1  0  0  0  0
134135  1  0  0  0  0
132136  1  0  0  0  0
136137  1  0  0  0  0
136138  2  0  0  0  0
128139  1  0  0  0  0
139140  2  0  0  0  0
140141  1  0  0  0  0
141142  1  0  0  0  0
142143  2  0  0  0  0
143144  1  0  0  0  0
144145  2  0  0  0  0
145146  1  0  0  0  0
146147  1  0  0  0  0
147148  1  0  0  0  0
145149  1  0  0  0  0
149150  2  0  0  0  0
149151  1  0  0  0  0
141152  2  0  0  0  0
152153  1  0  0  0  0
140154  1  0  0  0  0
154155  2  0  0  0  0
155156  1  0  0  0  0
 29  1  1  0  0  0  0
 37 33  2  0  0  0  0
 42 38  1  0  0  0  0
 51 47  2  0  0  0  0
 56 52  1  0  0  0  0
 89 61  1  0  0  0  0
121 93  1  0  0  0  0
153125  1  0  0  0  0
 28  3  1  0  0  0  0
 44 35  1  0  0  0  0
 58 49  1  0  0  0  0
 88 63  1  0  0  0  0
120 95  1  0  0  0  0
152127  1  0  0  0  0
 14  5  1  0  0  0  0
 32 15  1  0  0  0  0
 74 65  1  0  0  0  0
 92 75  1  0  0  0  0
106 97  1  0  0  0  0
124107  1  0  0  0  0
138129  1  0  0  0  0
156139  1  0  0  0  0
 26 18  1  0  0  0  0
 86 78  1  0  0  0  0
118110  1  0  0  0  0
150142  1  0  0  0  0
  1157  1  0  0  0  0
  2158  1  0  0  0  0
  6159  1  0  0  0  0
  7160  1  0  0  0  0
 10161  1  0  0  0  0
 10162  1  0  0  0  0
 11163  1  0  0  0  0
 11164  1  0  0  0  0
 11165  1  0  0  0  0
 14166  1  0  0  0  0
 19167  1  0  0  0  0
 20168  1  0  0  0  0
 23169  1  0  0  0  0
 23170  1  0  0  0  0
 24171  1  0  0  0  0
 24172  1  0  0  0  0
 24173  1  0  0  0  0
 26174  1  0  0  0  0
 30175  1  0  0  0  0
 37176  1  0  0  0  0
 41177  1  0  0  0  0
 42178  1  0  0  0  0
 44179  1  0  0  0  0
 45180  1  0  0  0  0
 46181  1  0  0  0  0
 51182  1  0  0  0  0
 55183  1  0  0  0  0
 56184  1  0  0  0  0
 58185  1  0  0  0  0
 59186  1  0  0  0  0
 60187  1  0  0  0  0
 62188  1  0  0  0  0
 66189  1  0  0  0  0
 67190  1  0  0  0  0
 70191  1  0  0  0  0
 70192  1  0  0  0  0
 71193  1  0  0  0  0
 71194  1  0  0  0  0
 71195  1  0  0  0  0
 74196  1  0  0  0  0
 79197  1  0  0  0  0
 80198  1  0  0  0  0
 83199  1  0  0  0  0
 83200  1  0  0  0  0
 84201  1  0  0  0  0
 84202  1  0  0  0  0
 84203  1  0  0  0  0
 86204  1  0  0  0  0
 90205  1  0  0  0  0
 94206  1  0  0  0  0
 98207  1  0  0  0  0
 99208  1  0  0  0  0
102209  1  0  0  0  0
102210  1  0  0  0  0
103211  1  0  0  0  0
103212  1  0  0  0  0
103213  1  0  0  0  0
106214  1  0  0  0  0
111215  1  0  0  0  0
112216  1  0  0  0  0
115217  1  0  0  0  0
115218  1  0  0  0  0
116219  1  0  0  0  0
116220  1  0  0  0  0
116221  1  0  0  0  0
118222  1  0  0  0  0
122223  1  0  0  0  0
126224  1  0  0  0  0
130225  1  0  0  0  0
131226  1  0  0  0  0
134227  1  0  0  0  0
134228  1  0  0  0  0
135229  1  0  0  0  0
135230  1  0  0  0  0
135231  1  0  0  0  0
138232  1  0  0  0  0
143233  1  0  0  0  0
144234  1  0  0  0  0
147235  1  0  0  0  0
147236  1  0  0  0  0
148237  1  0  0  0  0
148238  1  0  0  0  0
148239  1  0  0  0  0
150240  1  0  0  0  0
154241  1  0  0  0  0
155242  1  0  0  0  0
M  END
