192

C         12.62620        1.03620       14.32710
C         12.55580        0.52390       13.08170
C         11.50870        1.09980       12.30520
C         11.11260        0.76450       11.00010
C         11.86350       -0.18910       10.20070
S         11.08930       -1.54300        9.43410
C         12.57260       -2.09280        8.73290
C         12.60340       -3.27970        7.83510
C         12.15870       -2.90040        6.42050
C         13.59590       -1.25890        9.07220
Cl        15.21830       -1.47150        8.55390
C         13.19950       -0.18150        9.90920
Cl        14.29010        1.04100       10.42120
C          9.97180        1.38480       10.50940
C          9.25330        2.35770       11.24380
C          9.66900        2.72400       12.53590
C          8.92300        3.70440       13.30540
S          7.19690        3.55700       13.49580
C          7.09090        5.00120       14.44690
C          5.77670        5.49480       14.94310
C          4.76320        5.64390       13.80890
C          8.32900        5.54700       14.60480
C          9.36840        4.81600       13.96380
Cl        10.99230        5.36060       13.95200
Cl         8.63860        6.98790       15.48430
C         10.78900        2.07260       13.04120
S         11.43710        2.24940       14.64580
C          8.15590        2.86620       10.51070
C          8.00320        2.29020        9.28160
S          9.25390        1.11260        8.94470
C          6.95070        2.53970        8.35940
S          6.93280        1.86980        6.74020
C          5.38230        2.58140        6.34520
C          4.92830        3.29490        7.43180
C          5.79930        3.27130        8.55200
N          5.17260        3.97660        9.54920
C          3.95010        4.41230        9.10570
S          2.86590        5.26970        9.97880
N          3.81640        4.00890        7.80290
C          4.71260        2.37870        5.10760
C          3.69830        3.14920        4.61410
C          3.10520        2.61770        3.44660
C          1.96950        3.09220        2.76800
C          1.23350        4.24360        3.26210
S          0.81920        5.56990        2.21750
C          0.04090        6.43900        3.49460
C         -0.53400        7.79430        3.27340
C          0.48960        8.88340        3.60420
C          0.10710        5.73380        4.65980
Cl        -0.55210        6.27440        6.15160
C          0.77720        4.48880        4.52920
Cl         0.89180        3.38210        5.84080
C          1.56850        2.38190        1.64460
C          2.23560        1.21680        1.19220
C          3.36970        0.73950        1.87570
C          4.07350       -0.45430        1.43840
S          3.23570       -1.95290        1.15660
C          4.69310       -2.78190        0.73340
C          4.67200       -4.20060        0.28320
C          4.47190       -4.28150       -1.23240
C          5.75710       -1.93310        0.80200
C          5.41240       -0.61580        1.20740
Cl         6.56910        0.64520        1.29390
Cl         7.36980       -2.39270        0.44070
C          3.76850        1.44680        3.00190
S          5.05300        0.99850        4.08890
C          1.59930        0.65520        0.05930
C          0.48150        1.33090       -0.33120
S          0.17090        2.73590        0.66860
C         -0.42140        0.97170       -1.37330
C         -1.52970        1.64450       -1.79530
C         -2.25610        0.96080       -2.80050
C         -3.44700        1.35970       -3.43490
C         -4.05750        2.64820       -3.14930
S         -3.15380        4.12540       -3.31660
C         -4.50650        5.09890       -2.85260
C         -4.42310        6.58520       -2.83780
C         -4.78450        7.16520       -4.20750
C         -5.58830        4.31230       -2.59060
Cl        -7.11560        4.91930       -2.09610
C         -5.33710        2.92320       -2.75340
Cl        -6.51580        1.73260       -2.39150
C         -4.00530        0.46720       -4.33820
C         -3.43200       -0.79450       -4.63730
C         -2.21560       -1.16930       -4.04110
C         -1.57220       -2.42640       -4.38080
S         -1.07050       -3.55000       -3.15340
C         -0.46640       -4.67620       -4.32200
C          0.16670       -5.95420       -3.89500
C          1.45740       -5.70030       -3.11570
C         -0.64070       -4.18970       -5.58310
C         -1.27140       -2.91670       -5.62140
Cl        -1.53910       -2.06520       -7.08750
Cl        -0.16060       -5.01500       -7.00940
C         -1.66820       -0.28720       -3.11970
S         -0.20440       -0.54920       -2.21720
C         -4.23500       -1.54760       -5.52540
C         -5.35470       -0.88720       -5.94120
S         -5.46750        0.72090       -5.24800
C         -6.38000       -1.37510       -6.79090
S         -6.30740       -2.99150       -7.47420
C         -7.85910       -2.84280       -8.27500
C         -8.37480       -1.59310       -8.01410
C         -7.55290       -0.77820       -7.19180
N         -8.21920        0.40680       -7.01130
C         -9.41950        0.36100       -7.67090
S        -10.55090        1.53960       -7.72920
N         -9.50280       -0.86090       -8.28780
C         -8.44460       -3.89930       -9.02480
C         -9.54410       -3.80490       -9.82940
C         -9.95000       -5.04210      -10.38240
C        -11.06390       -5.29350      -11.20200
C        -11.98370       -4.22170      -11.54430
S        -12.66740       -3.21190      -10.29920
C        -13.55370       -2.25600      -11.44060
C        -14.38700       -1.10660      -10.99190
C        -13.57990       -0.11750      -10.15130
C        -13.32730       -2.71050      -12.70450
Cl       -14.02430       -2.02110      -14.11330
C        -12.44190       -3.82310      -12.76810
Cl       -11.94030       -4.50440      -14.25740
C        -11.24680       -6.60470      -11.62600
C        -10.37100       -7.65740      -11.26220
C         -9.27740       -7.40770      -10.41820
C         -8.40840       -8.48280       -9.96560
S         -6.68510       -8.41170      -10.17660
C         -6.45080       -9.94320       -9.40770
C         -5.09810      -10.55490       -9.29380
C         -4.78690      -11.42560      -10.51370
C         -7.64740      -10.46760       -9.01820
C         -8.75960       -9.64060       -9.32900
Cl       -10.36560      -10.03730       -8.87070
Cl        -7.81470      -11.97550       -8.21650
C         -9.08350       -6.09600      -10.00810
S         -7.82120       -5.53380       -8.94610
C        -10.77140       -8.89620      -11.84200
C        -11.90730       -8.79380      -12.56150
S        -12.55940       -7.19360      -12.60390
H         13.31520        0.77820       15.10750
H         13.20530       -0.25050       12.71840
H         13.62110       -3.67290        7.80820
H         11.93940       -4.05110        8.22910
H         12.18070       -3.77410        5.77490
H         11.14690       -2.50230        6.43770
H         12.82200       -2.14470        6.00720
H          5.38280        4.79470       15.68520
H          5.93650        6.45610       15.43390
H          3.82500        6.03360       14.19310
H          5.13390        6.32960       13.05100
H          4.56840        4.68020       13.34380
H          7.52030        3.64830       10.87720
H          5.48350        4.11410       10.49590
H          2.96350        4.12600        7.27710
H          3.40830        4.08520        5.05120
H         -0.84520        7.88870        2.23220
H         -1.40980        7.91330        3.91440
H          0.05460        9.86540        3.44000
H          1.36900        8.78050        2.97280
H          0.79680        8.80820        4.64410
H          5.62000       -4.67010        0.55210
H          3.86170       -4.72970        0.78700
H          5.28770       -3.77960       -1.74600
H          4.44460       -5.31960       -1.55120
H          3.53660       -3.80450       -1.51510
H          1.94340       -0.22710       -0.44860
H         -1.82220        2.59310       -1.38260
H         -3.41030        6.88900       -2.56840
H         -5.11670        6.96740       -2.08630
H         -4.72380        8.24970       -4.18100
H         -4.09980        6.79520       -4.96700
H         -5.79640        6.87930       -4.48240
H         -0.53010       -6.51080       -3.26360
H          0.37750       -6.54930       -4.78470
H          1.90370       -6.64430       -2.81540
H          2.17050       -5.15760       -3.73130
H          1.24710       -5.11280       -2.22500
H         -4.01450       -2.55380       -5.83120
H         -7.91600        1.19580       -6.46460
H        -10.31980       -1.15600       -8.79520
H        -10.03500       -2.87670      -10.04860
H        -15.22810       -1.47690      -10.39920
H        -14.78700       -0.60940      -11.87690
H        -13.21610       -0.59650       -9.24510
H        -14.20130        0.72610       -9.86530
H        -12.72920        0.25930      -10.71380
H         -4.35060       -9.76490       -9.20860
H         -5.06550      -11.16870       -8.39150
H         -3.79840      -11.86580      -10.41530
H         -5.51730      -12.22580      -10.60140
H         -4.81460      -10.82770      -11.42140
H        -10.22030       -9.81060      -11.72410
H        -12.42170       -9.56970      -13.09410
