
  xtb     03052207093D
 energy: -418.436173377172 gnorm: 0.000264587612 xtb: 6.4.1 (unknown)
224245  0     0  0            999 V2000
  -15.4482    3.3122    5.4153 C   0  0  0  0  0  0  0  0  0  0  0  0
  -14.3847    4.0979    5.1511 C   0  0  0  0  0  0  0  0  0  0  0  0
  -13.1828    3.3573    4.9431 C   0  0  0  0  0  0  0  0  0  0  0  0
  -11.9014    3.8509    4.6485 C   0  0  0  0  0  0  0  0  0  0  0  0
  -11.6201    5.2912    4.6037 C   0  0  0  0  0  0  0  0  0  0  0  0
  -10.9435    5.8616    3.5306 C   0  0  0  0  0  0  0  0  0  0  0  0
  -10.6597    7.2137    3.4986 C   0  0  0  0  0  0  0  0  0  0  0  0
  -11.0438    8.0471    4.5426 C   0  0  0  0  0  0  0  0  0  0  0  0
  -10.7319    9.7763    4.6533 S   0  0  0  0  0  0  0  0  0  0  0  0
  -10.1117   10.2342    2.9986 C   0  0  0  0  0  0  0  0  0  0  0  0
  -11.2109   10.2466    1.9529 C   0  0  0  0  0  0  0  0  0  0  0  0
  -11.7145    7.4587    5.6175 C   0  0  0  0  0  0  0  0  0  0  0  0
  -12.0913    8.2331    6.6551 F   0  0  0  0  0  0  0  0  0  0  0  0
  -12.0042    6.1145    5.6613 C   0  0  0  0  0  0  0  0  0  0  0  0
  -10.9082    2.9071    4.4286 C   0  0  0  0  0  0  0  0  0  0  0  0
  -11.1381    1.5160    4.5496 C   0  0  0  0  0  0  0  0  0  0  0  0
  -12.4092    1.0208    4.8816 C   0  0  0  0  0  0  0  0  0  0  0  0
  -12.6006   -0.4278    5.0213 C   0  0  0  0  0  0  0  0  0  0  0  0
  -13.5882   -1.1125    4.3164 C   0  0  0  0  0  0  0  0  0  0  0  0
  -13.6444   -2.4902    4.3498 C   0  0  0  0  0  0  0  0  0  0  0  0
  -12.7332   -3.2372    5.0952 C   0  0  0  0  0  0  0  0  0  0  0  0
  -12.8250   -4.9976    5.0191 S   0  0  0  0  0  0  0  0  0  0  0  0
  -11.0524   -5.4952    5.0616 C   0  0  0  0  0  0  0  0  0  0  0  0
  -10.8809   -6.8074    4.3249 C   0  0  0  0  0  0  0  0  0  0  0  0
  -11.8117   -2.5342    5.8671 C   0  0  0  0  0  0  0  0  0  0  0  0
  -11.7292   -1.1590    5.8250 C   0  0  0  0  0  0  0  0  0  0  0  0
  -10.9539   -3.1845    6.6858 F   0  0  0  0  0  0  0  0  0  0  0  0
  -13.4131    1.9623    5.0429 C   0  0  0  0  0  0  0  0  0  0  0  0
  -15.0792    1.6218    5.4286 S   0  0  0  0  0  0  0  0  0  0  0  0
   -9.9710    0.7631    4.2776 C   0  0  0  0  0  0  0  0  0  0  0  0
   -8.8789    1.5230    3.9886 C   0  0  0  0  0  0  0  0  0  0  0  0
   -9.2386    3.2382    4.0219 S   0  0  0  0  0  0  0  0  0  0  0  0
   -7.5845    1.0087    3.6817 C   0  0  0  0  0  0  0  0  0  0  0  0
   -6.4714    1.6432    3.2197 C   0  0  0  0  0  0  0  0  0  0  0  0
   -5.3772    0.7665    2.9971 C   0  0  0  0  0  0  0  0  0  0  0  0
   -4.0921    1.0744    2.5302 C   0  0  0  0  0  0  0  0  0  0  0  0
   -3.6914    2.4215    2.1011 C   0  0  0  0  0  0  0  0  0  0  0  0
   -4.4086    3.1058    1.1228 C   0  0  0  0  0  0  0  0  0  0  0  0
   -3.9512    4.3168    0.6407 C   0  0  0  0  0  0  0  0  0  0  0  0
   -2.7772    4.8756    1.1246 C   0  0  0  0  0  0  0  0  0  0  0  0
   -2.1491    6.3967    0.4345 S   0  0  0  0  0  0  0  0  0  0  0  0
   -1.2907    5.6853   -1.0216 C   0  0  0  0  0  0  0  0  0  0  0  0
   -0.1089    4.8197   -0.6327 C   0  0  0  0  0  0  0  0  0  0  0  0
   -2.0950    4.2098    2.1344 C   0  0  0  0  0  0  0  0  0  0  0  0
   -0.9657    4.7300    2.6446 F   0  0  0  0  0  0  0  0  0  0  0  0
   -2.5333    2.9928    2.6184 C   0  0  0  0  0  0  0  0  0  0  0  0
   -3.1937    0.0228    2.4374 C   0  0  0  0  0  0  0  0  0  0  0  0
   -3.5004   -1.3152    2.7893 C   0  0  0  0  0  0  0  0  0  0  0  0
   -4.7890   -1.6264    3.2506 C   0  0  0  0  0  0  0  0  0  0  0  0
   -5.1940   -2.9817    3.6440 C   0  0  0  0  0  0  0  0  0  0  0  0
   -4.4589   -3.7231    4.5637 C   0  0  0  0  0  0  0  0  0  0  0  0
   -4.9001   -4.9581    5.0004 C   0  0  0  0  0  0  0  0  0  0  0  0
   -6.0953   -5.4949    4.5346 C   0  0  0  0  0  0  0  0  0  0  0  0
   -6.7818   -7.0428    5.0200 S   0  0  0  0  0  0  0  0  0  0  0  0
   -5.9524   -7.4184    6.6022 C   0  0  0  0  0  0  0  0  0  0  0  0
   -6.3599   -6.4589    7.7035 C   0  0  0  0  0  0  0  0  0  0  0  0
   -6.8017   -4.7567    3.5838 C   0  0  0  0  0  0  0  0  0  0  0  0
   -6.3742   -3.5272    3.1403 C   0  0  0  0  0  0  0  0  0  0  0  0
   -7.9512   -5.2569    3.0878 F   0  0  0  0  0  0  0  0  0  0  0  0
   -5.6915   -0.5752    3.3298 C   0  0  0  0  0  0  0  0  0  0  0  0
   -7.3332   -0.7149    3.8892 S   0  0  0  0  0  0  0  0  0  0  0  0
   -2.4131   -2.1924    2.5338 C   0  0  0  0  0  0  0  0  0  0  0  0
   -1.3312   -1.5694    1.9896 C   0  0  0  0  0  0  0  0  0  0  0  0
   -1.5823    0.1562    1.7922 S   0  0  0  0  0  0  0  0  0  0  0  0
   -0.0853   -2.1092    1.5514 C   0  0  0  0  0  0  0  0  0  0  0  0
    0.7953   -1.4764    0.7250 C   0  0  0  0  0  0  0  0  0  0  0  0
    1.9577   -2.2302    0.4385 C   0  0  0  0  0  0  0  0  0  0  0  0
    3.0129   -1.8909   -0.4277 C   0  0  0  0  0  0  0  0  0  0  0  0
    3.0456   -0.5834   -1.0906 C   0  0  0  0  0  0  0  0  0  0  0  0
    2.7336    0.5864   -0.3933 C   0  0  0  0  0  0  0  0  0  0  0  0
    2.6980    1.8013   -1.0373 C   0  0  0  0  0  0  0  0  0  0  0  0
    3.0112    1.9284   -2.3945 C   0  0  0  0  0  0  0  0  0  0  0  0
    2.9521    3.5791   -3.0173 S   0  0  0  0  0  0  0  0  0  0  0  0
    3.0241    3.5126   -4.8456 C   0  0  0  0  0  0  0  0  0  0  0  0
    4.4381    3.5752   -5.3895 C   0  0  0  0  0  0  0  0  0  0  0  0
    3.3633    0.7633   -3.0639 C   0  0  0  0  0  0  0  0  0  0  0  0
    3.7123    0.7766   -4.3714 F   0  0  0  0  0  0  0  0  0  0  0  0
    3.3622   -0.4684   -2.4389 C   0  0  0  0  0  0  0  0  0  0  0  0
    3.9717   -2.8725   -0.6392 C   0  0  0  0  0  0  0  0  0  0  0  0
    3.9383   -4.1432   -0.0039 C   0  0  0  0  0  0  0  0  0  0  0  0
    2.8946   -4.4667    0.8830 C   0  0  0  0  0  0  0  0  0  0  0  0
    2.8087   -5.7773    1.5364 C   0  0  0  0  0  0  0  0  0  0  0  0
    2.6328   -5.8752    2.9162 C   0  0  0  0  0  0  0  0  0  0  0  0
    2.5323   -7.1070    3.5225 C   0  0  0  0  0  0  0  0  0  0  0  0
    2.5969   -8.2938    2.7893 C   0  0  0  0  0  0  0  0  0  0  0  0
    2.4985   -9.7830    3.7280 S   0  0  0  0  0  0  0  0  0  0  0  0
    1.8107  -11.0526    2.6042 C   0  0  0  0  0  0  0  0  0  0  0  0
    0.4184  -10.6964    2.1236 C   0  0  0  0  0  0  0  0  0  0  0  0
    2.7845   -8.1786    1.4142 C   0  0  0  0  0  0  0  0  0  0  0  0
    2.8806   -6.9497    0.7925 C   0  0  0  0  0  0  0  0  0  0  0  0
    2.8720   -9.2685    0.6229 F   0  0  0  0  0  0  0  0  0  0  0  0
    1.9275   -3.4947    1.0793 C   0  0  0  0  0  0  0  0  0  0  0  0
    0.4770   -3.6937    2.0344 S   0  0  0  0  0  0  0  0  0  0  0  0
    5.0197   -4.9677   -0.3983 C   0  0  0  0  0  0  0  0  0  0  0  0
    5.8287   -4.3734   -1.3247 C   0  0  0  0  0  0  0  0  0  0  0  0
    5.3428   -2.7345   -1.7015 S   0  0  0  0  0  0  0  0  0  0  0  0
    6.8925   -4.9273   -2.0892 C   0  0  0  0  0  0  0  0  0  0  0  0
    7.3807   -4.1812   -3.0893 O   0  0  0  0  0  0  0  0  0  0  0  0
    8.2997   -4.9001   -3.7701 C   0  0  0  0  0  0  0  0  0  0  0  0
    8.4359   -6.1415   -3.1812 C   0  0  0  0  0  0  0  0  0  0  0  0
    7.5174   -6.1713   -2.0921 C   0  0  0  0  0  0  0  0  0  0  0  0
    7.2624   -7.2255   -1.2021 C   0  0  0  0  0  0  0  0  0  0  0  0
    7.0189   -8.0712   -0.4685 N   0  0  0  0  0  0  0  0  0  0  0  0
    9.3777   -7.2327   -3.5593 C   0  0  0  0  0  0  0  0  0  0  0  0
    9.6596   -8.0356   -2.5285 F   0  0  0  0  0  0  0  0  0  0  0  0
    8.8918   -8.0136   -4.5356 F   0  0  0  0  0  0  0  0  0  0  0  0
   10.5497   -6.7392   -3.9931 F   0  0  0  0  0  0  0  0  0  0  0  0
    8.8648   -4.1883   -4.8800 C   0  0  0  0  0  0  0  0  0  0  0  0
    8.6532   -2.8575   -4.8154 O   0  0  0  0  0  0  0  0  0  0  0  0
    9.1395   -2.2770   -5.9239 C   0  0  0  0  0  0  0  0  0  0  0  0
    9.6821   -3.2505   -6.7443 C   0  0  0  0  0  0  0  0  0  0  0  0
    9.5024   -4.4975   -6.0713 C   0  0  0  0  0  0  0  0  0  0  0  0
    9.8404   -5.7662   -6.5761 C   0  0  0  0  0  0  0  0  0  0  0  0
   10.0921   -6.7900   -7.0212 N   0  0  0  0  0  0  0  0  0  0  0  0
   10.3156   -3.0346   -8.0740 C   0  0  0  0  0  0  0  0  0  0  0  0
   10.6706   -4.1676   -8.6790 F   0  0  0  0  0  0  0  0  0  0  0  0
   11.4261   -2.2777   -7.9911 F   0  0  0  0  0  0  0  0  0  0  0  0
    9.4908   -2.3897   -8.9240 F   0  0  0  0  0  0  0  0  0  0  0  0
    9.0166   -0.8529   -5.9665 C   0  0  0  0  0  0  0  0  0  0  0  0
    8.3920   -0.1472   -4.9739 C   0  0  0  0  0  0  0  0  0  0  0  0
    8.4838    1.2539   -5.1338 C   0  0  0  0  0  0  0  0  0  0  0  0
    8.0516    2.2599   -4.2446 C   0  0  0  0  0  0  0  0  0  0  0  0
    7.5078    1.9149   -2.9276 C   0  0  0  0  0  0  0  0  0  0  0  0
    6.4451    2.6156   -2.3603 C   0  0  0  0  0  0  0  0  0  0  0  0
    5.9318    2.2724   -1.1262 C   0  0  0  0  0  0  0  0  0  0  0  0
    6.4333    1.1878   -0.4174 C   0  0  0  0  0  0  0  0  0  0  0  0
    5.7881    0.6061    1.1153 S   0  0  0  0  0  0  0  0  0  0  0  0
    5.0981    2.1158    1.8800 C   0  0  0  0  0  0  0  0  0  0  0  0
    6.1679    3.1481    2.1755 C   0  0  0  0  0  0  0  0  0  0  0  0
    7.5071    0.5014   -0.9829 C   0  0  0  0  0  0  0  0  0  0  0  0
    8.0427   -0.5464   -0.3243 F   0  0  0  0  0  0  0  0  0  0  0  0
    8.0588    0.8634   -2.1905 C   0  0  0  0  0  0  0  0  0  0  0  0
    8.2201    3.5693   -4.6818 C   0  0  0  0  0  0  0  0  0  0  0  0
    8.8363    3.9018   -5.9152 C   0  0  0  0  0  0  0  0  0  0  0  0
    9.3271    2.8988   -6.7635 C   0  0  0  0  0  0  0  0  0  0  0  0
   10.0405    3.2078   -8.0082 C   0  0  0  0  0  0  0  0  0  0  0  0
    9.6857    2.5941   -9.2056 C   0  0  0  0  0  0  0  0  0  0  0  0
   10.3638    2.8648  -10.3784 C   0  0  0  0  0  0  0  0  0  0  0  0
   11.4278    3.7595  -10.3961 C   0  0  0  0  0  0  0  0  0  0  0  0
   12.3986    4.1869  -11.7986 S   0  0  0  0  0  0  0  0  0  0  0  0
   11.5895    3.3348  -13.1957 C   0  0  0  0  0  0  0  0  0  0  0  0
   10.3215    4.0358  -13.6464 C   0  0  0  0  0  0  0  0  0  0  0  0
   11.7762    4.3630   -9.1845 C   0  0  0  0  0  0  0  0  0  0  0  0
   11.1075    4.1053   -8.0103 C   0  0  0  0  0  0  0  0  0  0  0  0
   12.8083    5.2298   -9.1602 F   0  0  0  0  0  0  0  0  0  0  0  0
    9.1283    1.5889   -6.3514 C   0  0  0  0  0  0  0  0  0  0  0  0
    9.6899    0.1725   -7.2038 S   0  0  0  0  0  0  0  0  0  0  0  0
    8.8801    5.3129   -6.1226 C   0  0  0  0  0  0  0  0  0  0  0  0
    8.3629    6.0119   -5.0933 C   0  0  0  0  0  0  0  0  0  0  0  0
    7.7767    5.0152   -3.8082 S   0  0  0  0  0  0  0  0  0  0  0  0
  -16.4593    3.6157    5.6048 H   0  0  0  0  0  0  0  0  0  0  0  0
  -14.4379    5.1694    5.0861 H   0  0  0  0  0  0  0  0  0  0  0  0
  -10.6472    5.2440    2.6966 H   0  0  0  0  0  0  0  0  0  0  0  0
  -10.1277    7.6100    2.6495 H   0  0  0  0  0  0  0  0  0  0  0  0
   -9.2910    9.5676    2.7373 H   0  0  0  0  0  0  0  0  0  0  0  0
   -9.7091   11.2362    3.1471 H   0  0  0  0  0  0  0  0  0  0  0  0
  -10.8035   10.5524    0.9911 H   0  0  0  0  0  0  0  0  0  0  0  0
  -11.6602    9.2619    1.8435 H   0  0  0  0  0  0  0  0  0  0  0  0
  -11.9911   10.9480    2.2389 H   0  0  0  0  0  0  0  0  0  0  0  0
  -12.5041    5.7118    6.5283 H   0  0  0  0  0  0  0  0  0  0  0  0
  -14.2855   -0.5636    3.7027 H   0  0  0  0  0  0  0  0  0  0  0  0
  -14.3869   -3.0198    3.7737 H   0  0  0  0  0  0  0  0  0  0  0  0
  -10.4863   -4.7029    4.5750 H   0  0  0  0  0  0  0  0  0  0  0  0
  -10.7470   -5.5833    6.1031 H   0  0  0  0  0  0  0  0  0  0  0  0
  -11.4521   -7.5977    4.8064 H   0  0  0  0  0  0  0  0  0  0  0  0
  -11.2176   -6.7123    3.2955 H   0  0  0  0  0  0  0  0  0  0  0  0
   -9.8286   -7.0828    4.3199 H   0  0  0  0  0  0  0  0  0  0  0  0
  -10.9928   -0.6638    6.4393 H   0  0  0  0  0  0  0  0  0  0  0  0
   -9.9436   -0.3116    4.2711 H   0  0  0  0  0  0  0  0  0  0  0  0
   -6.4313    2.7041    3.0477 H   0  0  0  0  0  0  0  0  0  0  0  0
   -5.3088    2.6686    0.7179 H   0  0  0  0  0  0  0  0  0  0  0  0
   -4.4961    4.8391   -0.1309 H   0  0  0  0  0  0  0  0  0  0  0  0
   -2.0270    5.1279   -1.6014 H   0  0  0  0  0  0  0  0  0  0  0  0
   -0.9692    6.5579   -1.5884 H   0  0  0  0  0  0  0  0  0  0  0  0
    0.5582    5.3696    0.0274 H   0  0  0  0  0  0  0  0  0  0  0  0
    0.4450    4.5261   -1.5227 H   0  0  0  0  0  0  0  0  0  0  0  0
   -0.4411    3.9184   -0.1193 H   0  0  0  0  0  0  0  0  0  0  0  0
   -1.9691    2.5023    3.3961 H   0  0  0  0  0  0  0  0  0  0  0  0
   -3.5439   -3.3164    4.9674 H   0  0  0  0  0  0  0  0  0  0  0  0
   -4.3027   -5.5001    5.7157 H   0  0  0  0  0  0  0  0  0  0  0  0
   -6.2840   -8.4321    6.8268 H   0  0  0  0  0  0  0  0  0  0  0  0
   -4.8756   -7.4352    6.4387 H   0  0  0  0  0  0  0  0  0  0  0  0
   -7.4374   -6.4871    7.8470 H   0  0  0  0  0  0  0  0  0  0  0  0
   -6.0742   -5.4378    7.4593 H   0  0  0  0  0  0  0  0  0  0  0  0
   -5.8768   -6.7416    8.6368 H   0  0  0  0  0  0  0  0  0  0  0  0
   -6.9592   -3.0069    2.3987 H   0  0  0  0  0  0  0  0  0  0  0  0
   -2.4463   -3.2525    2.7116 H   0  0  0  0  0  0  0  0  0  0  0  0
    0.5839   -0.5128    0.2987 H   0  0  0  0  0  0  0  0  0  0  0  0
    2.5352    0.5398    0.6659 H   0  0  0  0  0  0  0  0  0  0  0  0
    2.4231    2.6965   -0.4985 H   0  0  0  0  0  0  0  0  0  0  0  0
    2.4573    4.3942   -5.1480 H   0  0  0  0  0  0  0  0  0  0  0  0
    2.4935    2.6230   -5.1748 H   0  0  0  0  0  0  0  0  0  0  0  0
    4.9471    4.4646   -5.0234 H   0  0  0  0  0  0  0  0  0  0  0  0
    4.4049    3.6191   -6.4762 H   0  0  0  0  0  0  0  0  0  0  0  0
    5.0096    2.6966   -5.1018 H   0  0  0  0  0  0  0  0  0  0  0  0
    3.5945   -1.3343   -3.0378 H   0  0  0  0  0  0  0  0  0  0  0  0
    2.5912   -4.9789    3.5154 H   0  0  0  0  0  0  0  0  0  0  0  0
    2.4016   -7.1788    4.5910 H   0  0  0  0  0  0  0  0  0  0  0  0
    1.7919  -11.9457    3.2295 H   0  0  0  0  0  0  0  0  0  0  0  0
    2.5026  -11.2124    1.7809 H   0  0  0  0  0  0  0  0  0  0  0  0
   -0.2438  -10.5189    2.9685 H   0  0  0  0  0  0  0  0  0  0  0  0
    0.0173  -11.5153    1.5302 H   0  0  0  0  0  0  0  0  0  0  0  0
    0.4359   -9.8025    1.5039 H   0  0  0  0  0  0  0  0  0  0  0  0
    2.9953   -6.9253   -0.2803 H   0  0  0  0  0  0  0  0  0  0  0  0
    5.1866   -5.9613   -0.0251 H   0  0  0  0  0  0  0  0  0  0  0  0
    7.8681   -0.6346   -4.1730 H   0  0  0  0  0  0  0  0  0  0  0  0
    5.9882    3.4325   -2.8934 H   0  0  0  0  0  0  0  0  0  0  0  0
    5.1175    2.8523   -0.7259 H   0  0  0  0  0  0  0  0  0  0  0  0
    4.3133    2.5082    1.2359 H   0  0  0  0  0  0  0  0  0  0  0  0
    4.6454    1.7481    2.8008 H   0  0  0  0  0  0  0  0  0  0  0  0
    6.9363    2.7231    2.8170 H   0  0  0  0  0  0  0  0  0  0  0  0
    5.7239    4.0025    2.6823 H   0  0  0  0  0  0  0  0  0  0  0  0
    6.6374    3.4951    1.2572 H   0  0  0  0  0  0  0  0  0  0  0  0
    8.9388    0.3417   -2.5302 H   0  0  0  0  0  0  0  0  0  0  0  0
    8.8538    1.9070   -9.2292 H   0  0  0  0  0  0  0  0  0  0  0  0
   10.0547    2.3623  -11.2797 H   0  0  0  0  0  0  0  0  0  0  0  0
   11.4193    2.2962  -12.9158 H   0  0  0  0  0  0  0  0  0  0  0  0
   12.3440    3.3620  -13.9820 H   0  0  0  0  0  0  0  0  0  0  0  0
    9.8912    3.5105  -14.4970 H   0  0  0  0  0  0  0  0  0  0  0  0
    9.5836    4.0681  -12.8478 H   0  0  0  0  0  0  0  0  0  0  0  0
   10.5451    5.0571  -13.9459 H   0  0  0  0  0  0  0  0  0  0  0  0
   11.4386    4.5815   -7.1007 H   0  0  0  0  0  0  0  0  0  0  0  0
    9.2739    5.7653   -7.0140 H   0  0  0  0  0  0  0  0  0  0  0  0
    8.2728    7.0762   -4.9963 H   0  0  0  0  0  0  0  0  0  0  0  0
  1  2  2  0  0  0  0
  2  3  1  0  0  0  0
  3  4  2  0  0  0  0
  4  5  1  0  0  0  0
  5  6  2  0  0  0  0
  6  7  1  0  0  0  0
  7  8  2  0  0  0  0
  8  9  1  0  0  0  0
  9 10  1  0  0  0  0
 10 11  1  0  0  0  0
  8 12  1  0  0  0  0
 12 13  1  0  0  0  0
 12 14  2  0  0  0  0
  4 15  1  0  0  0  0
 15 16  2  0  0  0  0
 16 17  1  0  0  0  0
 17 18  1  0  0  0  0
 18 19  2  0  0  0  0
 19 20  1  0  0  0  0
 20 21  2  0  0  0  0
 21 22  1  0  0  0  0
 22 23  1  0  0  0  0
 23 24  1  0  0  0  0
 21 25  1  0  0  0  0
 25 26  2  0  0  0  0
 25 27  1  0  0  0  0
 17 28  2  0  0  0  0
 28 29  1  0  0  0  0
 16 30  1  0  0  0  0
 30 31  2  0  0  0  0
 31 32  1  0  0  0  0
 31 33  1  0  0  0  0
 33 34  2  0  0  0  0
 34 35  1  0  0  0  0
 35 36  2  0  0  0  0
 36 37  1  0  0  0  0
 37 38  2  0  0  0  0
 38 39  1  0  0  0  0
 39 40  2  0  0  0  0
 40 41  1  0  0  0  0
 41 42  1  0  0  0  0
 42 43  1  0  0  0  0
 40 44  1  0  0  0  0
 44 45  1  0  0  0  0
 44 46  2  0  0  0  0
 36 47  1  0  0  0  0
 47 48  2  0  0  0  0
 48 49  1  0  0  0  0
 49 50  1  0  0  0  0
 50 51  2  0  0  0  0
 51 52  1  0  0  0  0
 52 53  2  0  0  0  0
 53 54  1  0  0  0  0
 54 55  1  0  0  0  0
 55 56  1  0  0  0  0
 53 57  1  0  0  0  0
 57 58  2  0  0  0  0
 57 59  1  0  0  0  0
 49 60  2  0  0  0  0
 60 61  1  0  0  0  0
 48 62  1  0  0  0  0
 62 63  2  0  0  0  0
 63 64  1  0  0  0  0
 63 65  1  0  0  0  0
 65 66  2  0  0  0  0
 66 67  1  0  0  0  0
 67 68  2  0  0  0  0
 68 69  1  0  0  0  0
 69 70  2  0  0  0  0
 70 71  1  0  0  0  0
 71 72  2  0  0  0  0
 72 73  1  0  0  0  0
 73 74  1  0  0  0  0
 74 75  1  0  0  0  0
 72 76  1  0  0  0  0
 76 77  1  0  0  0  0
 76 78  2  0  0  0  0
 68 79  1  0  0  0  0
 79 80  2  0  0  0  0
 80 81  1  0  0  0  0
 81 82  1  0  0  0  0
 82 83  2  0  0  0  0
 83 84  1  0  0  0  0
 84 85  2  0  0  0  0
 85 86  1  0  0  0  0
 86 87  1  0  0  0  0
 87 88  1  0  0  0  0
 85 89  1  0  0  0  0
 89 90  2  0  0  0  0
 89 91  1  0  0  0  0
 81 92  2  0  0  0  0
 92 93  1  0  0  0  0
 80 94  1  0  0  0  0
 94 95  2  0  0  0  0
 95 96  1  0  0  0  0
 95 97  1  0  0  0  0
 97 98  1  0  0  0  0
 98 99  1  0  0  0  0
 99100  2  0  0  0  0
100101  1  0  0  0  0
101102  1  0  0  0  0
102103  3  0  0  0  0
100104  1  0  0  0  0
104105  1  0  0  0  0
104106  1  0  0  0  0
104107  1  0  0  0  0
 99108  1  0  0  0  0
108109  1  0  0  0  0
109110  1  0  0  0  0
110111  2  0  0  0  0
111112  1  0  0  0  0
112113  1  0  0  0  0
113114  3  0  0  0  0
111115  1  0  0  0  0
115116  1  0  0  0  0
115117  1  0  0  0  0
115118  1  0  0  0  0
110119  1  0  0  0  0
119120  2  0  0  0  0
120121  1  0  0  0  0
121122  2  0  0  0  0
122123  1  0  0  0  0
123124  2  0  0  0  0
124125  1  0  0  0  0
125126  2  0  0  0  0
126127  1  0  0  0  0
127128  1  0  0  0  0
128129  1  0  0  0  0
126130  1  0  0  0  0
130131  1  0  0  0  0
130132  2  0  0  0  0
122133  1  0  0  0  0
133134  2  0  0  0  0
134135  1  0  0  0  0
135136  1  0  0  0  0
136137  2  0  0  0  0
137138  1  0  0  0  0
138139  2  0  0  0  0
139140  1  0  0  0  0
140141  1  0  0  0  0
141142  1  0  0  0  0
139143  1  0  0  0  0
143144  2  0  0  0  0
143145  1  0  0  0  0
135146  2  0  0  0  0
146147  1  0  0  0  0
134148  1  0  0  0  0
148149  2  0  0  0  0
149150  1  0  0  0  0
 29  1  1  0  0  0  0
 61 33  1  0  0  0  0
 93 65  1  0  0  0  0
101 97  2  0  0  0  0
112108  2  0  0  0  0
147119  1  0  0  0  0
 28  3  1  0  0  0  0
 60 35  1  0  0  0  0
 92 67  1  0  0  0  0
146121  1  0  0  0  0
 14  5  1  0  0  0  0
 32 15  1  0  0  0  0
 46 37  1  0  0  0  0
 64 47  1  0  0  0  0
 78 69  1  0  0  0  0
 96 79  1  0  0  0  0
132123  1  0  0  0  0
150133  1  0  0  0  0
 26 18  1  0  0  0  0
 58 50  1  0  0  0  0
 90 82  1  0  0  0  0
144136  1  0  0  0  0
  1151  1  0  0  0  0
  2152  1  0  0  0  0
  6153  1  0  0  0  0
  7154  1  0  0  0  0
 10155  1  0  0  0  0
 10156  1  0  0  0  0
 11157  1  0  0  0  0
 11158  1  0  0  0  0
 11159  1  0  0  0  0
 14160  1  0  0  0  0
 19161  1  0  0  0  0
 20162  1  0  0  0  0
 23163  1  0  0  0  0
 23164  1  0  0  0  0
 24165  1  0  0  0  0
 24166  1  0  0  0  0
 24167  1  0  0  0  0
 26168  1  0  0  0  0
 30169  1  0  0  0  0
 34170  1  0  0  0  0
 38171  1  0  0  0  0
 39172  1  0  0  0  0
 42173  1  0  0  0  0
 42174  1  0  0  0  0
 43175  1  0  0  0  0
 43176  1  0  0  0  0
 43177  1  0  0  0  0
 46178  1  0  0  0  0
 51179  1  0  0  0  0
 52180  1  0  0  0  0
 55181  1  0  0  0  0
 55182  1  0  0  0  0
 56183  1  0  0  0  0
 56184  1  0  0  0  0
 56185  1  0  0  0  0
 58186  1  0  0  0  0
 62187  1  0  0  0  0
 66188  1  0  0  0  0
 70189  1  0  0  0  0
 71190  1  0  0  0  0
 74191  1  0  0  0  0
 74192  1  0  0  0  0
 75193  1  0  0  0  0
 75194  1  0  0  0  0
 75195  1  0  0  0  0
 78196  1  0  0  0  0
 83197  1  0  0  0  0
 84198  1  0  0  0  0
 87199  1  0  0  0  0
 87200  1  0  0  0  0
 88201  1  0  0  0  0
 88202  1  0  0  0  0
 88203  1  0  0  0  0
 90204  1  0  0  0  0
 94205  1  0  0  0  0
120206  1  0  0  0  0
124207  1  0  0  0  0
125208  1  0  0  0  0
128209  1  0  0  0  0
128210  1  0  0  0  0
129211  1  0  0  0  0
129212  1  0  0  0  0
129213  1  0  0  0  0
132214  1  0  0  0  0
137215  1  0  0  0  0
138216  1  0  0  0  0
141217  1  0  0  0  0
141218  1  0  0  0  0
142219  1  0  0  0  0
142220  1  0  0  0  0
142221  1  0  0  0  0
144222  1  0  0  0  0
148223  1  0  0  0  0
149224  1  0  0  0  0
M  END
