248

C          0.41200       -5.67690       10.34060
C          0.36150       -4.42720        9.83790
C         -0.69010       -4.25430        8.88970
C         -1.02920       -3.10220        8.17020
C         -0.24110       -1.86170        8.21030
C          1.12580       -1.87530        7.93880
C          1.83530       -0.69500        7.83720
C          1.20570        0.53070        8.01610
S          2.13720        2.03330        7.85300
C          1.22560        2.85070        6.49080
C          1.29000        2.05240        5.20510
C         -0.14580        0.52950        8.34030
F         -0.78950        1.69430        8.56760
C         -0.87220       -0.63990        8.42460
C         -2.12620       -3.19820        7.32690
C         -2.85410       -4.39450        7.11440
C         -2.50180       -5.55250        7.82440
C         -3.18810       -6.83150        7.60510
C         -3.33700       -7.35150        6.31990
C         -3.93730       -8.57630        6.12470
C         -4.42680       -9.32390        7.19440
S         -5.20430      -10.86600        6.81450
C         -4.65990      -11.98310        8.15940
C         -3.14980      -12.07810        8.24330
C         -4.30410       -8.77500        8.46730
C         -3.68070       -7.56230        8.68040
F         -4.79930       -9.41490        9.54900
C         -1.44370       -5.44080        8.71790
S         -0.80720       -6.73000        9.70790
C         -3.87970       -4.22560        6.14260
C         -3.93200       -2.96930        5.62270
S         -2.72230       -1.90680        6.32620
C         -4.71070       -2.42940        4.55490
C         -4.74240       -1.11150        4.20990
C         -5.36820       -0.86070        2.96800
C         -5.42100        0.35590        2.27040
C         -4.93490        1.60430        2.87370
C         -3.66000        1.71430        3.42200
C         -3.25520        2.86850        4.06540
C         -4.11660        3.95310        4.18750
S         -3.74810        5.46860        5.00860
C         -2.27670        5.09010        6.01770
C         -2.60800        4.16510        7.17200
C         -5.37010        3.84940        3.58120
F         -6.21420        4.89930        3.64100
C         -5.78400        2.70760        2.93430
C         -5.93320        0.30500        0.98710
C         -6.44860       -0.87540        0.39140
C         -6.44850       -2.07920        1.11970
C         -6.94760       -3.33060        0.53450
C         -6.45810       -3.80130       -0.67950
C         -6.93300       -4.97330       -1.23580
C         -7.92040       -5.71430       -0.59700
S         -8.66270       -7.18430       -1.22530
C         -7.53070       -7.72610       -2.55190
C         -6.21120       -8.23960       -2.00790
C         -8.39330       -5.23580        0.62650
C         -7.92050       -4.07520        1.19650
F         -9.35260       -5.92800        1.27090
C         -5.88450       -2.04440        2.38610
S         -5.57180       -3.43440        3.40290
C         -6.80440       -0.67010       -0.96630
C         -6.47870        0.57530       -1.42680
S         -5.86740        1.61940       -0.15360
C         -6.35390        1.01930       -2.76960
S         -5.15590        2.22950       -3.10060
C         -5.20960        1.98280       -4.82270
C         -6.24910        1.09810       -5.13060
C         -6.84910        0.51050       -3.96580
N         -7.78700       -0.45660       -4.08140
C         -8.18110       -0.74760       -5.29220
O         -9.09800       -1.69320       -5.50320
C         -9.58970       -2.39170       -4.36180
C         -8.63270       -3.48730       -3.91290
C         -7.69830       -0.03780       -6.45270
C         -8.33740       -0.24070       -7.80280
N         -8.16220        0.87110       -8.71580
N         -6.73460        0.83160       -6.35750
C         -4.11250        2.46890       -5.56380
S         -3.02970        3.55720       -4.72220
C         -1.70910        3.24450       -5.79920
C         -2.14870        2.45360       -6.85720
C         -3.49740        1.99380       -6.72750
N         -3.98120        1.06980       -7.58610
C         -3.17140        0.65630       -8.52580
O         -3.54840       -0.27800       -9.39730
C         -4.82340       -0.88460       -9.20410
C         -4.80810       -1.87420       -8.04670
C         -1.82380        1.15810       -8.68490
C         -0.93670        0.66920       -9.79780
N          0.42210        1.16770       -9.75440
N         -1.34170        2.02940       -7.85040
C         -0.36600        3.41260       -5.39650
C          0.06200        3.74240       -4.13610
C          1.41360        3.41340       -3.89950
C          2.11300        3.43660       -2.67810
C          1.42940        3.77680       -1.42480
C          0.19530        3.19680       -1.12640
C         -0.47870        3.51950        0.03190
C          0.05650        4.43310        0.93180
S         -0.83600        4.93190        2.37960
C         -2.42900        5.41560        1.61980
C         -2.25230        6.46780        0.54480
C          1.31320        4.96200        0.65630
F          1.87830        5.82390        1.52140
C          1.99690        4.65010       -0.50210
C          3.43170        3.01260       -2.71290
C          4.07440        2.54320       -3.88890
C          3.35510        2.46990       -5.09100
C          3.88640        1.88700       -6.33220
C          4.98240        2.41840       -7.00470
C          5.33810        1.93460       -8.24690
C          4.63560        0.89240       -8.85130
S          5.11420        0.39450      -10.47170
C          3.52260       -0.11650      -11.24180
C          3.60600        0.12290      -12.73630
C          3.60640        0.30670       -8.11960
C          3.21700        0.80500       -6.89510
F          2.94780       -0.77930       -8.58450
C          2.04050        2.90360       -5.06390
S          0.92540        2.80540       -6.40770
C          5.38120        2.05980       -3.62330
C          5.72370        2.11830       -2.30540
S          4.46010        2.83050       -1.31840
C          6.89620        1.62800       -1.65720
C          7.04920        1.42600       -0.31840
C          8.29860        0.85730        0.03340
C          8.75710        0.51800        1.31630
C          7.87330        0.60600        2.48430
C          8.27330        1.22780        3.66250
C          7.43360        1.29390        4.75840
C          6.16120        0.73570        4.71650
S          4.99720        0.71700        6.03680
C          5.66860        1.89430        7.25540
C          5.53440        3.33180        6.79310
C          5.77800        0.10380        3.53150
F          4.55470       -0.46270        3.46020
C          6.60190        0.03380        2.43290
C         10.06010        0.04870        1.40200
C         10.89610       -0.12450        0.27250
C         10.42540        0.18680       -1.01210
C         11.26880        0.02060       -2.20270
C         12.53850        0.58650       -2.26330
C         13.33340        0.44390       -3.38460
C         12.88490       -0.27260       -4.48820
S         13.79820       -0.56460       -5.96590
C         15.19500        0.60820       -5.87300
C         14.75510        2.04540       -6.07800
C         11.61010       -0.83760       -4.41120
C         10.80660       -0.69860       -3.30260
F         11.14850       -1.55060       -5.45730
C          9.12650        0.66520       -1.09950
S          8.31210        1.14360       -2.56930
C         12.15550       -0.69020        0.63490
C         12.26800       -0.91930        1.95830
S         10.86180       -0.47130        2.86250
H          1.09670       -6.06910       11.06710
H          1.03030       -3.63620       10.12510
H          1.62410       -2.81630        7.76190
H          2.88480       -0.70450        7.58700
H          0.20050        3.01560        6.81790
H          1.72070        3.81530        6.38260
H          2.32180        1.82180        4.94860
H          0.74740        1.11360        5.30430
H          0.84930        2.62870        4.39300
H         -1.92050       -0.58830        8.67370
H         -2.94500       -6.80660        5.47470
H         -4.03530       -8.98440        5.13080
H         -5.09930      -12.94040        7.87860
H         -5.10110      -11.65240        9.09690
H         -2.87110      -12.81310        8.99570
H         -2.71430      -11.12030        8.52210
H         -2.73230      -12.38180        7.28550
H         -3.61440       -7.18490        9.68890
H         -4.55540       -5.00720        5.84430
H         -4.29680       -0.34450        4.81690
H         -2.96540        0.89270        3.33070
H         -2.25620        2.91890        4.46630
H         -1.49700        4.70120        5.36370
H         -1.96500        6.06930        6.38130
H         -1.74090        4.04210        7.81680
H         -2.91570        3.18430        6.81570
H         -3.41810        4.58280        7.76570
H         -6.77430        2.67240        2.50840
H         -5.67920       -3.25300       -1.18760
H         -6.53070       -5.30020       -2.18060
H         -8.08390       -8.52570       -3.04440
H         -7.40220       -6.90790       -3.25950
H         -6.38500       -9.06870       -1.32620
H         -5.67960       -7.45890       -1.46790
H         -5.58300       -8.58710       -2.82600
H         -8.32460       -3.74930        2.14200
H         -7.22120       -1.42520       -1.60600
H        -10.54100       -2.81810       -4.68700
H         -9.75610       -1.67870       -3.54860
H         -7.68620       -3.05030       -3.60460
H         -9.06350       -4.02370       -3.07210
H         -8.45250       -4.18400       -4.72840
H         -7.89640       -1.13340       -8.26380
H         -9.40340       -0.44040       -7.66800
H         -8.71970        1.66090       -8.40510
H         -7.19310        1.17590       -8.67450
H         -5.56860       -0.10660       -9.02290
H         -5.03020       -1.39030      -10.14950
H         -5.75120       -2.41210       -8.01290
H         -4.67190       -1.34260       -7.10820
H         -3.99810       -2.58920       -8.17320
H         -0.91360       -0.42540       -9.77210
H         -1.38900        0.95670      -10.75400
H          0.40660        2.18340       -9.73480
H          0.85480        0.87770       -8.88250
H         -0.60090        4.15430       -3.39660
H         -0.22870        2.46790       -1.79980
H         -1.43320        3.06200        0.24370
H         -2.92150        4.52010        1.24070
H         -3.00600        5.81220        2.45340
H         -1.72810        7.33320        0.94490
H         -1.68590        6.07650       -0.29900
H         -3.22890        6.78670        0.18700
H          2.95130        5.11690       -0.68810
H          5.52730        3.24330       -6.57120
H          6.16270        2.37260       -8.78730
H          3.36290       -1.17100      -11.02150
H          2.72730        0.47900      -10.79420
H          3.78180        1.17580      -12.94450
H          4.41600       -0.45550      -13.17530
H          2.66990       -0.17430      -13.20380
H          2.40090        0.32800       -6.37460
H          6.02500        1.64450       -4.37840
H          6.28830        1.68320        0.39670
H          9.24990        1.68330        3.72090
H          7.78600        1.78360        5.65140
H          5.05650        1.72060        8.14020
H          6.69780        1.61500        7.47700
H          6.06120        3.49820        5.85560
H          4.48470        3.57430        6.64820
H          5.94300        4.00120        7.54740
H          6.26040       -0.48610        1.55150
H         12.90370        1.16470       -1.42760
H         14.31250        0.89470       -3.38670
H         15.85050        0.28500       -6.68170
H         15.71490        0.45990       -4.92740
H         15.62030        2.70520       -6.05120
H         14.26550        2.15230       -7.04300
H         14.05620        2.35570       -5.30410
H          9.83480       -1.16620       -3.29690
H         12.92270       -0.92690       -0.07960
H         13.10370       -1.33490        2.48670
