188

C          6.59650        2.27620        2.71220
C          5.58170        2.08130        3.60940
C          5.37330        0.69350        3.84240
C          6.19890       -0.08100        3.06490
S          7.29490        0.82060        2.11190
C          5.94560       -1.52110        3.27660
C          4.51260       -1.44740        3.81050
C          4.48130       -0.18420        4.71320
C          3.02040        0.27320        4.84710
C          2.70770        1.33660        5.89180
C          5.14250       -0.46440        6.07980
C          5.87380        0.72520        6.69390
C          4.17340       -2.87550        4.19120
C          4.48330       -3.66020        2.91000
S          5.80570       -2.77700        1.95950
C          4.80160        3.22990        4.09100
C          3.75690        3.72590        3.40930
C          3.17850        3.16780        2.23010
S          3.66320        1.64920        1.54170
C          2.45150        1.68250        0.30920
C          1.70430        2.85530        0.40470
C          2.12100        3.68950        1.49240
N          1.47960        4.85620        1.75640
C          0.46760        5.14680        0.98570
O         -0.21400        6.28080        1.17320
C          0.24100        7.12010        2.22980
C         -0.65320        8.34550        2.27830
C          0.01500        4.28090       -0.07620
C         -1.21130        4.63190       -0.86150
N         -1.31120        3.81540       -2.05580
N          0.62820        3.16740       -0.34380
C          2.28910        0.56660       -0.54140
S          2.76900       -1.01120        0.01600
C          2.26620       -1.79400       -1.43890
C          1.77650       -0.85550       -2.33990
C          1.79450        0.48470       -1.83930
N          1.47170        1.52840       -2.63500
C          1.17030        1.24600       -3.87300
O          0.91230        2.21700       -4.74480
C          1.03040        3.56170       -4.27140
C          0.93070        4.48300       -5.47400
C          1.12840       -0.10990       -4.37880
C          0.83040       -0.36050       -5.82700
N          0.24890       -1.67660       -6.02540
N          1.41430       -1.12250       -3.61670
C          2.37880       -3.20010       -1.63720
C          1.44970       -4.01360       -2.27080
C          1.94800       -5.32980       -2.41050
C          3.19190       -5.48760       -1.84720
S          3.81100       -4.06330       -1.13200
C          3.61930       -6.90120       -1.91980
C          2.80350       -7.36110       -3.13220
C          1.44190       -6.63330       -3.00590
C          0.74830       -6.46740       -4.36580
C          1.51310       -5.61240       -5.37290
C          0.52200       -7.38700       -2.02410
C         -0.70090       -6.60930       -1.55480
C          3.02870       -8.85940       -3.20390
C          4.55700       -9.00330       -3.14740
S          5.28870       -7.51520       -2.31670
C          0.12470       -3.55970       -2.66780
C         -0.75950       -2.91060       -1.89280
C         -0.65990       -2.59880       -0.49530
C         -1.38300       -1.65200        0.23130
C         -1.13660       -1.77950        1.63100
C         -0.21030       -2.73830        1.92520
S          0.36480       -3.56990        0.54560
C          0.19510       -2.64650        3.34090
C         -1.07840       -2.06200        3.95770
C         -1.70040       -1.12220        2.88550
C         -3.23670       -1.27440        2.89570
C         -3.89650       -0.88160        4.21220
C         -1.30710        0.35850        3.04410
C          0.01090        0.73720        2.38120
C         -0.65490       -1.69550        5.37010
C         -0.00560       -2.98090        5.90540
S          0.59680       -4.00700        4.48270
C         -2.17580       -0.55870       -0.25190
C         -2.50970       -0.18800       -1.50330
C         -3.29550        0.97350       -1.76910
C         -3.78930        1.40830       -2.99260
C         -4.58530        2.57250       -2.84870
C         -4.68080        2.98790       -1.54390
S         -3.81870        2.00080       -0.44400
C         -5.39780        4.27420       -1.45310
C         -6.23840        4.21060       -2.73380
C         -5.32410        3.52390       -3.78450
C         -6.13290        2.75410       -4.83870
C         -7.18040        3.57790       -5.57890
C         -4.35540        4.54630       -4.40910
C         -3.26790        3.95590       -5.29940
C         -6.86270        5.59330       -2.81730
C         -7.50470        5.79410       -1.43650
S         -6.62100        4.74910       -0.18960
C         -3.54150        0.70280       -4.24640
C         -2.35200        0.28590       -4.65410
H          6.95820        3.21770        2.34810
H          6.65400       -1.93760        4.00250
H          3.88570       -1.19490        2.94320
H          2.69580        0.64030        3.87190
H          2.43130       -0.61860        5.08230
H          2.90460        0.97720        6.89840
H          3.28770        2.23640        5.71240
H          1.65290        1.60050        5.82930
H          5.87040       -1.26850        5.96060
H          4.37620       -0.82500        6.76880
H          6.69620        1.03640        6.05430
H          6.28390        0.44230        7.66160
H          5.21260        1.57300        6.83770
H          3.12970       -3.02070        4.46520
H          4.79900       -3.22150        5.01550
H          4.83220       -4.67120        3.10790
H          3.61530       -3.70510        2.25310
H          5.15200        3.73000        4.98410
H          3.25290        4.61810        3.75710
H          1.28610        7.39320        2.04350
H          0.20230        6.55960        3.17100
H         -0.60120        8.88420        1.33600
H         -0.33210        9.00210        3.08160
H         -1.68410        8.04850        2.45150
H         -1.16420        5.69020       -1.14570
H         -2.07360        4.52060       -0.17900
H         -0.93510        2.89530       -1.84280
H         -2.27500        3.71560       -2.35020
H          0.23120        3.76150       -3.54660
H          1.99240        3.66950       -3.75930
H          0.99260        5.51590       -5.14510
H         -0.01720        4.32710       -5.98170
H          1.73670        4.28470       -6.17640
H          1.78530       -0.21850       -6.36650
H          0.13990        0.40440       -6.19590
H          0.69590       -2.32110       -5.38050
H          0.41610       -2.00080       -6.97150
H          3.33650       -7.42110       -0.99610
H          3.30270       -6.92340       -4.00370
H          0.58000       -7.46130       -4.78810
H         -0.22900       -6.01490       -4.19840
H          0.86960       -5.37700       -6.21820
H          1.84120       -4.68130       -4.91710
H          2.38770       -6.13120       -5.75780
H          1.10300       -7.65830       -1.14080
H          0.19830       -8.31150       -2.50870
H         -0.40090       -5.70390       -1.03590
H         -1.27730       -7.22150       -0.86470
H         -1.34870       -6.33580       -2.38310
H          2.56740       -9.36390       -2.35390
H          2.64280       -9.29900       -4.12340
H          4.87470       -9.88420       -2.59290
H          4.99450       -9.03620       -4.14410
H         -0.17190       -3.79500       -3.67940
H         -1.70070       -2.63320       -2.34700
H          1.04960       -1.96130        3.41550
H         -1.77510       -2.90590        4.04670
H         -3.66450       -0.66430        2.09970
H         -3.48290       -2.31530        2.66870
H         -3.57320       -1.52780        5.02370
H         -4.97640       -0.97370        4.12000
H         -3.66540        0.14770        4.47280
H         -1.25620        0.59310        4.10870
H         -2.09340        0.98460        2.61570
H         -0.06110        0.65450        1.29950
H          0.26180        1.76770        2.62640
H          0.82390        0.10010        2.71720
H         -1.48830       -1.40590        6.00880
H          0.07180       -0.88180        5.35550
H          0.84270       -2.78270        6.55860
H         -0.72320       -3.60190        6.43920
H         -2.51410        0.09640        0.54010
H         -2.21000       -0.75030       -2.37130
H         -4.67740        5.10340       -1.47070
H         -7.05000        3.49880       -2.53230
H         -6.63310        1.91800       -4.34220
H         -5.43950        2.33810       -5.56890
H         -7.62410        2.97590       -6.36910
H         -7.97810        3.89120       -4.91110
H         -6.73930        4.45990       -6.03540
H         -3.86820        5.09830       -3.60190
H         -4.94010        5.26420       -4.98760
H         -3.68870        3.47710       -6.17960
H         -2.67040        3.22670       -4.75990
H         -2.60830        4.75370       -5.63350
H         -6.09660        6.35000       -2.99320
H         -7.62060        5.68100       -3.59360
H         -7.45940        6.82800       -1.09920
H         -8.54230        5.46330       -1.42520
H         -4.41660        0.52330       -4.85660
H         -2.22090       -0.26200       -5.57040
H         -1.45710        0.48650       -4.08990
