275

C         -8.94660       -9.90050       16.01970
C         -8.22280       -8.82850       15.63850
C         -8.18980       -8.65470       14.22270
C         -7.57320       -7.63360       13.48270
C         -6.73550       -6.60870       14.11840
C         -5.72970       -6.96510       15.01580
C         -4.91340       -6.00500       15.57470
C         -5.06660       -4.65520       15.26710
S         -3.99930       -3.49890       16.07990
C         -3.46940       -2.38560       14.72560
C         -2.75470       -3.14200       13.62370
C         -6.08740       -4.31160       14.38700
F         -6.31660       -3.01740       14.06840
C         -6.90380       -5.26230       13.80990
C         -7.76510       -7.65850       12.10910
C         -8.51290       -8.66200       11.44220
C         -9.13380       -9.67760       12.18580
C         -9.97480      -10.69180       11.53960
C         -9.76390      -12.05400       11.74390
C        -10.57460      -12.98500       11.13490
C        -11.63520      -12.60800       10.30710
S        -12.52500      -13.94710        9.57610
C        -14.15170      -13.30740        9.02440
C        -14.15830      -12.90740        7.56190
C        -11.83510      -11.24420       10.11980
C        -11.02430      -10.30020       10.71730
F        -12.83290      -10.77680        9.33220
C         -8.94590       -9.65140       13.56010
S         -9.64360      -10.77500       14.69910
C         -8.49060       -8.50050       10.03340
C         -7.78110       -7.40770        9.62530
S         -7.08900       -6.52190       10.97360
C         -7.56910       -6.93510        8.30480
S         -6.87630       -5.36060        8.04800
C         -6.92070       -5.51160        6.32710
C         -7.45780       -6.74320        5.97170
C         -7.82210       -7.55820        7.08560
N         -8.30710       -8.80990        6.89240
C         -8.40970       -9.20390        5.65100
O         -8.80550      -10.43900        5.35000
C         -9.10640      -11.32340        6.42610
C        -10.52860      -11.13670        6.93080
C         -8.08390       -8.35780        4.52080
C         -8.26940       -8.84980        3.11140
N         -7.91450       -7.89720        2.08240
N         -7.61810       -7.15880        4.69810
C         -6.41880       -4.52560        5.44880
C         -5.82910       -3.33940        5.78600
C         -5.37350       -2.60010        4.67140
C         -4.65590       -1.38950        4.68340
C         -4.42870       -0.69420        5.95450
C         -5.49600       -0.46510        6.82100
C         -5.29990        0.10400        8.06240
C         -4.02320        0.45080        8.49100
S         -3.65040        1.11480       10.08010
C         -5.04190        0.54130       11.12010
C         -5.09430       -0.96950       11.23750
C         -2.97170        0.26920        7.59150
F         -1.72570        0.62470        7.96000
C         -3.15530       -0.28770        6.34460
C         -4.18520       -0.93740        3.46170
C         -4.44770       -1.61080        2.24080
C         -5.18550       -2.80800        2.22880
C         -5.42760       -3.54380        0.98170
C         -6.70980       -3.95810        0.62640
C         -6.92650       -4.64420       -0.54960
C         -5.87730       -4.94270       -1.41630
S         -6.25500       -5.77660       -2.92730
C         -4.85930       -6.96270       -3.09280
C         -5.30230       -8.12580       -3.95740
C         -4.60300       -4.51920       -1.05210
C         -4.37010       -3.84450        0.12840
F         -3.54040       -4.74890       -1.85800
C         -5.63290       -3.27660        3.45230
S         -6.46790       -4.78990        3.71960
C         -3.88610       -0.93170        1.13450
C         -3.18310        0.18850        1.47490
S         -3.22720        0.49670        3.19770
C         -2.40280        0.99290        0.59000
C         -2.29380        0.83800       -0.76190
C         -1.33040        1.68730       -1.35640
C         -0.94070        1.72270       -2.70640
C         -1.65180        0.92590       -3.71370
C         -3.04260        0.98500       -3.80280
C         -3.72100        0.22370       -4.73050
C         -3.04280       -0.61910       -5.60710
S         -3.99700       -1.53680       -6.78480
C         -3.31120       -3.22770       -6.62810
C         -3.50240       -3.78930       -5.23410
C         -1.65370       -0.63930       -5.53340
F         -0.93180       -1.39910       -6.38520
C         -0.96160        0.10490       -4.59920
C          0.13890        2.53380       -3.01550
C          0.78540        3.35790       -2.05980
C          0.35160        3.37070       -0.72360
C          0.98110        4.25110        0.26770
C          1.13910        5.61280        0.01110
C          1.71030        6.44260        0.95160
C          2.16240        5.94930        2.17390
S          2.91570        7.09530        3.29150
C          2.26330        6.59790        4.92930
C          0.74880        6.61190        4.96530
C          2.02950        4.58290        2.40180
C          1.43350        3.74510        1.48140
F          2.49600        4.02380        3.53850
C         -0.67910        2.50230       -0.39750
S         -1.33850        2.24350        1.19760
C          1.89490        4.04190       -2.61780
C          2.09520        3.77250       -3.93820
S          0.88670        2.67910       -4.58460
C          3.16740        4.21290       -4.76710
C          3.45280        3.81000       -6.03700
C          4.63930        4.38110       -6.56080
C          5.21760        4.16540       -7.82200
C          4.57450        3.32050       -8.83520
C          3.23280        3.49300       -9.16730
C          2.62680        2.70650      -10.12720
C          3.33930        1.71230      -10.78860
S          2.67760        0.65270      -12.03220
C          0.88390        0.64920      -11.68690
C          0.55570        0.01790      -10.34790
C          4.68770        1.56490      -10.46220
F          5.41770        0.62520      -11.09640
C          5.30350        2.34040       -9.50620
C          6.42750        4.79860       -8.06140
C          7.06570        5.65380       -7.12820
C          6.47070        5.89080       -5.87750
C          7.07060        6.79950       -4.89440
C          7.23210        6.41330       -3.56730
C          7.76350        7.27590       -2.62850
C          8.14840        8.56400       -2.98400
S          8.81700        9.76210       -1.88550
C          8.56250        9.00580       -0.23610
C          8.90750       10.03060        0.82790
C          7.99660        8.93280       -4.32300
C          7.47080        8.08210       -5.26770
F          8.36790       10.17140       -4.70570
C          5.27810        5.22920       -5.62230
S          4.35700        5.33940       -4.14330
C          8.30360        6.14530       -7.62160
C          8.59350        5.71760       -8.88150
S          7.34090        4.67870       -9.53750
C          9.73510        5.96960       -9.69800
C          9.95530        5.41760      -10.92300
C         11.16430        5.83180      -11.53100
C         11.68050        5.41400      -12.76810
C         10.89510        4.49160      -13.59650
C         11.42780        3.29550      -14.07230
C         10.62170        2.37340      -14.70710
C          9.26300        2.61220      -14.90470
S          8.27530        1.34750      -15.64040
C          6.71370        1.45840      -14.66980
C          6.06650        0.09080      -14.59860
C          8.76720        3.85240      -14.51070
F          7.48120        4.19040      -14.75250
C          9.55580        4.77360      -13.85550
C         12.93170        5.90170      -13.11010
C         13.66390        6.79050      -12.28400
C         13.14330        7.20780      -11.04890
C         13.89430        8.09720      -10.15280
C         13.31300        9.25410       -9.63900
C         14.01690       10.07080       -8.77880
C         15.31990        9.76470       -8.39780
S         16.16450       10.89050       -7.31970
C         16.83940        9.77370       -6.03470
C         15.73860        9.02680       -5.30890
C         15.89460        8.61600       -8.93210
C         15.20000        7.78480       -9.78730
F         17.16570        8.27510       -8.62550
C         11.89030        6.72200      -10.70440
S         11.03370        7.04300       -9.21280
C         14.88810        7.18560      -12.90170
C         15.07340        6.61970      -14.11140
S         13.78480        5.57030      -14.59440
H         -9.12890      -10.25080       17.01690
H         -7.73990       -8.16060       16.32820
H         -5.56690       -8.00630       15.24850
H         -4.12990       -6.28620       16.26110
H         -2.79670       -1.68830       15.22460
H         -4.33490       -1.84070       14.35550
H         -1.93820       -3.73110       14.03570
H         -2.34190       -2.44020       12.90160
H         -3.43810       -3.81270       13.10530
H         -7.68710       -4.93600       13.14400
H         -8.95090      -12.38180       12.37260
H        -10.40340      -14.03930       11.28730
H        -14.43510      -12.48810        9.67940
H        -14.82490      -14.14780        9.19710
H        -13.51520      -12.04870        7.39050
H        -15.17090      -12.64500        7.26220
H        -13.81410      -13.73300        6.94320
H        -11.23440       -9.25580       10.54520
H         -8.96450       -9.16800        9.33840
H         -8.38840      -11.16290        7.23650
H         -8.97650      -12.32340        6.00560
H        -11.23320      -11.23880        6.10880
H        -10.64640      -10.15130        7.37470
H        -10.74180      -11.89430        7.67890
H         -9.31650       -9.14320        2.97830
H         -7.66690       -9.75570        2.97970
H         -6.95040       -7.60410        2.20770
H         -8.47750       -7.05870        2.18620
H         -5.69380       -3.03610        6.80870
H         -6.49690       -0.72470        6.51040
H         -6.15180        0.27530        8.70060
H         -5.96940        0.96140       10.73310
H         -4.83280        0.99880       12.08700
H         -4.14100       -1.34980       11.59530
H         -5.87110       -1.26010       11.94160
H         -5.30740       -1.43230       10.27610
H         -2.29980       -0.43460        5.70480
H         -7.54190       -3.72840        1.27330
H         -7.92010       -4.96340       -0.82180
H         -4.60340       -7.29250       -2.08680
H         -4.01320       -6.44110       -3.53700
H         -4.48450       -8.83520       -4.06510
H         -5.59370       -7.77670       -4.94550
H         -6.15120       -8.63480       -3.50690
H         -3.35750       -3.56570        0.37650
H         -3.99680       -1.26910        0.12110
H         -2.85640        0.11290       -1.32020
H         -3.59070        1.64200       -3.14460
H         -4.79730        0.26650       -4.79260
H         -2.26390       -3.21020       -6.92140
H         -3.87670       -3.79960       -7.36360
H         -3.11480       -4.80550       -5.19750
H         -4.55690       -3.80620       -4.96680
H         -2.96730       -3.19450       -4.49570
H          0.11380        0.02810       -4.56910
H          0.78070        6.02540       -0.91970
H          1.81530        7.49860        0.75680
H          2.66870        5.62320        5.19130
H          2.68040        7.34870        5.60060
H          0.36780        7.58680        4.66770
H          0.40590        6.39470        5.97480
H          0.33610        5.85960        4.29520
H          1.36290        2.69360        1.71100
H          2.54940        4.68040       -2.05160
H          2.84700        3.09880       -6.56960
H          2.66150        4.27340       -8.68760
H          1.59050        2.88230      -10.36750
H          0.47210        0.06030      -12.50650
H          0.50810        1.66830      -11.77030
H          0.99460        0.58390       -9.52880
H          0.93940       -0.99880      -10.30600
H         -0.52290       -0.01210      -10.20750
H          6.34060        2.15640       -9.27490
H          6.95860        5.41460       -3.26370
H          7.87830        6.93290       -1.61370
H          7.51640        8.70830       -0.16530
H          9.21030        8.13210       -0.15770
H          8.27360       10.90860        0.72960
H          9.94510       10.34250        0.73520
H          8.75790        9.60030        1.81580
H          7.34690        8.43260       -6.28040
H          8.96770        6.77350       -7.05540
H          9.27700        4.71050      -11.36520
H         12.46830        3.06770      -13.90020
H         11.02760        1.43120      -15.04020
H          6.98210        1.81140      -13.67540
H          6.05980        2.18140      -15.15500
H          5.80470       -0.26370      -15.59290
H          6.74270       -0.62640      -14.13970
H          5.16340        0.14850      -13.99470
H          9.12090        5.71760      -13.56480
H         12.30640        9.51850       -9.92330
H         13.56460       10.96620       -8.38220
H         17.36800       10.44870       -5.36200
H         17.55710        9.09850       -6.49500
H         15.19990        8.37150       -5.99160
H         16.16820        8.41940       -4.51450
H         15.02880        9.72500       -4.87070
H         15.68240        6.89200      -10.15460
H         15.57840        7.87840      -12.45590
H         15.90290        6.74970      -14.77860
