
  xtb     03042220283D
 energy: -382.968835607863 gnorm: 0.000610851415 xtb: 6.4.1 (unknown)
221241  0     0  0            999 V2000
   -9.2060   -0.8530   14.6954 C   0  0  0  0  0  0  0  0  0  0  0  0
   -8.6996    0.2285   14.0699 C   0  0  0  0  0  0  0  0  0  0  0  0
   -8.1874   -0.0682   12.7719 C   0  0  0  0  0  0  0  0  0  0  0  0
   -7.5955    0.8038   11.8480 C   0  0  0  0  0  0  0  0  0  0  0  0
   -7.4404    2.2447   12.0903 C   0  0  0  0  0  0  0  0  0  0  0  0
   -6.1994    2.8559   11.9189 C   0  0  0  0  0  0  0  0  0  0  0  0
   -6.0577    4.2171   12.0787 C   0  0  0  0  0  0  0  0  0  0  0  0
   -7.1458    5.0231   12.4036 C   0  0  0  0  0  0  0  0  0  0  0  0
   -6.8728    6.7722   12.4879 S   0  0  0  0  0  0  0  0  0  0  0  0
   -7.7616    7.2686   14.0089 C   0  0  0  0  0  0  0  0  0  0  0  0
   -7.2322    6.5445   15.2303 C   0  0  0  0  0  0  0  0  0  0  0  0
   -8.3787    4.4011   12.5703 C   0  0  0  0  0  0  0  0  0  0  0  0
   -9.4824    5.1246   12.8621 F   0  0  0  0  0  0  0  0  0  0  0  0
   -8.5310    3.0354   12.4340 C   0  0  0  0  0  0  0  0  0  0  0  0
   -7.1561    0.2513   10.6551 C   0  0  0  0  0  0  0  0  0  0  0  0
   -7.2957   -1.1230   10.3375 C   0  0  0  0  0  0  0  0  0  0  0  0
   -7.8926   -1.9979   11.2612 C   0  0  0  0  0  0  0  0  0  0  0  0
   -8.0599   -3.4230   10.9538 C   0  0  0  0  0  0  0  0  0  0  0  0
   -8.6491   -3.8327    9.7581 C   0  0  0  0  0  0  0  0  0  0  0  0
   -8.8043   -5.1723    9.4744 C   0  0  0  0  0  0  0  0  0  0  0  0
   -8.3672   -6.1564   10.3591 C   0  0  0  0  0  0  0  0  0  0  0  0
   -8.5661   -7.8425    9.8600 S   0  0  0  0  0  0  0  0  0  0  0  0
   -9.0732   -8.7018   11.3954 C   0  0  0  0  0  0  0  0  0  0  0  0
  -10.3232   -8.0955   11.9999 C   0  0  0  0  0  0  0  0  0  0  0  0
   -7.7618   -5.7333   11.5383 C   0  0  0  0  0  0  0  0  0  0  0  0
   -7.6232   -4.3954   11.8470 C   0  0  0  0  0  0  0  0  0  0  0  0
   -7.2744   -6.6287   12.4250 F   0  0  0  0  0  0  0  0  0  0  0  0
   -8.3119   -1.4448   12.4630 C   0  0  0  0  0  0  0  0  0  0  0  0
   -9.0908   -2.3086   13.7657 S   0  0  0  0  0  0  0  0  0  0  0  0
   -6.7459   -1.4251    9.0680 C   0  0  0  0  0  0  0  0  0  0  0  0
   -6.2386   -0.3305    8.4240 C   0  0  0  0  0  0  0  0  0  0  0  0
   -6.4059    1.1438    9.3551 S   0  0  0  0  0  0  0  0  0  0  0  0
   -5.5929   -0.2483    7.1717 C   0  0  0  0  0  0  0  0  0  0  0  0
   -5.2973   -1.6052    6.1172 S   0  0  0  0  0  0  0  0  0  0  0  0
   -4.4496   -0.6275    4.9649 C   0  0  0  0  0  0  0  0  0  0  0  0
   -4.4178    0.7065    5.3782 C   0  0  0  0  0  0  0  0  0  0  0  0
   -5.0653    0.9162    6.6236 C   0  0  0  0  0  0  0  0  0  0  0  0
   -5.1247    2.1437    7.1839 N   0  0  0  0  0  0  0  0  0  0  0  0
   -4.5613    3.1142    6.5132 C   0  0  0  0  0  0  0  0  0  0  0  0
   -4.5769    4.3532    6.9953 O   0  0  0  0  0  0  0  0  0  0  0  0
   -5.2312    4.5281    8.2536 C   0  0  0  0  0  0  0  0  0  0  0  0
   -5.1476    5.9924    8.6395 C   0  0  0  0  0  0  0  0  0  0  0  0
   -3.9070    2.9050    5.2403 C   0  0  0  0  0  0  0  0  0  0  0  0
   -3.2933    4.0625    4.4996 C   0  0  0  0  0  0  0  0  0  0  0  0
   -2.6702    3.7164    3.2361 N   0  0  0  0  0  0  0  0  0  0  0  0
   -3.8438    1.7204    4.7008 N   0  0  0  0  0  0  0  0  0  0  0  0
   -3.8408   -1.1284    3.8107 C   0  0  0  0  0  0  0  0  0  0  0  0
   -2.8856   -0.0873    2.8008 S   0  0  0  0  0  0  0  0  0  0  0  0
   -2.4465   -1.3901    1.7346 C   0  0  0  0  0  0  0  0  0  0  0  0
   -3.0482   -2.5783    2.1414 C   0  0  0  0  0  0  0  0  0  0  0  0
   -3.8366   -2.4327    3.3172 C   0  0  0  0  0  0  0  0  0  0  0  0
   -4.4968   -3.4758    3.8618 N   0  0  0  0  0  0  0  0  0  0  0  0
   -4.3677   -4.6215    3.2436 C   0  0  0  0  0  0  0  0  0  0  0  0
   -5.0056   -5.7054    3.6795 O   0  0  0  0  0  0  0  0  0  0  0  0
   -5.8359   -5.5585    4.8305 C   0  0  0  0  0  0  0  0  0  0  0  0
   -5.0339   -5.5208    6.1234 C   0  0  0  0  0  0  0  0  0  0  0  0
   -3.5608   -4.7794    2.0524 C   0  0  0  0  0  0  0  0  0  0  0  0
   -3.4528   -6.1198    1.3769 C   0  0  0  0  0  0  0  0  0  0  0  0
   -2.6341   -6.1376    0.1852 N   0  0  0  0  0  0  0  0  0  0  0  0
   -2.9249   -3.7742    1.5260 N   0  0  0  0  0  0  0  0  0  0  0  0
   -1.5739   -1.1796    0.6476 C   0  0  0  0  0  0  0  0  0  0  0  0
   -0.9714    0.0078    0.3283 C   0  0  0  0  0  0  0  0  0  0  0  0
   -0.1400   -0.0640   -0.8080 C   0  0  0  0  0  0  0  0  0  0  0  0
    0.6404    0.9697   -1.3637 C   0  0  0  0  0  0  0  0  0  0  0  0
    0.5827    2.3105   -0.7737 C   0  0  0  0  0  0  0  0  0  0  0  0
   -0.6443    2.8958   -0.4661 C   0  0  0  0  0  0  0  0  0  0  0  0
   -0.7215    4.0903    0.2211 C   0  0  0  0  0  0  0  0  0  0  0  0
    0.4335    4.7553    0.6181 C   0  0  0  0  0  0  0  0  0  0  0  0
    0.4829    6.2333    1.5677 S   0  0  0  0  0  0  0  0  0  0  0  0
   -1.2512    6.5134    2.0708 C   0  0  0  0  0  0  0  0  0  0  0  0
   -2.0517    7.2497    1.0115 C   0  0  0  0  0  0  0  0  0  0  0  0
    1.6565    4.1936    0.2422 C   0  0  0  0  0  0  0  0  0  0  0  0
    2.7974    4.8254    0.5859 F   0  0  0  0  0  0  0  0  0  0  0  0
    1.7465    2.9981   -0.4342 C   0  0  0  0  0  0  0  0  0  0  0  0
    1.4510    0.6223   -2.4322 C   0  0  0  0  0  0  0  0  0  0  0  0
    1.5007   -0.6948   -2.9554 C   0  0  0  0  0  0  0  0  0  0  0  0
    0.7341   -1.7279   -2.3874 C   0  0  0  0  0  0  0  0  0  0  0  0
    0.8718   -3.1081   -2.8708 C   0  0  0  0  0  0  0  0  0  0  0  0
   -0.2253   -3.8581   -3.2819 C   0  0  0  0  0  0  0  0  0  0  0  0
   -0.0609   -5.1407   -3.7678 C   0  0  0  0  0  0  0  0  0  0  0  0
    1.2010   -5.7188   -3.8503 C   0  0  0  0  0  0  0  0  0  0  0  0
    1.4915   -7.3471   -4.4707 S   0  0  0  0  0  0  0  0  0  0  0  0
    0.3620   -7.4088   -5.9072 C   0  0  0  0  0  0  0  0  0  0  0  0
    0.6947   -6.3416   -6.9308 C   0  0  0  0  0  0  0  0  0  0  0  0
    2.2854   -4.9745   -3.3887 C   0  0  0  0  0  0  0  0  0  0  0  0
    2.1375   -3.6886   -2.9166 C   0  0  0  0  0  0  0  0  0  0  0  0
    3.5199   -5.5093   -3.4105 F   0  0  0  0  0  0  0  0  0  0  0  0
   -0.0950   -1.3809   -1.3369 C   0  0  0  0  0  0  0  0  0  0  0  0
   -1.1283   -2.4738   -0.4425 S   0  0  0  0  0  0  0  0  0  0  0  0
    2.3559   -0.7865   -4.0772 C   0  0  0  0  0  0  0  0  0  0  0  0
    2.9603    0.3929   -4.4060 C   0  0  0  0  0  0  0  0  0  0  0  0
    2.4959    1.6944   -3.3311 S   0  0  0  0  0  0  0  0  0  0  0  0
    3.8883    0.5802   -5.4756 C   0  0  0  0  0  0  0  0  0  0  0  0
    4.1209   -0.2999   -6.4928 C   0  0  0  0  0  0  0  0  0  0  0  0
    5.1602    0.0983   -7.3667 C   0  0  0  0  0  0  0  0  0  0  0  0
    5.6352   -0.5773   -8.5052 C   0  0  0  0  0  0  0  0  0  0  0  0
    5.0569   -1.8640   -8.9115 C   0  0  0  0  0  0  0  0  0  0  0  0
    4.6239   -2.0678  -10.2185 C   0  0  0  0  0  0  0  0  0  0  0  0
    4.0221   -3.2526  -10.5957 C   0  0  0  0  0  0  0  0  0  0  0  0
    3.8435   -4.2847   -9.6824 C   0  0  0  0  0  0  0  0  0  0  0  0
    3.0495   -5.8216  -10.0319 S   0  0  0  0  0  0  0  0  0  0  0  0
    3.2539   -6.0067  -11.8365 C   0  0  0  0  0  0  0  0  0  0  0  0
    4.7084   -6.1850  -12.2274 C   0  0  0  0  0  0  0  0  0  0  0  0
    4.2925   -4.0726   -8.3787 C   0  0  0  0  0  0  0  0  0  0  0  0
    4.1263   -5.0482   -7.4648 F   0  0  0  0  0  0  0  0  0  0  0  0
    4.8919   -2.8960   -7.9884 C   0  0  0  0  0  0  0  0  0  0  0  0
    6.6543    0.0380   -9.2140 C   0  0  0  0  0  0  0  0  0  0  0  0
    7.2062    1.2894   -8.8382 C   0  0  0  0  0  0  0  0  0  0  0  0
    6.7095    1.9805   -7.7189 C   0  0  0  0  0  0  0  0  0  0  0  0
    7.2167    3.3090   -7.3584 C   0  0  0  0  0  0  0  0  0  0  0  0
    7.6056    3.6142   -6.0555 C   0  0  0  0  0  0  0  0  0  0  0  0
    8.0822    4.8686   -5.7414 C   0  0  0  0  0  0  0  0  0  0  0  0
    8.1742    5.8748   -6.7021 C   0  0  0  0  0  0  0  0  0  0  0  0
    8.7508    7.4550   -6.1585 S   0  0  0  0  0  0  0  0  0  0  0  0
    9.7564    8.0824   -7.5551 C   0  0  0  0  0  0  0  0  0  0  0  0
   10.8878    7.1393   -7.9108 C   0  0  0  0  0  0  0  0  0  0  0  0
    7.7495    5.5657   -7.9908 C   0  0  0  0  0  0  0  0  0  0  0  0
    7.2958    4.3067   -8.3256 C   0  0  0  0  0  0  0  0  0  0  0  0
    7.7606    6.4980   -8.9710 F   0  0  0  0  0  0  0  0  0  0  0  0
    5.7082    1.3517   -6.9947 C   0  0  0  0  0  0  0  0  0  0  0  0
    4.9254    1.9866   -5.5694 S   0  0  0  0  0  0  0  0  0  0  0  0
    8.2899    1.6561   -9.6726 C   0  0  0  0  0  0  0  0  0  0  0  0
    8.5587    0.7422  -10.6503 C   0  0  0  0  0  0  0  0  0  0  0  0
    7.4728   -0.6304  -10.6073 S   0  0  0  0  0  0  0  0  0  0  0  0
    9.5811    0.7809  -11.6318 C   0  0  0  0  0  0  0  0  0  0  0  0
   10.7287    2.0732  -11.7803 S   0  0  0  0  0  0  0  0  0  0  0  0
   11.5381    1.3276  -13.0913 C   0  0  0  0  0  0  0  0  0  0  0  0
   10.9637    0.1247  -13.4203 C   0  0  0  0  0  0  0  0  0  0  0  0
    9.8397   -0.1885  -12.5879 C   0  0  0  0  0  0  0  0  0  0  0  0
    9.1246   -1.3239  -12.7516 N   0  0  0  0  0  0  0  0  0  0  0  0
    9.5281   -2.1242  -13.6977 C   0  0  0  0  0  0  0  0  0  0  0  0
    8.9033   -3.2769  -13.9348 O   0  0  0  0  0  0  0  0  0  0  0  0
    7.7527   -3.5638  -13.1437 C   0  0  0  0  0  0  0  0  0  0  0  0
    6.5358   -2.7772  -13.6094 C   0  0  0  0  0  0  0  0  0  0  0  0
   10.6714   -1.8234  -14.5401 C   0  0  0  0  0  0  0  0  0  0  0  0
   11.0773   -2.7996  -15.6119 C   0  0  0  0  0  0  0  0  0  0  0  0
   12.2267   -2.4082  -16.3961 N   0  0  0  0  0  0  0  0  0  0  0  0
   11.3560   -0.7308  -14.4029 N   0  0  0  0  0  0  0  0  0  0  0  0
   -9.6487   -0.9048   15.6709 H   0  0  0  0  0  0  0  0  0  0  0  0
   -8.6728    1.2114   14.5042 H   0  0  0  0  0  0  0  0  0  0  0  0
   -5.3380    2.2538   11.6772 H   0  0  0  0  0  0  0  0  0  0  0  0
   -5.0945    4.6859   11.9510 H   0  0  0  0  0  0  0  0  0  0  0  0
   -8.8268    7.1023   13.8647 H   0  0  0  0  0  0  0  0  0  0  0  0
   -7.5743    8.3403   14.0731 H   0  0  0  0  0  0  0  0  0  0  0  0
   -7.7347    6.9138   16.1220 H   0  0  0  0  0  0  0  0  0  0  0  0
   -7.4103    5.4731   15.1532 H   0  0  0  0  0  0  0  0  0  0  0  0
   -6.1621    6.7093   15.3381 H   0  0  0  0  0  0  0  0  0  0  0  0
   -9.5140    2.6064   12.5543 H   0  0  0  0  0  0  0  0  0  0  0  0
   -9.0151   -3.0922    9.0636 H   0  0  0  0  0  0  0  0  0  0  0  0
   -9.2728   -5.4859    8.5544 H   0  0  0  0  0  0  0  0  0  0  0  0
   -8.2396   -8.7004   12.0942 H   0  0  0  0  0  0  0  0  0  0  0  0
   -9.2536   -9.7231   11.0595 H   0  0  0  0  0  0  0  0  0  0  0  0
  -10.1410   -7.0729   12.3256 H   0  0  0  0  0  0  0  0  0  0  0  0
  -11.1341   -8.0878   11.2743 H   0  0  0  0  0  0  0  0  0  0  0  0
  -10.6319   -8.6804   12.8641 H   0  0  0  0  0  0  0  0  0  0  0  0
   -7.1401   -4.1257   12.7730 H   0  0  0  0  0  0  0  0  0  0  0  0
   -6.7016   -2.4134    8.6469 H   0  0  0  0  0  0  0  0  0  0  0  0
   -4.7463    3.8871    8.9980 H   0  0  0  0  0  0  0  0  0  0  0  0
   -6.2712    4.1960    8.1628 H   0  0  0  0  0  0  0  0  0  0  0  0
   -5.6504    6.1477    9.5898 H   0  0  0  0  0  0  0  0  0  0  0  0
   -5.6250    6.6080    7.8821 H   0  0  0  0  0  0  0  0  0  0  0  0
   -4.1095    6.2995    8.7313 H   0  0  0  0  0  0  0  0  0  0  0  0
   -2.5474    4.5391    5.1444 H   0  0  0  0  0  0  0  0  0  0  0  0
   -4.0761    4.8069    4.3131 H   0  0  0  0  0  0  0  0  0  0  0  0
   -3.3446    3.2198    2.6600 H   0  0  0  0  0  0  0  0  0  0  0  0
   -1.9132    3.0597    3.4047 H   0  0  0  0  0  0  0  0  0  0  0  0
   -6.4907   -6.4323    4.8052 H   0  0  0  0  0  0  0  0  0  0  0  0
   -6.4260   -4.6419    4.7303 H   0  0  0  0  0  0  0  0  0  0  0  0
   -4.3978   -6.3994    6.1965 H   0  0  0  0  0  0  0  0  0  0  0  0
   -5.7150   -5.5063    6.9695 H   0  0  0  0  0  0  0  0  0  0  0  0
   -4.4165   -4.6272    6.1519 H   0  0  0  0  0  0  0  0  0  0  0  0
   -3.0530   -6.8433    2.0956 H   0  0  0  0  0  0  0  0  0  0  0  0
   -4.4633   -6.4563    1.1173 H   0  0  0  0  0  0  0  0  0  0  0  0
   -2.9717   -5.4367   -0.4673 H   0  0  0  0  0  0  0  0  0  0  0  0
   -1.6832   -5.8691    0.4186 H   0  0  0  0  0  0  0  0  0  0  0  0
   -1.1077    0.8914    0.9248 H   0  0  0  0  0  0  0  0  0  0  0  0
   -1.5567    2.4112   -0.7795 H   0  0  0  0  0  0  0  0  0  0  0  0
   -1.6916    4.4885    0.4651 H   0  0  0  0  0  0  0  0  0  0  0  0
   -1.1585    7.1270    2.9674 H   0  0  0  0  0  0  0  0  0  0  0  0
   -1.6927    5.5540    2.3473 H   0  0  0  0  0  0  0  0  0  0  0  0
   -2.0881    6.6888    0.0806 H   0  0  0  0  0  0  0  0  0  0  0  0
   -3.0698    7.4050    1.3636 H   0  0  0  0  0  0  0  0  0  0  0  0
   -1.6041    8.2192    0.8042 H   0  0  0  0  0  0  0  0  0  0  0  0
    2.7211    2.5942   -0.6572 H   0  0  0  0  0  0  0  0  0  0  0  0
   -1.2134   -3.4263   -3.2369 H   0  0  0  0  0  0  0  0  0  0  0  0
   -0.9263   -5.7016   -4.0837 H   0  0  0  0  0  0  0  0  0  0  0  0
   -0.6664   -7.3366   -5.5548 H   0  0  0  0  0  0  0  0  0  0  0  0
    0.5237   -8.4062   -6.3148 H   0  0  0  0  0  0  0  0  0  0  0  0
    0.5215   -5.3475   -6.5219 H   0  0  0  0  0  0  0  0  0  0  0  0
    1.7377   -6.4147   -7.2297 H   0  0  0  0  0  0  0  0  0  0  0  0
    0.0720   -6.4665   -7.8142 H   0  0  0  0  0  0  0  0  0  0  0  0
    3.0074   -3.1487   -2.5754 H   0  0  0  0  0  0  0  0  0  0  0  0
    2.5135   -1.7007   -4.6186 H   0  0  0  0  0  0  0  0  0  0  0  0
    3.5471   -1.1971   -6.6296 H   0  0  0  0  0  0  0  0  0  0  0  0
    4.7318   -1.2766  -10.9440 H   0  0  0  0  0  0  0  0  0  0  0  0
    3.6668   -3.3594  -11.6084 H   0  0  0  0  0  0  0  0  0  0  0  0
    2.7908   -5.1551  -12.3336 H   0  0  0  0  0  0  0  0  0  0  0  0
    2.6743   -6.8997  -12.0694 H   0  0  0  0  0  0  0  0  0  0  0  0
    5.3013   -5.3253  -11.9205 H   0  0  0  0  0  0  0  0  0  0  0  0
    4.7917   -6.2992  -13.3065 H   0  0  0  0  0  0  0  0  0  0  0  0
    5.1183   -7.0716  -11.7495 H   0  0  0  0  0  0  0  0  0  0  0  0
    5.2460   -2.8001   -6.9740 H   0  0  0  0  0  0  0  0  0  0  0  0
    7.5618    2.8544   -5.2910 H   0  0  0  0  0  0  0  0  0  0  0  0
    8.3960    5.0960   -4.7348 H   0  0  0  0  0  0  0  0  0  0  0  0
   10.1394    9.0301   -7.1765 H   0  0  0  0  0  0  0  0  0  0  0  0
    9.1049    8.2778   -8.4038 H   0  0  0  0  0  0  0  0  0  0  0  0
   10.5021    6.1918   -8.2822 H   0  0  0  0  0  0  0  0  0  0  0  0
   11.5059    7.5854   -8.6875 H   0  0  0  0  0  0  0  0  0  0  0  0
   11.5085    6.9418   -7.0392 H   0  0  0  0  0  0  0  0  0  0  0  0
    6.9681    4.1262   -9.3379 H   0  0  0  0  0  0  0  0  0  0  0  0
    8.8761    2.5479   -9.5404 H   0  0  0  0  0  0  0  0  0  0  0  0
   12.3843    1.8031  -13.5431 H   0  0  0  0  0  0  0  0  0  0  0  0
    7.5981   -4.6380  -13.2684 H   0  0  0  0  0  0  0  0  0  0  0  0
    7.9666   -3.3321  -12.0954 H   0  0  0  0  0  0  0  0  0  0  0  0
    6.7082   -1.7145  -13.4639 H   0  0  0  0  0  0  0  0  0  0  0  0
    6.3416   -2.9692  -14.6620 H   0  0  0  0  0  0  0  0  0  0  0  0
    5.6707   -3.0718  -13.0247 H   0  0  0  0  0  0  0  0  0  0  0  0
   11.2826   -3.7661  -15.1385 H   0  0  0  0  0  0  0  0  0  0  0  0
   10.2247   -2.9500  -16.2836 H   0  0  0  0  0  0  0  0  0  0  0  0
   13.0249   -2.2746  -15.7832 H   0  0  0  0  0  0  0  0  0  0  0  0
   12.0475   -1.5095  -16.8332 H   0  0  0  0  0  0  0  0  0  0  0  0
  1  2  2  0  0  0  0
  2  3  1  0  0  0  0
  3  4  2  0  0  0  0
  4  5  1  0  0  0  0
  5  6  2  0  0  0  0
  6  7  1  0  0  0  0
  7  8  2  0  0  0  0
  8  9  1  0  0  0  0
  9 10  1  0  0  0  0
 10 11  1  0  0  0  0
  8 12  1  0  0  0  0
 12 13  1  0  0  0  0
 12 14  2  0  0  0  0
  4 15  1  0  0  0  0
 15 16  2  0  0  0  0
 16 17  1  0  0  0  0
 17 18  1  0  0  0  0
 18 19  2  0  0  0  0
 19 20  1  0  0  0  0
 20 21  2  0  0  0  0
 21 22  1  0  0  0  0
 22 23  1  0  0  0  0
 23 24  1  0  0  0  0
 21 25  1  0  0  0  0
 25 26  2  0  0  0  0
 25 27  1  0  0  0  0
 17 28  2  0  0  0  0
 28 29  1  0  0  0  0
 16 30  1  0  0  0  0
 30 31  2  0  0  0  0
 31 32  1  0  0  0  0
 31 33  1  0  0  0  0
 33 34  1  0  0  0  0
 34 35  1  0  0  0  0
 35 36  2  0  0  0  0
 36 37  1  0  0  0  0
 37 38  1  0  0  0  0
 38 39  2  0  0  0  0
 39 40  1  0  0  0  0
 40 41  1  0  0  0  0
 41 42  1  0  0  0  0
 39 43  1  0  0  0  0
 43 44  1  0  0  0  0
 44 45  1  0  0  0  0
 43 46  2  0  0  0  0
 35 47  1  0  0  0  0
 47 48  1  0  0  0  0
 48 49  1  0  0  0  0
 49 50  2  0  0  0  0
 50 51  1  0  0  0  0
 51 52  1  0  0  0  0
 52 53  2  0  0  0  0
 53 54  1  0  0  0  0
 54 55  1  0  0  0  0
 55 56  1  0  0  0  0
 53 57  1  0  0  0  0
 57 58  1  0  0  0  0
 58 59  1  0  0  0  0
 57 60  2  0  0  0  0
 49 61  1  0  0  0  0
 61 62  2  0  0  0  0
 62 63  1  0  0  0  0
 63 64  2  0  0  0  0
 64 65  1  0  0  0  0
 65 66  2  0  0  0  0
 66 67  1  0  0  0  0
 67 68  2  0  0  0  0
 68 69  1  0  0  0  0
 69 70  1  0  0  0  0
 70 71  1  0  0  0  0
 68 72  1  0  0  0  0
 72 73  1  0  0  0  0
 72 74  2  0  0  0  0
 64 75  1  0  0  0  0
 75 76  2  0  0  0  0
 76 77  1  0  0  0  0
 77 78  1  0  0  0  0
 78 79  2  0  0  0  0
 79 80  1  0  0  0  0
 80 81  2  0  0  0  0
 81 82  1  0  0  0  0
 82 83  1  0  0  0  0
 83 84  1  0  0  0  0
 81 85  1  0  0  0  0
 85 86  2  0  0  0  0
 85 87  1  0  0  0  0
 77 88  2  0  0  0  0
 88 89  1  0  0  0  0
 76 90  1  0  0  0  0
 90 91  2  0  0  0  0
 91 92  1  0  0  0  0
 91 93  1  0  0  0  0
 93 94  2  0  0  0  0
 94 95  1  0  0  0  0
 95 96  2  0  0  0  0
 96 97  1  0  0  0  0
 97 98  2  0  0  0  0
 98 99  1  0  0  0  0
 99100  2  0  0  0  0
100101  1  0  0  0  0
101102  1  0  0  0  0
102103  1  0  0  0  0
100104  1  0  0  0  0
104105  1  0  0  0  0
104106  2  0  0  0  0
 96107  1  0  0  0  0
107108  2  0  0  0  0
108109  1  0  0  0  0
109110  1  0  0  0  0
110111  2  0  0  0  0
111112  1  0  0  0  0
112113  2  0  0  0  0
113114  1  0  0  0  0
114115  1  0  0  0  0
115116  1  0  0  0  0
113117  1  0  0  0  0
117118  2  0  0  0  0
117119  1  0  0  0  0
109120  2  0  0  0  0
120121  1  0  0  0  0
108122  1  0  0  0  0
122123  2  0  0  0  0
123124  1  0  0  0  0
123125  1  0  0  0  0
125126  1  0  0  0  0
126127  1  0  0  0  0
127128  2  0  0  0  0
128129  1  0  0  0  0
129130  1  0  0  0  0
130131  2  0  0  0  0
131132  1  0  0  0  0
132133  1  0  0  0  0
133134  1  0  0  0  0
131135  1  0  0  0  0
135136  1  0  0  0  0
136137  1  0  0  0  0
135138  2  0  0  0  0
 29  1  1  0  0  0  0
 37 33  2  0  0  0  0
 51 47  2  0  0  0  0
 89 61  1  0  0  0  0
121 93  1  0  0  0  0
129125  2  0  0  0  0
 28  3  1  0  0  0  0
 46 36  1  0  0  0  0
 60 50  1  0  0  0  0
 88 63  1  0  0  0  0
120 95  1  0  0  0  0
138128  1  0  0  0  0
 14  5  1  0  0  0  0
 32 15  1  0  0  0  0
 74 65  1  0  0  0  0
 92 75  1  0  0  0  0
106 97  1  0  0  0  0
124107  1  0  0  0  0
 26 18  1  0  0  0  0
 86 78  1  0  0  0  0
118110  1  0  0  0  0
  1139  1  0  0  0  0
  2140  1  0  0  0  0
  6141  1  0  0  0  0
  7142  1  0  0  0  0
 10143  1  0  0  0  0
 10144  1  0  0  0  0
 11145  1  0  0  0  0
 11146  1  0  0  0  0
 11147  1  0  0  0  0
 14148  1  0  0  0  0
 19149  1  0  0  0  0
 20150  1  0  0  0  0
 23151  1  0  0  0  0
 23152  1  0  0  0  0
 24153  1  0  0  0  0
 24154  1  0  0  0  0
 24155  1  0  0  0  0
 26156  1  0  0  0  0
 30157  1  0  0  0  0
 41158  1  0  0  0  0
 41159  1  0  0  0  0
 42160  1  0  0  0  0
 42161  1  0  0  0  0
 42162  1  0  0  0  0
 44163  1  0  0  0  0
 44164  1  0  0  0  0
 45165  1  0  0  0  0
 45166  1  0  0  0  0
 55167  1  0  0  0  0
 55168  1  0  0  0  0
 56169  1  0  0  0  0
 56170  1  0  0  0  0
 56171  1  0  0  0  0
 58172  1  0  0  0  0
 58173  1  0  0  0  0
 59174  1  0  0  0  0
 59175  1  0  0  0  0
 62176  1  0  0  0  0
 66177  1  0  0  0  0
 67178  1  0  0  0  0
 70179  1  0  0  0  0
 70180  1  0  0  0  0
 71181  1  0  0  0  0
 71182  1  0  0  0  0
 71183  1  0  0  0  0
 74184  1  0  0  0  0
 79185  1  0  0  0  0
 80186  1  0  0  0  0
 83187  1  0  0  0  0
 83188  1  0  0  0  0
 84189  1  0  0  0  0
 84190  1  0  0  0  0
 84191  1  0  0  0  0
 86192  1  0  0  0  0
 90193  1  0  0  0  0
 94194  1  0  0  0  0
 98195  1  0  0  0  0
 99196  1  0  0  0  0
102197  1  0  0  0  0
102198  1  0  0  0  0
103199  1  0  0  0  0
103200  1  0  0  0  0
103201  1  0  0  0  0
106202  1  0  0  0  0
111203  1  0  0  0  0
112204  1  0  0  0  0
115205  1  0  0  0  0
115206  1  0  0  0  0
116207  1  0  0  0  0
116208  1  0  0  0  0
116209  1  0  0  0  0
118210  1  0  0  0  0
122211  1  0  0  0  0
127212  1  0  0  0  0
133213  1  0  0  0  0
133214  1  0  0  0  0
134215  1  0  0  0  0
134216  1  0  0  0  0
134217  1  0  0  0  0
136218  1  0  0  0  0
136219  1  0  0  0  0
137220  1  0  0  0  0
137221  1  0  0  0  0
M  END
