
  xtb     03042216203D
 energy: -382.947169190220 gnorm: 0.001191635907 xtb: 6.4.1 (unknown)
221241  0     0  0            999 V2000
   -0.1291  -14.1931   10.8814 C   0  0  0  0  0  0  0  0  0  0  0  0
   -0.9823  -13.4760    9.5756 S   0  0  0  0  0  0  0  0  0  0  0  0
   -0.1906  -11.9509    9.7747 C   0  0  0  0  0  0  0  0  0  0  0  0
    0.7037  -12.0207   10.8345 C   0  0  0  0  0  0  0  0  0  0  0  0
    0.7411  -13.3069   11.4638 C   0  0  0  0  0  0  0  0  0  0  0  0
    1.5857  -13.5375   12.5063 N   0  0  0  0  0  0  0  0  0  0  0  0
    2.3253  -12.5317   12.8775 C   0  0  0  0  0  0  0  0  0  0  0  0
    3.1939  -12.6747   13.8778 O   0  0  0  0  0  0  0  0  0  0  0  0
    3.2488  -13.9612   14.4893 C   0  0  0  0  0  0  0  0  0  0  0  0
    4.3208  -13.9269   15.5631 C   0  0  0  0  0  0  0  0  0  0  0  0
    2.2728  -11.2219   12.2536 C   0  0  0  0  0  0  0  0  0  0  0  0
    3.1675  -10.1261   12.7403 C   0  0  0  0  0  0  0  0  0  0  0  0
    2.6716   -8.8142   12.3747 N   0  0  0  0  0  0  0  0  0  0  0  0
    1.4767  -10.9968   11.2525 N   0  0  0  0  0  0  0  0  0  0  0  0
   -0.4018  -10.8055    8.9675 C   0  0  0  0  0  0  0  0  0  0  0  0
   -1.2245  -10.6379    7.8898 C   0  0  0  0  0  0  0  0  0  0  0  0
   -1.1419   -9.3440    7.3189 C   0  0  0  0  0  0  0  0  0  0  0  0
   -1.8107   -8.8406    6.1924 C   0  0  0  0  0  0  0  0  0  0  0  0
   -2.7057   -9.6466    5.3530 C   0  0  0  0  0  0  0  0  0  0  0  0
   -2.2920  -10.8616    4.8105 C   0  0  0  0  0  0  0  0  0  0  0  0
   -3.0861  -11.5282    3.9011 C   0  0  0  0  0  0  0  0  0  0  0  0
   -4.3249  -11.0229    3.5133 C   0  0  0  0  0  0  0  0  0  0  0  0
   -5.2485  -11.9201    2.3008 S   0  0  0  0  0  0  0  0  0  0  0  0
   -5.8818  -10.6003    1.1964 C   0  0  0  0  0  0  0  0  0  0  0  0
   -4.7734   -9.7234    0.6523 C   0  0  0  0  0  0  0  0  0  0  0  0
   -4.7581   -9.8495    4.1231 C   0  0  0  0  0  0  0  0  0  0  0  0
   -5.9803   -9.3415    3.8549 F   0  0  0  0  0  0  0  0  0  0  0  0
   -3.9626   -9.1569    5.0115 C   0  0  0  0  0  0  0  0  0  0  0  0
   -1.5383   -7.5266    5.8440 C   0  0  0  0  0  0  0  0  0  0  0  0
   -0.6252   -6.6965    6.5409 C   0  0  0  0  0  0  0  0  0  0  0  0
    0.0426   -7.2028    7.6670 C   0  0  0  0  0  0  0  0  0  0  0  0
    1.0396   -6.4275    8.4173 C   0  0  0  0  0  0  0  0  0  0  0  0
    0.9600   -6.3268    9.8051 C   0  0  0  0  0  0  0  0  0  0  0  0
    1.9418   -5.6742   10.5208 C   0  0  0  0  0  0  0  0  0  0  0  0
    3.0331   -5.0977    9.8795 C   0  0  0  0  0  0  0  0  0  0  0  0
    4.2624   -4.2799   10.8649 S   0  0  0  0  0  0  0  0  0  0  0  0
    5.7959   -5.0967   10.2830 C   0  0  0  0  0  0  0  0  0  0  0  0
    5.7919   -6.5791   10.6015 C   0  0  0  0  0  0  0  0  0  0  0  0
    3.0794   -5.1672    8.4911 C   0  0  0  0  0  0  0  0  0  0  0  0
    2.1111   -5.8285    7.7626 C   0  0  0  0  0  0  0  0  0  0  0  0
    4.0958   -4.5959    7.8087 F   0  0  0  0  0  0  0  0  0  0  0  0
   -0.2419   -8.5105    8.0304 C   0  0  0  0  0  0  0  0  0  0  0  0
    0.5126   -9.3636    9.3535 S   0  0  0  0  0  0  0  0  0  0  0  0
   -0.5107   -5.4156    5.9408 C   0  0  0  0  0  0  0  0  0  0  0  0
   -1.2647   -5.2753    4.8141 C   0  0  0  0  0  0  0  0  0  0  0  0
   -2.1955   -6.7163    4.4491 S   0  0  0  0  0  0  0  0  0  0  0  0
   -1.3465   -4.1762    3.9107 C   0  0  0  0  0  0  0  0  0  0  0  0
   -2.0663   -4.1447    2.7533 C   0  0  0  0  0  0  0  0  0  0  0  0
   -1.8911   -2.9574    2.0040 C   0  0  0  0  0  0  0  0  0  0  0  0
   -2.4806   -2.6281    0.7712 C   0  0  0  0  0  0  0  0  0  0  0  0
   -3.3715   -3.5740    0.0886 C   0  0  0  0  0  0  0  0  0  0  0  0
   -4.6377   -3.1873   -0.3379 C   0  0  0  0  0  0  0  0  0  0  0  0
   -5.4998   -4.0901   -0.9310 C   0  0  0  0  0  0  0  0  0  0  0  0
   -5.1166   -5.4101   -1.1369 C   0  0  0  0  0  0  0  0  0  0  0  0
   -6.1253   -6.6776   -1.8325 S   0  0  0  0  0  0  0  0  0  0  0  0
   -7.5138   -5.7779   -2.6013 C   0  0  0  0  0  0  0  0  0  0  0  0
   -7.0844   -4.9965   -3.8285 C   0  0  0  0  0  0  0  0  0  0  0  0
   -3.8333   -5.7774   -0.7281 C   0  0  0  0  0  0  0  0  0  0  0  0
   -3.4217   -7.0463   -0.9266 F   0  0  0  0  0  0  0  0  0  0  0  0
   -2.9706   -4.8922   -0.1239 C   0  0  0  0  0  0  0  0  0  0  0  0
   -2.1631   -1.3866    0.2463 C   0  0  0  0  0  0  0  0  0  0  0  0
   -1.2979   -0.4756    0.9007 C   0  0  0  0  0  0  0  0  0  0  0  0
   -0.7278   -0.7940    2.1458 C   0  0  0  0  0  0  0  0  0  0  0  0
    0.1291    0.1774    2.8344 C   0  0  0  0  0  0  0  0  0  0  0  0
    1.3859   -0.1664    3.3274 C   0  0  0  0  0  0  0  0  0  0  0  0
    2.1979    0.7887    3.9015 C   0  0  0  0  0  0  0  0  0  0  0  0
    1.7872    2.1149    4.0266 C   0  0  0  0  0  0  0  0  0  0  0  0
    2.9146    3.2534    4.7709 S   0  0  0  0  0  0  0  0  0  0  0  0
    2.6928    4.7995    3.8108 C   0  0  0  0  0  0  0  0  0  0  0  0
    2.9167    4.5958    2.3269 C   0  0  0  0  0  0  0  0  0  0  0  0
    0.5029    2.4281    3.5903 C   0  0  0  0  0  0  0  0  0  0  0  0
   -0.3089    1.4902    2.9883 C   0  0  0  0  0  0  0  0  0  0  0  0
    0.0006    3.6743    3.7416 F   0  0  0  0  0  0  0  0  0  0  0  0
   -1.0213   -2.0478    2.6570 C   0  0  0  0  0  0  0  0  0  0  0  0
   -0.4279   -2.7057    4.1619 S   0  0  0  0  0  0  0  0  0  0  0  0
   -1.0534    0.6741    0.1120 C   0  0  0  0  0  0  0  0  0  0  0  0
   -1.6968    0.6665   -1.0892 C   0  0  0  0  0  0  0  0  0  0  0  0
   -2.6751   -0.7724   -1.3076 S   0  0  0  0  0  0  0  0  0  0  0  0
   -1.5814    1.6562   -2.1077 C   0  0  0  0  0  0  0  0  0  0  0  0
   -2.0977    1.6567   -3.3692 C   0  0  0  0  0  0  0  0  0  0  0  0
   -1.7036    2.7786   -4.1427 C   0  0  0  0  0  0  0  0  0  0  0  0
   -2.0379    3.0909   -5.4721 C   0  0  0  0  0  0  0  0  0  0  0  0
   -2.8624    2.1871   -6.2829 C   0  0  0  0  0  0  0  0  0  0  0  0
   -3.9711    2.6580   -6.9839 C   0  0  0  0  0  0  0  0  0  0  0  0
   -4.7590    1.7938   -7.7128 C   0  0  0  0  0  0  0  0  0  0  0  0
   -4.4663    0.4331   -7.7913 C   0  0  0  0  0  0  0  0  0  0  0  0
   -5.5385   -0.5653   -8.7802 S   0  0  0  0  0  0  0  0  0  0  0  0
   -5.6444   -2.1555   -7.8772 C   0  0  0  0  0  0  0  0  0  0  0  0
   -6.1579   -1.9774   -6.4623 C   0  0  0  0  0  0  0  0  0  0  0  0
   -3.3278   -0.0133   -7.1273 C   0  0  0  0  0  0  0  0  0  0  0  0
   -2.9413   -1.3069   -7.2016 F   0  0  0  0  0  0  0  0  0  0  0  0
   -2.5462    0.8352   -6.3702 C   0  0  0  0  0  0  0  0  0  0  0  0
   -1.5343    4.2780   -5.9803 C   0  0  0  0  0  0  0  0  0  0  0  0
   -0.7230    5.1713   -5.2313 C   0  0  0  0  0  0  0  0  0  0  0  0
   -0.3906    4.8578   -3.9047 C   0  0  0  0  0  0  0  0  0  0  0  0
    0.4186    5.7280   -3.0393 C   0  0  0  0  0  0  0  0  0  0  0  0
    0.0156    7.0239   -2.7402 C   0  0  0  0  0  0  0  0  0  0  0  0
    0.6981    7.7858   -1.8087 C   0  0  0  0  0  0  0  0  0  0  0  0
    1.8246    7.2866   -1.1671 C   0  0  0  0  0  0  0  0  0  0  0  0
    2.7588    8.1040    0.0845 S   0  0  0  0  0  0  0  0  0  0  0  0
    1.9940    9.7539    0.2327 C   0  0  0  0  0  0  0  0  0  0  0  0
    2.4140   10.6889   -0.8858 C   0  0  0  0  0  0  0  0  0  0  0  0
    2.2442    6.0008   -1.5152 C   0  0  0  0  0  0  0  0  0  0  0  0
    1.5597    5.2223   -2.4185 C   0  0  0  0  0  0  0  0  0  0  0  0
    3.3498    5.4974   -0.9301 F   0  0  0  0  0  0  0  0  0  0  0  0
   -0.8788    3.6617   -3.4044 C   0  0  0  0  0  0  0  0  0  0  0  0
   -0.5965    3.0725   -1.7892 S   0  0  0  0  0  0  0  0  0  0  0  0
   -0.2776    6.2679   -6.0069 C   0  0  0  0  0  0  0  0  0  0  0  0
   -0.7017    6.2225   -7.3066 C   0  0  0  0  0  0  0  0  0  0  0  0
   -1.7228    4.8299   -7.6239 S   0  0  0  0  0  0  0  0  0  0  0  0
   -0.3690    7.1115   -8.3599 C   0  0  0  0  0  0  0  0  0  0  0  0
   -0.8379    6.7856  -10.0005 S   0  0  0  0  0  0  0  0  0  0  0  0
   -0.0043    8.1668  -10.6286 C   0  0  0  0  0  0  0  0  0  0  0  0
    0.5941    8.8764   -9.5876 C   0  0  0  0  0  0  0  0  0  0  0  0
    0.3937    8.2751   -8.3053 C   0  0  0  0  0  0  0  0  0  0  0  0
    0.8893    8.8488   -7.1828 N   0  0  0  0  0  0  0  0  0  0  0  0
    1.5459    9.9658   -7.3420 C   0  0  0  0  0  0  0  0  0  0  0  0
    2.0797   10.6008   -6.2951 O   0  0  0  0  0  0  0  0  0  0  0  0
    1.8067   10.0668   -5.0044 C   0  0  0  0  0  0  0  0  0  0  0  0
    0.3831   10.3786   -4.5628 C   0  0  0  0  0  0  0  0  0  0  0  0
    1.7062   10.6004   -8.6282 C   0  0  0  0  0  0  0  0  0  0  0  0
    2.4062   11.9286   -8.7453 C   0  0  0  0  0  0  0  0  0  0  0  0
    2.2472   12.5795  -10.0299 N   0  0  0  0  0  0  0  0  0  0  0  0
    1.2313   10.0593   -9.7095 N   0  0  0  0  0  0  0  0  0  0  0  0
    0.0277    8.4641  -12.0124 C   0  0  0  0  0  0  0  0  0  0  0  0
   -1.2628    7.9921  -13.0786 S   0  0  0  0  0  0  0  0  0  0  0  0
   -0.5303    8.7152  -14.4407 C   0  0  0  0  0  0  0  0  0  0  0  0
    0.6736    9.2913  -14.1168 C   0  0  0  0  0  0  0  0  0  0  0  0
    1.0118    9.1377  -12.7295 C   0  0  0  0  0  0  0  0  0  0  0  0
    2.2114    9.5445  -12.2575 N   0  0  0  0  0  0  0  0  0  0  0  0
    2.9983   10.1428  -13.1068 C   0  0  0  0  0  0  0  0  0  0  0  0
    4.2150   10.5540  -12.7558 O   0  0  0  0  0  0  0  0  0  0  0  0
    4.6770   10.2665  -11.4350 C   0  0  0  0  0  0  0  0  0  0  0  0
    5.4684   11.4597  -10.9249 C   0  0  0  0  0  0  0  0  0  0  0  0
    2.6211   10.3902  -14.4861 C   0  0  0  0  0  0  0  0  0  0  0  0
    3.5557   11.1458  -15.3918 C   0  0  0  0  0  0  0  0  0  0  0  0
    3.0850   11.3258  -16.7468 N   0  0  0  0  0  0  0  0  0  0  0  0
    1.5007    9.9531  -14.9691 N   0  0  0  0  0  0  0  0  0  0  0  0
   -0.3119  -15.2152   11.1417 H   0  0  0  0  0  0  0  0  0  0  0  0
    2.2651  -14.1966   14.9110 H   0  0  0  0  0  0  0  0  0  0  0  0
    3.4729  -14.7099   13.7210 H   0  0  0  0  0  0  0  0  0  0  0  0
    4.0814  -13.1717   16.3068 H   0  0  0  0  0  0  0  0  0  0  0  0
    4.3838  -14.8965   16.0480 H   0  0  0  0  0  0  0  0  0  0  0  0
    5.2845  -13.6861   15.1223 H   0  0  0  0  0  0  0  0  0  0  0  0
    4.1747  -10.3454   12.3395 H   0  0  0  0  0  0  0  0  0  0  0  0
    3.2436  -10.1907   13.8322 H   0  0  0  0  0  0  0  0  0  0  0  0
    2.1868   -8.8678   11.4852 H   0  0  0  0  0  0  0  0  0  0  0  0
    3.4297   -8.1479   12.2924 H   0  0  0  0  0  0  0  0  0  0  0  0
   -1.8702  -11.4158    7.5227 H   0  0  0  0  0  0  0  0  0  0  0  0
   -1.3208  -11.2571    5.0664 H   0  0  0  0  0  0  0  0  0  0  0  0
   -2.7488  -12.4503    3.4540 H   0  0  0  0  0  0  0  0  0  0  0  0
   -6.3676  -11.1604    0.3975 H   0  0  0  0  0  0  0  0  0  0  0  0
   -6.6326  -10.0239    1.7324 H   0  0  0  0  0  0  0  0  0  0  0  0
   -4.0160  -10.3238    0.1536 H   0  0  0  0  0  0  0  0  0  0  0  0
   -5.1837   -9.0189   -0.0681 H   0  0  0  0  0  0  0  0  0  0  0  0
   -4.2936   -9.1570    1.4485 H   0  0  0  0  0  0  0  0  0  0  0  0
   -4.3427   -8.2452    5.4456 H   0  0  0  0  0  0  0  0  0  0  0  0
    0.1231   -6.7633   10.3267 H   0  0  0  0  0  0  0  0  0  0  0  0
    1.8826   -5.6130   11.5960 H   0  0  0  0  0  0  0  0  0  0  0  0
    6.5892   -4.5797   10.8218 H   0  0  0  0  0  0  0  0  0  0  0  0
    5.9107   -4.9092    9.2178 H   0  0  0  0  0  0  0  0  0  0  0  0
    6.7302   -7.0281   10.2807 H   0  0  0  0  0  0  0  0  0  0  0  0
    4.9738   -7.0815   10.0865 H   0  0  0  0  0  0  0  0  0  0  0  0
    5.6793   -6.7349   11.6728 H   0  0  0  0  0  0  0  0  0  0  0  0
    2.2129   -5.8863    6.6899 H   0  0  0  0  0  0  0  0  0  0  0  0
    0.1087   -4.6258    6.3273 H   0  0  0  0  0  0  0  0  0  0  0  0
   -2.7081   -4.9529    2.4519 H   0  0  0  0  0  0  0  0  0  0  0  0
   -4.9668   -2.1718   -0.1782 H   0  0  0  0  0  0  0  0  0  0  0  0
   -6.4833   -3.7554   -1.2177 H   0  0  0  0  0  0  0  0  0  0  0  0
   -8.2117   -6.5706   -2.8710 H   0  0  0  0  0  0  0  0  0  0  0  0
   -7.9818   -5.1471   -1.8465 H   0  0  0  0  0  0  0  0  0  0  0  0
   -7.9480   -4.5043   -4.2727 H   0  0  0  0  0  0  0  0  0  0  0  0
   -6.6474   -5.6675   -4.5647 H   0  0  0  0  0  0  0  0  0  0  0  0
   -6.3451   -4.2404   -3.5711 H   0  0  0  0  0  0  0  0  0  0  0  0
   -1.9852   -5.2287    0.1577 H   0  0  0  0  0  0  0  0  0  0  0  0
    1.7440   -1.1789    3.2248 H   0  0  0  0  0  0  0  0  0  0  0  0
    3.1812    0.5247    4.2579 H   0  0  0  0  0  0  0  0  0  0  0  0
    1.7082    5.2099    4.0241 H   0  0  0  0  0  0  0  0  0  0  0  0
    3.4511    5.4584    4.2340 H   0  0  0  0  0  0  0  0  0  0  0  0
    3.8829    4.1316    2.1431 H   0  0  0  0  0  0  0  0  0  0  0  0
    2.1428    3.9634    1.8959 H   0  0  0  0  0  0  0  0  0  0  0  0
    2.8958    5.5571    1.8182 H   0  0  0  0  0  0  0  0  0  0  0  0
   -1.2963    1.7870    2.6691 H   0  0  0  0  0  0  0  0  0  0  0  0
   -0.3877    1.4669    0.4026 H   0  0  0  0  0  0  0  0  0  0  0  0
   -2.7443    0.8759   -3.7279 H   0  0  0  0  0  0  0  0  0  0  0  0
   -4.2332    3.7031   -6.9310 H   0  0  0  0  0  0  0  0  0  0  0  0
   -5.6277    2.1590   -8.2379 H   0  0  0  0  0  0  0  0  0  0  0  0
   -4.6725   -2.6432   -7.8995 H   0  0  0  0  0  0  0  0  0  0  0  0
   -6.3455   -2.7343   -8.4788 H   0  0  0  0  0  0  0  0  0  0  0  0
   -7.1127   -1.4554   -6.4652 H   0  0  0  0  0  0  0  0  0  0  0  0
   -5.4532   -1.4054   -5.8615 H   0  0  0  0  0  0  0  0  0  0  0  0
   -6.2915   -2.9524   -5.9982 H   0  0  0  0  0  0  0  0  0  0  0  0
   -1.6702    0.4356   -5.8829 H   0  0  0  0  0  0  0  0  0  0  0  0
   -0.8666    7.4277   -3.2137 H   0  0  0  0  0  0  0  0  0  0  0  0
    0.3245    8.7674   -1.5659 H   0  0  0  0  0  0  0  0  0  0  0  0
    0.9138    9.6284    0.2924 H   0  0  0  0  0  0  0  0  0  0  0  0
    2.3532   10.1182    1.1951 H   0  0  0  0  0  0  0  0  0  0  0  0
    1.9355   11.6580   -0.7585 H   0  0  0  0  0  0  0  0  0  0  0  0
    2.1360   10.2867   -1.8574 H   0  0  0  0  0  0  0  0  0  0  0  0
    3.4921   10.8288   -0.8705 H   0  0  0  0  0  0  0  0  0  0  0  0
    1.9207    4.2299   -2.6373 H   0  0  0  0  0  0  0  0  0  0  0  0
    0.3622    7.0474   -5.6384 H   0  0  0  0  0  0  0  0  0  0  0  0
    1.9755    8.9849   -5.0130 H   0  0  0  0  0  0  0  0  0  0  0  0
    2.5373   10.5495   -4.3511 H   0  0  0  0  0  0  0  0  0  0  0  0
   -0.3246    9.8890   -5.2267 H   0  0  0  0  0  0  0  0  0  0  0  0
    0.2103   11.4519   -4.5882 H   0  0  0  0  0  0  0  0  0  0  0  0
    0.2232   10.0157   -3.5530 H   0  0  0  0  0  0  0  0  0  0  0  0
    2.0527   12.5928   -7.9517 H   0  0  0  0  0  0  0  0  0  0  0  0
    3.4768   11.7625   -8.5697 H   0  0  0  0  0  0  0  0  0  0  0  0
    1.2888   12.8990  -10.1332 H   0  0  0  0  0  0  0  0  0  0  0  0
    2.3914   11.8892  -10.7613 H   0  0  0  0  0  0  0  0  0  0  0  0
   -1.0114    8.6883  -15.3969 H   0  0  0  0  0  0  0  0  0  0  0  0
    5.3132    9.3755  -11.4945 H   0  0  0  0  0  0  0  0  0  0  0  0
    3.8196   10.0427  -10.7953 H   0  0  0  0  0  0  0  0  0  0  0  0
    5.8968   11.2242   -9.9548 H   0  0  0  0  0  0  0  0  0  0  0  0
    4.8221   12.3282  -10.8284 H   0  0  0  0  0  0  0  0  0  0  0  0
    6.2718   11.6947  -11.6179 H   0  0  0  0  0  0  0  0  0  0  0  0
    4.5154   10.6178  -15.4168 H   0  0  0  0  0  0  0  0  0  0  0  0
    3.7461   12.1294  -14.9481 H   0  0  0  0  0  0  0  0  0  0  0  0
    2.9061   10.4182  -17.1652 H   0  0  0  0  0  0  0  0  0  0  0  0
    2.1958   11.8154  -16.7331 H   0  0  0  0  0  0  0  0  0  0  0  0
  1  2  1  0  0  0  0
  2  3  1  0  0  0  0
  3  4  2  0  0  0  0
  4  5  1  0  0  0  0
  5  6  1  0  0  0  0
  6  7  2  0  0  0  0
  7  8  1  0  0  0  0
  8  9  1  0  0  0  0
  9 10  1  0  0  0  0
  7 11  1  0  0  0  0
 11 12  1  0  0  0  0
 12 13  1  0  0  0  0
 11 14  2  0  0  0  0
  3 15  1  0  0  0  0
 15 16  2  0  0  0  0
 16 17  1  0  0  0  0
 17 18  2  0  0  0  0
 18 19  1  0  0  0  0
 19 20  2  0  0  0  0
 20 21  1  0  0  0  0
 21 22  2  0  0  0  0
 22 23  1  0  0  0  0
 23 24  1  0  0  0  0
 24 25  1  0  0  0  0
 22 26  1  0  0  0  0
 26 27  1  0  0  0  0
 26 28  2  0  0  0  0
 18 29  1  0  0  0  0
 29 30  2  0  0  0  0
 30 31  1  0  0  0  0
 31 32  1  0  0  0  0
 32 33  2  0  0  0  0
 33 34  1  0  0  0  0
 34 35  2  0  0  0  0
 35 36  1  0  0  0  0
 36 37  1  0  0  0  0
 37 38  1  0  0  0  0
 35 39  1  0  0  0  0
 39 40  2  0  0  0  0
 39 41  1  0  0  0  0
 31 42  2  0  0  0  0
 42 43  1  0  0  0  0
 30 44  1  0  0  0  0
 44 45  2  0  0  0  0
 45 46  1  0  0  0  0
 45 47  1  0  0  0  0
 47 48  2  0  0  0  0
 48 49  1  0  0  0  0
 49 50  2  0  0  0  0
 50 51  1  0  0  0  0
 51 52  2  0  0  0  0
 52 53  1  0  0  0  0
 53 54  2  0  0  0  0
 54 55  1  0  0  0  0
 55 56  1  0  0  0  0
 56 57  1  0  0  0  0
 54 58  1  0  0  0  0
 58 59  1  0  0  0  0
 58 60  2  0  0  0  0
 50 61  1  0  0  0  0
 61 62  2  0  0  0  0
 62 63  1  0  0  0  0
 63 64  1  0  0  0  0
 64 65  2  0  0  0  0
 65 66  1  0  0  0  0
 66 67  2  0  0  0  0
 67 68  1  0  0  0  0
 68 69  1  0  0  0  0
 69 70  1  0  0  0  0
 67 71  1  0  0  0  0
 71 72  2  0  0  0  0
 71 73  1  0  0  0  0
 63 74  2  0  0  0  0
 74 75  1  0  0  0  0
 62 76  1  0  0  0  0
 76 77  2  0  0  0  0
 77 78  1  0  0  0  0
 77 79  1  0  0  0  0
 79 80  2  0  0  0  0
 80 81  1  0  0  0  0
 81 82  2  0  0  0  0
 82 83  1  0  0  0  0
 83 84  2  0  0  0  0
 84 85  1  0  0  0  0
 85 86  2  0  0  0  0
 86 87  1  0  0  0  0
 87 88  1  0  0  0  0
 88 89  1  0  0  0  0
 86 90  1  0  0  0  0
 90 91  1  0  0  0  0
 90 92  2  0  0  0  0
 82 93  1  0  0  0  0
 93 94  2  0  0  0  0
 94 95  1  0  0  0  0
 95 96  1  0  0  0  0
 96 97  2  0  0  0  0
 97 98  1  0  0  0  0
 98 99  2  0  0  0  0
 99100  1  0  0  0  0
100101  1  0  0  0  0
101102  1  0  0  0  0
 99103  1  0  0  0  0
103104  2  0  0  0  0
103105  1  0  0  0  0
 95106  2  0  0  0  0
106107  1  0  0  0  0
 94108  1  0  0  0  0
108109  2  0  0  0  0
109110  1  0  0  0  0
109111  1  0  0  0  0
111112  1  0  0  0  0
112113  1  0  0  0  0
113114  2  0  0  0  0
114115  1  0  0  0  0
115116  1  0  0  0  0
116117  2  0  0  0  0
117118  1  0  0  0  0
118119  1  0  0  0  0
119120  1  0  0  0  0
117121  1  0  0  0  0
121122  1  0  0  0  0
122123  1  0  0  0  0
121124  2  0  0  0  0
113125  1  0  0  0  0
125126  1  0  0  0  0
126127  1  0  0  0  0
127128  2  0  0  0  0
128129  1  0  0  0  0
129130  1  0  0  0  0
130131  2  0  0  0  0
131132  1  0  0  0  0
132133  1  0  0  0  0
133134  1  0  0  0  0
131135  1  0  0  0  0
135136  1  0  0  0  0
136137  1  0  0  0  0
135138  2  0  0  0  0
  5  1  2  0  0  0  0
 43 15  1  0  0  0  0
 75 47  1  0  0  0  0
107 79  1  0  0  0  0
115111  2  0  0  0  0
129125  2  0  0  0  0
 14  4  1  0  0  0  0
 42 17  1  0  0  0  0
 74 49  1  0  0  0  0
106 81  1  0  0  0  0
124114  1  0  0  0  0
138128  1  0  0  0  0
 28 19  1  0  0  0  0
 46 29  1  0  0  0  0
 60 51  1  0  0  0  0
 78 61  1  0  0  0  0
 92 83  1  0  0  0  0
110 93  1  0  0  0  0
 40 32  1  0  0  0  0
 72 64  1  0  0  0  0
104 96  1  0  0  0  0
  1139  1  0  0  0  0
  9140  1  0  0  0  0
  9141  1  0  0  0  0
 10142  1  0  0  0  0
 10143  1  0  0  0  0
 10144  1  0  0  0  0
 12145  1  0  0  0  0
 12146  1  0  0  0  0
 13147  1  0  0  0  0
 13148  1  0  0  0  0
 16149  1  0  0  0  0
 20150  1  0  0  0  0
 21151  1  0  0  0  0
 24152  1  0  0  0  0
 24153  1  0  0  0  0
 25154  1  0  0  0  0
 25155  1  0  0  0  0
 25156  1  0  0  0  0
 28157  1  0  0  0  0
 33158  1  0  0  0  0
 34159  1  0  0  0  0
 37160  1  0  0  0  0
 37161  1  0  0  0  0
 38162  1  0  0  0  0
 38163  1  0  0  0  0
 38164  1  0  0  0  0
 40165  1  0  0  0  0
 44166  1  0  0  0  0
 48167  1  0  0  0  0
 52168  1  0  0  0  0
 53169  1  0  0  0  0
 56170  1  0  0  0  0
 56171  1  0  0  0  0
 57172  1  0  0  0  0
 57173  1  0  0  0  0
 57174  1  0  0  0  0
 60175  1  0  0  0  0
 65176  1  0  0  0  0
 66177  1  0  0  0  0
 69178  1  0  0  0  0
 69179  1  0  0  0  0
 70180  1  0  0  0  0
 70181  1  0  0  0  0
 70182  1  0  0  0  0
 72183  1  0  0  0  0
 76184  1  0  0  0  0
 80185  1  0  0  0  0
 84186  1  0  0  0  0
 85187  1  0  0  0  0
 88188  1  0  0  0  0
 88189  1  0  0  0  0
 89190  1  0  0  0  0
 89191  1  0  0  0  0
 89192  1  0  0  0  0
 92193  1  0  0  0  0
 97194  1  0  0  0  0
 98195  1  0  0  0  0
101196  1  0  0  0  0
101197  1  0  0  0  0
102198  1  0  0  0  0
102199  1  0  0  0  0
102200  1  0  0  0  0
104201  1  0  0  0  0
108202  1  0  0  0  0
119203  1  0  0  0  0
119204  1  0  0  0  0
120205  1  0  0  0  0
120206  1  0  0  0  0
120207  1  0  0  0  0
122208  1  0  0  0  0
122209  1  0  0  0  0
123210  1  0  0  0  0
123211  1  0  0  0  0
127212  1  0  0  0  0
133213  1  0  0  0  0
133214  1  0  0  0  0
134215  1  0  0  0  0
134216  1  0  0  0  0
134217  1  0  0  0  0
136218  1  0  0  0  0
136219  1  0  0  0  0
137220  1  0  0  0  0
137221  1  0  0  0  0
M  END
