124

C          8.33220       -1.24690        4.80180
S          6.64440       -1.50950        4.77640
C          6.43390       -0.57530        3.32070
C          7.66480       -0.05920        2.89880
C          8.74660       -0.46020        3.74980
C         10.05850       -0.02030        3.46040
C         10.29480        0.81100        2.40460
C         11.68740        1.27460        2.10370
C          9.20950        1.25450        1.58960
C          9.47520        2.20610        0.46330
C          7.93470        0.82200        1.83550
C          5.13270       -0.45570        2.78100
S          3.76000       -0.72600        3.85320
C          2.60560       -0.52820        2.58470
C          3.26210       -0.26490        1.37960
C          4.68270       -0.22320        1.47820
N          5.41990       -0.04250        0.35390
C          4.76360        0.09700       -0.76880
O          5.40010        0.23760       -1.93690
C          6.82640        0.25990       -1.95460
C          7.30070        1.56170       -2.58450
C          3.32600        0.10580       -0.84800
C          2.60520        0.32760       -2.15010
N          1.15950        0.29750       -2.04300
N          2.60820       -0.07990        0.22430
C          1.22420       -0.62240        2.71250
S          0.18620       -0.44780        1.33310
C         -1.28210       -0.68940        2.27410
C         -0.94410       -0.86240        3.63320
C          0.46310       -0.84790        3.85960
N          1.00020       -1.02890        5.08120
C          0.15500       -1.19010        6.06610
O          0.60660       -1.39250        7.30650
C          2.02530       -1.44100        7.44800
C          2.34830       -1.69070        8.90930
C         -1.26620       -1.13420        5.86990
C         -2.16370       -1.21420        7.06770
N         -3.56570       -1.17150        6.70350
N         -1.78260       -0.97610        4.68160
C         -2.48900       -0.68170        1.56880
S         -2.40890       -0.23370       -0.11410
C         -4.11120       -0.47620       -0.39830
C         -4.72530       -0.90230        0.81060
C         -3.81870       -1.02010        1.90480
C         -4.28280       -1.47810        3.14500
C         -5.60530       -1.79730        3.33130
C         -6.07240       -2.29420        4.66330
C         -6.51620       -1.66010        2.25740
C         -7.96300       -1.99330        2.45120
C         -6.07230       -1.22720        1.03150
C         -4.66480       -0.25540       -1.66660
S         -6.38270       -0.42540       -1.93750
C         -6.27690       -0.04890       -3.62440
C         -4.95490        0.26630       -3.96620
C         -4.03790        0.12630       -2.88210
C         -2.67960        0.38120       -3.13580
C         -2.24750        0.80910       -4.36760
C         -0.79260        1.06210       -4.60420
C         -3.18300        1.04220       -5.40960
C         -2.72240        1.57850       -6.72940
C         -4.50830        0.77180       -5.20100
C         -7.43750       -0.08890       -4.43320
S         -8.97600        0.39000       -3.77270
C         -9.78630        0.11140       -5.24950
C         -8.93760       -0.36140       -6.22640
C         -7.58890       -0.49930       -5.76240
C         -6.63860       -1.09540       -6.61550
C         -6.97350       -1.46120       -7.88990
C         -5.94760       -2.09230       -8.78030
C         -8.30010       -1.25250       -8.37720
C         -8.64090       -1.63790       -9.78400
C         -9.25460       -0.72850       -7.55480
H          8.92820       -1.67480        5.58260
H         10.86680       -0.34890        4.09770
H         11.76070        2.35830        2.19200
H         12.39700        0.82470        2.79360
H         11.97240        1.00410        1.08760
H          8.54420        2.50120       -0.01170
H          9.97890        3.10190        0.82470
H         10.11720        1.74530       -0.28760
H          7.11370        1.15330        1.22120
H          7.20520        0.14450       -0.93660
H          7.14890       -0.59450       -2.55970
H          6.89360        1.66000       -3.58770
H          8.38540        1.57070       -2.63860
H          6.96640        2.41110       -1.99320
H          2.92450       -0.43680       -2.86660
H          2.90820        1.29780       -2.55980
H          0.87060       -0.60370       -1.67290
H          0.86330        0.98210       -1.35250
H          2.42090       -2.23770        6.80820
H          2.45140       -0.49390        7.09840
H          1.91080       -2.63080        9.23450
H          1.94700       -0.89020        9.52510
H          3.42540       -1.73490        9.03990
H         -1.96470       -2.15880        7.58840
H         -1.85410       -0.40470        7.75490
H         -4.13590       -0.99660        7.52350
H         -3.72010       -0.42310        6.03610
H         -3.58160       -1.57480        3.95690
H         -6.85870       -1.65150        5.05830
H         -6.48480       -3.29870        4.57140
H         -5.24640       -2.31320        5.36950
H         -8.39830       -1.36720        3.22940
H         -8.07940       -3.03180        2.75940
H         -8.52020       -1.83930        1.53070
H         -6.78650       -1.14680        0.23000
H         -1.94490        0.24580       -2.36100
H         -0.44320        0.49120       -5.46360
H         -0.62330        2.11650       -4.82210
H         -0.19850        0.78570       -3.73530
H         -2.03070        0.88320       -7.20450
H         -3.56770        1.73460       -7.39510
H         -2.20080        2.52570       -6.59880
H         -5.23230        0.96580       -5.97770
H        -10.83820        0.30160       -5.32410
H         -5.64220       -1.28210       -6.24420
H         -4.99700       -2.18400       -8.26090
H         -5.79540       -1.49350       -9.67790
H         -6.26770       -3.08510       -9.09500
H         -8.47620       -2.70330       -9.94210
H         -8.01550       -1.09680      -10.49330
H         -9.68230       -1.41380      -10.00050
H        -10.26980       -0.59600       -7.90000
