
  xtb     03042219203D
 energy: -288.200132017995 gnorm: 0.000337430473 xtb: 6.4.1 (unknown)
167181  0     0  0            999 V2000
   -8.3246   -5.9303   -7.8585 C   0  0  0  0  0  0  0  0  0  0  0  0
   -6.6732   -5.4559   -7.8981 S   0  0  0  0  0  0  0  0  0  0  0  0
   -6.6569   -5.0360   -6.2204 C   0  0  0  0  0  0  0  0  0  0  0  0
   -7.9103   -5.2679   -5.6691 C   0  0  0  0  0  0  0  0  0  0  0  0
   -8.8649   -5.7761   -6.6070 C   0  0  0  0  0  0  0  0  0  0  0  0
  -10.1393   -6.0447   -6.2109 N   0  0  0  0  0  0  0  0  0  0  0  0
  -10.4180   -5.8043   -4.9613 C   0  0  0  0  0  0  0  0  0  0  0  0
  -11.6459   -6.0122   -4.4822 O   0  0  0  0  0  0  0  0  0  0  0  0
  -12.6228   -6.5143   -5.3903 C   0  0  0  0  0  0  0  0  0  0  0  0
  -12.4536   -8.0045   -5.6509 C   0  0  0  0  0  0  0  0  0  0  0  0
   -9.4496   -5.2892   -4.0113 C   0  0  0  0  0  0  0  0  0  0  0  0
   -9.8370   -5.0216   -2.5820 C   0  0  0  0  0  0  0  0  0  0  0  0
   -8.7626   -4.5381   -1.7382 N   0  0  0  0  0  0  0  0  0  0  0  0
   -8.2302   -5.0376   -4.3793 N   0  0  0  0  0  0  0  0  0  0  0  0
   -5.5540   -4.5177   -5.4986 C   0  0  0  0  0  0  0  0  0  0  0  0
   -4.2955   -4.1888   -5.9206 C   0  0  0  0  0  0  0  0  0  0  0  0
   -3.4736   -3.6702   -4.8894 C   0  0  0  0  0  0  0  0  0  0  0  0
   -2.1573   -3.1728   -4.9742 C   0  0  0  0  0  0  0  0  0  0  0  0
   -1.3753   -3.3020   -6.2079 C   0  0  0  0  0  0  0  0  0  0  0  0
   -1.3162   -4.5235   -6.8799 C   0  0  0  0  0  0  0  0  0  0  0  0
   -0.5458   -4.6684   -8.0129 C   0  0  0  0  0  0  0  0  0  0  0  0
    0.1884   -3.6032   -8.5298 C   0  0  0  0  0  0  0  0  0  0  0  0
    1.1117   -3.8914  -10.0127 S   0  0  0  0  0  0  0  0  0  0  0  0
    2.7014   -3.0360   -9.7050 C   0  0  0  0  0  0  0  0  0  0  0  0
    3.3785   -3.5327   -8.4435 C   0  0  0  0  0  0  0  0  0  0  0  0
    0.0991   -2.3845   -7.8659 C   0  0  0  0  0  0  0  0  0  0  0  0
    0.7547   -1.2955   -8.3323 F   0  0  0  0  0  0  0  0  0  0  0  0
   -0.6515   -2.2295   -6.7188 C   0  0  0  0  0  0  0  0  0  0  0  0
   -1.6296   -2.5959   -3.8288 C   0  0  0  0  0  0  0  0  0  0  0  0
   -2.3280   -2.5508   -2.5917 C   0  0  0  0  0  0  0  0  0  0  0  0
   -3.6238   -3.0802   -2.4978 C   0  0  0  0  0  0  0  0  0  0  0  0
   -4.4286   -3.0460   -1.2717 C   0  0  0  0  0  0  0  0  0  0  0  0
   -4.6574   -1.8608   -0.5754 C   0  0  0  0  0  0  0  0  0  0  0  0
   -5.5472   -1.8288    0.4779 C   0  0  0  0  0  0  0  0  0  0  0  0
   -6.2282   -2.9742    0.8870 C   0  0  0  0  0  0  0  0  0  0  0  0
   -7.4030   -2.8331    2.1941 S   0  0  0  0  0  0  0  0  0  0  0  0
   -8.7331   -3.9876    1.6619 C   0  0  0  0  0  0  0  0  0  0  0  0
  -10.0675   -3.4594    2.1501 C   0  0  0  0  0  0  0  0  0  0  0  0
   -5.9239   -4.1671    0.2381 C   0  0  0  0  0  0  0  0  0  0  0  0
   -5.0574   -4.2075   -0.8329 C   0  0  0  0  0  0  0  0  0  0  0  0
   -6.4720   -5.3345    0.6427 F   0  0  0  0  0  0  0  0  0  0  0  0
   -4.1641   -3.6166   -3.6542 C   0  0  0  0  0  0  0  0  0  0  0  0
   -5.7948   -4.2182   -3.7908 S   0  0  0  0  0  0  0  0  0  0  0  0
   -1.5539   -1.9739   -1.5635 C   0  0  0  0  0  0  0  0  0  0  0  0
   -0.3174   -1.5590   -1.9801 C   0  0  0  0  0  0  0  0  0  0  0  0
   -0.0367   -1.8832   -3.6772 S   0  0  0  0  0  0  0  0  0  0  0  0
    0.6747   -0.9177   -1.2127 C   0  0  0  0  0  0  0  0  0  0  0  0
    0.4968   -0.6119    0.4926 S   0  0  0  0  0  0  0  0  0  0  0  0
    2.0457    0.1772    0.5969 C   0  0  0  0  0  0  0  0  0  0  0  0
    2.6720    0.1950   -0.6545 C   0  0  0  0  0  0  0  0  0  0  0  0
    1.8872   -0.4179   -1.6733 C   0  0  0  0  0  0  0  0  0  0  0  0
    2.2989   -0.4606   -2.9590 N   0  0  0  0  0  0  0  0  0  0  0  0
    3.4617    0.0819   -3.2062 C   0  0  0  0  0  0  0  0  0  0  0  0
    3.9323    0.1239   -4.4505 O   0  0  0  0  0  0  0  0  0  0  0  0
    3.0739   -0.3938   -5.4662 C   0  0  0  0  0  0  0  0  0  0  0  0
    3.7011   -0.0906   -6.8134 C   0  0  0  0  0  0  0  0  0  0  0  0
    4.2805    0.6666   -2.1728 C   0  0  0  0  0  0  0  0  0  0  0  0
    5.6272    1.2444   -2.5137 C   0  0  0  0  0  0  0  0  0  0  0  0
    6.3606    1.7553   -1.3738 N   0  0  0  0  0  0  0  0  0  0  0  0
    3.8818    0.7219   -0.9325 N   0  0  0  0  0  0  0  0  0  0  0  0
    2.4538    0.6910    1.8306 C   0  0  0  0  0  0  0  0  0  0  0  0
    3.9455    1.5309    2.1736 S   0  0  0  0  0  0  0  0  0  0  0  0
    3.5164    1.7754    3.8427 C   0  0  0  0  0  0  0  0  0  0  0  0
    2.2610    1.2159    4.1144 C   0  0  0  0  0  0  0  0  0  0  0  0
    1.6673    0.6096    2.9842 C   0  0  0  0  0  0  0  0  0  0  0  0
    0.4519    0.0323    3.0491 N   0  0  0  0  0  0  0  0  0  0  0  0
   -0.1406    0.0625    4.2176 C   0  0  0  0  0  0  0  0  0  0  0  0
   -1.3472   -0.4745    4.3679 O   0  0  0  0  0  0  0  0  0  0  0  0
   -1.9296   -1.0546    3.2007 C   0  0  0  0  0  0  0  0  0  0  0  0
   -3.3015   -1.5901    3.5648 C   0  0  0  0  0  0  0  0  0  0  0  0
    0.4663    0.6706    5.3781 C   0  0  0  0  0  0  0  0  0  0  0  0
   -0.2535    0.6719    6.7002 C   0  0  0  0  0  0  0  0  0  0  0  0
    0.4548    1.3159    7.7833 N   0  0  0  0  0  0  0  0  0  0  0  0
    1.6408    1.2334    5.3090 N   0  0  0  0  0  0  0  0  0  0  0  0
    4.2909    2.4440    4.7928 C   0  0  0  0  0  0  0  0  0  0  0  0
    3.7052    2.6245    6.4229 S   0  0  0  0  0  0  0  0  0  0  0  0
    5.1085    3.5226    6.9239 C   0  0  0  0  0  0  0  0  0  0  0  0
    6.0124    3.6447    5.8646 C   0  0  0  0  0  0  0  0  0  0  0  0
    5.5423    3.0501    4.6572 C   0  0  0  0  0  0  0  0  0  0  0  0
    6.2698    3.0795    3.5216 N   0  0  0  0  0  0  0  0  0  0  0  0
    7.4464    3.6482    3.6070 C   0  0  0  0  0  0  0  0  0  0  0  0
    8.2279    3.7428    2.5355 O   0  0  0  0  0  0  0  0  0  0  0  0
    7.6972    3.2092    1.3231 C   0  0  0  0  0  0  0  0  0  0  0  0
    8.7356    3.3605    0.2290 C   0  0  0  0  0  0  0  0  0  0  0  0
    7.9676    4.1663    4.8476 C   0  0  0  0  0  0  0  0  0  0  0  0
    9.3670    4.7188    4.9177 C   0  0  0  0  0  0  0  0  0  0  0  0
    9.8543    4.9458    6.2638 N   0  0  0  0  0  0  0  0  0  0  0  0
    7.2550    4.1656    5.9353 N   0  0  0  0  0  0  0  0  0  0  0  0
    5.2420    4.0239    8.2359 C   0  0  0  0  0  0  0  0  0  0  0  0
    4.4320    3.2768    9.5832 S   0  0  0  0  0  0  0  0  0  0  0  0
    5.0955    4.3732   10.7134 C   0  0  0  0  0  0  0  0  0  0  0  0
    5.8999    5.3027   10.0998 C   0  0  0  0  0  0  0  0  0  0  0  0
    5.9757    5.1241    8.6771 C   0  0  0  0  0  0  0  0  0  0  0  0
    6.6212    6.0186    7.8989 N   0  0  0  0  0  0  0  0  0  0  0  0
    7.2288    6.9954    8.5132 C   0  0  0  0  0  0  0  0  0  0  0  0
    7.8593    7.9548    7.8372 O   0  0  0  0  0  0  0  0  0  0  0  0
    7.7931    7.9351    6.4100 C   0  0  0  0  0  0  0  0  0  0  0  0
    9.1377    8.3741    5.8538 C   0  0  0  0  0  0  0  0  0  0  0  0
    7.2484    7.1194    9.9573 C   0  0  0  0  0  0  0  0  0  0  0  0
    8.0321    8.2317   10.6006 C   0  0  0  0  0  0  0  0  0  0  0  0
    7.9680    8.2721   12.0447 N   0  0  0  0  0  0  0  0  0  0  0  0
    6.5807    6.3060   10.7149 N   0  0  0  0  0  0  0  0  0  0  0  0
   -8.7983   -6.2871   -8.7496 H   0  0  0  0  0  0  0  0  0  0  0  0
  -12.5549   -5.9582   -6.3307 H   0  0  0  0  0  0  0  0  0  0  0  0
  -13.5785   -6.3097   -4.9023 H   0  0  0  0  0  0  0  0  0  0  0  0
  -13.2643   -8.3562   -6.2822 H   0  0  0  0  0  0  0  0  0  0  0  0
  -11.5085   -8.1860   -6.1554 H   0  0  0  0  0  0  0  0  0  0  0  0
  -12.4690   -8.5546   -4.7131 H   0  0  0  0  0  0  0  0  0  0  0  0
  -10.6470   -4.2827   -2.5783 H   0  0  0  0  0  0  0  0  0  0  0  0
  -10.2431   -5.9414   -2.1480 H   0  0  0  0  0  0  0  0  0  0  0  0
   -8.3416   -3.7189   -2.1682 H   0  0  0  0  0  0  0  0  0  0  0  0
   -8.0278   -5.2385   -1.6972 H   0  0  0  0  0  0  0  0  0  0  0  0
   -3.9872   -4.2862   -6.9465 H   0  0  0  0  0  0  0  0  0  0  0  0
   -1.8519   -5.3737   -6.4866 H   0  0  0  0  0  0  0  0  0  0  0  0
   -0.4924   -5.6190   -8.5206 H   0  0  0  0  0  0  0  0  0  0  0  0
    3.2904   -3.2786  -10.5894 H   0  0  0  0  0  0  0  0  0  0  0  0
    2.5265   -1.9625   -9.6815 H   0  0  0  0  0  0  0  0  0  0  0  0
    3.5137   -4.6115   -8.4847 H   0  0  0  0  0  0  0  0  0  0  0  0
    4.3537   -3.0614   -8.3412 H   0  0  0  0  0  0  0  0  0  0  0  0
    2.7851   -3.2923   -7.5631 H   0  0  0  0  0  0  0  0  0  0  0  0
   -0.6873   -1.2590   -6.2506 H   0  0  0  0  0  0  0  0  0  0  0  0
   -4.1730   -0.9514   -0.8962 H   0  0  0  0  0  0  0  0  0  0  0  0
   -5.7538   -0.9024    0.9911 H   0  0  0  0  0  0  0  0  0  0  0  0
   -8.7088   -4.0412    0.5725 H   0  0  0  0  0  0  0  0  0  0  0  0
   -8.5182   -4.9669    2.0877 H   0  0  0  0  0  0  0  0  0  0  0  0
  -10.8613   -4.1324    1.8337 H   0  0  0  0  0  0  0  0  0  0  0  0
  -10.2606   -2.4728    1.7353 H   0  0  0  0  0  0  0  0  0  0  0  0
  -10.0823   -3.3865    3.2355 H   0  0  0  0  0  0  0  0  0  0  0  0
   -4.8641   -5.1555   -1.3096 H   0  0  0  0  0  0  0  0  0  0  0  0
   -1.8836   -1.8695   -0.5453 H   0  0  0  0  0  0  0  0  0  0  0  0
    2.9453   -1.4711   -5.3106 H   0  0  0  0  0  0  0  0  0  0  0  0
    2.0883    0.0742   -5.3704 H   0  0  0  0  0  0  0  0  0  0  0  0
    3.8599    0.9795   -6.9162 H   0  0  0  0  0  0  0  0  0  0  0  0
    3.0386   -0.4255   -7.6043 H   0  0  0  0  0  0  0  0  0  0  0  0
    4.6596   -0.5938   -6.9067 H   0  0  0  0  0  0  0  0  0  0  0  0
    5.4864    2.0559   -3.2366 H   0  0  0  0  0  0  0  0  0  0  0  0
    6.2270    0.4747   -3.0108 H   0  0  0  0  0  0  0  0  0  0  0  0
    6.5056    0.9989   -0.7114 H   0  0  0  0  0  0  0  0  0  0  0  0
    5.7782    2.4337   -0.8913 H   0  0  0  0  0  0  0  0  0  0  0  0
   -1.2717   -1.8509    2.8341 H   0  0  0  0  0  0  0  0  0  0  0  0
   -1.9912   -0.2898    2.4180 H   0  0  0  0  0  0  0  0  0  0  0  0
   -3.9370   -0.7862    3.9254 H   0  0  0  0  0  0  0  0  0  0  0  0
   -3.7631   -2.0395    2.6901 H   0  0  0  0  0  0  0  0  0  0  0  0
   -3.2170   -2.3398    4.3463 H   0  0  0  0  0  0  0  0  0  0  0  0
   -0.4644   -0.3659    6.9814 H   0  0  0  0  0  0  0  0  0  0  0  0
   -1.2223    1.1663    6.5662 H   0  0  0  0  0  0  0  0  0  0  0  0
    1.3520    0.8622    7.9234 H   0  0  0  0  0  0  0  0  0  0  0  0
    0.6609    2.2777    7.5319 H   0  0  0  0  0  0  0  0  0  0  0  0
    6.7754    3.7474    1.0773 H   0  0  0  0  0  0  0  0  0  0  0  0
    7.4362    2.1582    1.4855 H   0  0  0  0  0  0  0  0  0  0  0  0
    9.6447    2.8309    0.5000 H   0  0  0  0  0  0  0  0  0  0  0  0
    8.9769    4.4096    0.0823 H   0  0  0  0  0  0  0  0  0  0  0  0
    8.3349    2.9456   -0.6917 H   0  0  0  0  0  0  0  0  0  0  0  0
    9.3810    5.6741    4.3780 H   0  0  0  0  0  0  0  0  0  0  0  0
   10.0471    4.0447    4.3896 H   0  0  0  0  0  0  0  0  0  0  0  0
   10.0205    4.0536    6.7193 H   0  0  0  0  0  0  0  0  0  0  0  0
    9.1185    5.3987    6.7990 H   0  0  0  0  0  0  0  0  0  0  0  0
    4.8720    4.2813   11.7565 H   0  0  0  0  0  0  0  0  0  0  0  0
    7.0012    8.6308    6.1066 H   0  0  0  0  0  0  0  0  0  0  0  0
    7.5230    6.9296    6.0770 H   0  0  0  0  0  0  0  0  0  0  0  0
    9.4081    9.3446    6.2616 H   0  0  0  0  0  0  0  0  0  0  0  0
    9.0761    8.4509    4.7718 H   0  0  0  0  0  0  0  0  0  0  0  0
    9.9082    7.6542    6.1173 H   0  0  0  0  0  0  0  0  0  0  0  0
    7.6682    9.1856   10.2029 H   0  0  0  0  0  0  0  0  0  0  0  0
    9.0797    8.1387   10.2938 H   0  0  0  0  0  0  0  0  0  0  0  0
    8.3082    7.3931   12.4220 H   0  0  0  0  0  0  0  0  0  0  0  0
    6.9987    8.3523   12.3363 H   0  0  0  0  0  0  0  0  0  0  0  0
  1  2  1  0  0  0  0
  2  3  1  0  0  0  0
  3  4  2  0  0  0  0
  4  5  1  0  0  0  0
  5  6  1  0  0  0  0
  6  7  2  0  0  0  0
  7  8  1  0  0  0  0
  8  9  1  0  0  0  0
  9 10  1  0  0  0  0
  7 11  1  0  0  0  0
 11 12  1  0  0  0  0
 12 13  1  0  0  0  0
 11 14  2  0  0  0  0
  3 15  1  0  0  0  0
 15 16  2  0  0  0  0
 16 17  1  0  0  0  0
 17 18  2  0  0  0  0
 18 19  1  0  0  0  0
 19 20  2  0  0  0  0
 20 21  1  0  0  0  0
 21 22  2  0  0  0  0
 22 23  1  0  0  0  0
 23 24  1  0  0  0  0
 24 25  1  0  0  0  0
 22 26  1  0  0  0  0
 26 27  1  0  0  0  0
 26 28  2  0  0  0  0
 18 29  1  0  0  0  0
 29 30  2  0  0  0  0
 30 31  1  0  0  0  0
 31 32  1  0  0  0  0
 32 33  2  0  0  0  0
 33 34  1  0  0  0  0
 34 35  2  0  0  0  0
 35 36  1  0  0  0  0
 36 37  1  0  0  0  0
 37 38  1  0  0  0  0
 35 39  1  0  0  0  0
 39 40  2  0  0  0  0
 39 41  1  0  0  0  0
 31 42  2  0  0  0  0
 42 43  1  0  0  0  0
 30 44  1  0  0  0  0
 44 45  2  0  0  0  0
 45 46  1  0  0  0  0
 45 47  1  0  0  0  0
 47 48  1  0  0  0  0
 48 49  1  0  0  0  0
 49 50  2  0  0  0  0
 50 51  1  0  0  0  0
 51 52  1  0  0  0  0
 52 53  2  0  0  0  0
 53 54  1  0  0  0  0
 54 55  1  0  0  0  0
 55 56  1  0  0  0  0
 53 57  1  0  0  0  0
 57 58  1  0  0  0  0
 58 59  1  0  0  0  0
 57 60  2  0  0  0  0
 49 61  1  0  0  0  0
 61 62  1  0  0  0  0
 62 63  1  0  0  0  0
 63 64  2  0  0  0  0
 64 65  1  0  0  0  0
 65 66  1  0  0  0  0
 66 67  2  0  0  0  0
 67 68  1  0  0  0  0
 68 69  1  0  0  0  0
 69 70  1  0  0  0  0
 67 71  1  0  0  0  0
 71 72  1  0  0  0  0
 72 73  1  0  0  0  0
 71 74  2  0  0  0  0
 63 75  1  0  0  0  0
 75 76  1  0  0  0  0
 76 77  1  0  0  0  0
 77 78  2  0  0  0  0
 78 79  1  0  0  0  0
 79 80  1  0  0  0  0
 80 81  2  0  0  0  0
 81 82  1  0  0  0  0
 82 83  1  0  0  0  0
 83 84  1  0  0  0  0
 81 85  1  0  0  0  0
 85 86  1  0  0  0  0
 86 87  1  0  0  0  0
 85 88  2  0  0  0  0
 77 89  1  0  0  0  0
 89 90  1  0  0  0  0
 90 91  1  0  0  0  0
 91 92  2  0  0  0  0
 92 93  1  0  0  0  0
 93 94  1  0  0  0  0
 94 95  2  0  0  0  0
 95 96  1  0  0  0  0
 96 97  1  0  0  0  0
 97 98  1  0  0  0  0
 95 99  1  0  0  0  0
 99100  1  0  0  0  0
100101  1  0  0  0  0
 99102  2  0  0  0  0
  5  1  2  0  0  0  0
 43 15  1  0  0  0  0
 51 47  2  0  0  0  0
 65 61  2  0  0  0  0
 79 75  2  0  0  0  0
 93 89  2  0  0  0  0
 14  4  1  0  0  0  0
 42 17  1  0  0  0  0
 60 50  1  0  0  0  0
 74 64  1  0  0  0  0
 88 78  1  0  0  0  0
102 92  1  0  0  0  0
 28 19  1  0  0  0  0
 46 29  1  0  0  0  0
 40 32  1  0  0  0  0
  1103  1  0  0  0  0
  9104  1  0  0  0  0
  9105  1  0  0  0  0
 10106  1  0  0  0  0
 10107  1  0  0  0  0
 10108  1  0  0  0  0
 12109  1  0  0  0  0
 12110  1  0  0  0  0
 13111  1  0  0  0  0
 13112  1  0  0  0  0
 16113  1  0  0  0  0
 20114  1  0  0  0  0
 21115  1  0  0  0  0
 24116  1  0  0  0  0
 24117  1  0  0  0  0
 25118  1  0  0  0  0
 25119  1  0  0  0  0
 25120  1  0  0  0  0
 28121  1  0  0  0  0
 33122  1  0  0  0  0
 34123  1  0  0  0  0
 37124  1  0  0  0  0
 37125  1  0  0  0  0
 38126  1  0  0  0  0
 38127  1  0  0  0  0
 38128  1  0  0  0  0
 40129  1  0  0  0  0
 44130  1  0  0  0  0
 55131  1  0  0  0  0
 55132  1  0  0  0  0
 56133  1  0  0  0  0
 56134  1  0  0  0  0
 56135  1  0  0  0  0
 58136  1  0  0  0  0
 58137  1  0  0  0  0
 59138  1  0  0  0  0
 59139  1  0  0  0  0
 69140  1  0  0  0  0
 69141  1  0  0  0  0
 70142  1  0  0  0  0
 70143  1  0  0  0  0
 70144  1  0  0  0  0
 72145  1  0  0  0  0
 72146  1  0  0  0  0
 73147  1  0  0  0  0
 73148  1  0  0  0  0
 83149  1  0  0  0  0
 83150  1  0  0  0  0
 84151  1  0  0  0  0
 84152  1  0  0  0  0
 84153  1  0  0  0  0
 86154  1  0  0  0  0
 86155  1  0  0  0  0
 87156  1  0  0  0  0
 87157  1  0  0  0  0
 91158  1  0  0  0  0
 97159  1  0  0  0  0
 97160  1  0  0  0  0
 98161  1  0  0  0  0
 98162  1  0  0  0  0
 98163  1  0  0  0  0
100164  1  0  0  0  0
100165  1  0  0  0  0
101166  1  0  0  0  0
101167  1  0  0  0  0
M  END
