136

N          5.50490       -0.17090       -1.02420
C          5.16410        1.18910       -0.65930
C          4.32920        1.06630        0.64510
N          5.24470        0.76350        1.71790
C          6.27860        1.75610        1.94190
C          6.39760        2.73460        0.76120
C          7.72910        3.45990        0.90530
S          8.87130        2.37870        1.84180
C          7.63940        1.06590        2.04170
N          6.36110        1.96070       -0.46080
N          3.41700       -0.04450        0.50070
S          4.13000       -1.14640       -0.72040
N          2.12280        0.37150        0.24270
C          1.07310       -0.53170        0.73350
C          0.97460       -1.62900       -0.34800
N          2.09870       -2.50900       -0.16100
C          2.18150       -3.15150        1.13920
C          1.24860       -2.48170        2.15980
C          1.68330       -2.92770        3.55340
S          3.38470       -3.59180        3.44510
C          3.58140       -3.03540        1.73620
N          1.36610       -1.04310        2.03440
N          1.08030       -0.98630       -1.63950
S          1.69010        0.69690       -1.38160
N         -0.00030       -1.11880       -2.42320
C          0.20400       -0.57240       -3.74730
C         -1.16730       -0.60180       -4.46920
N         -1.31830        0.64450       -5.18220
C         -0.16770        1.02330       -5.98480
C          1.04090        1.24520       -5.01700
C          1.39750        2.72590       -5.00960
S          1.07560        3.29950       -6.69720
C         -0.46330        2.33490       -6.71100
N          0.71100        0.78080       -3.68830
N         -2.22020       -0.68310       -3.46500
S         -1.57310       -0.32060       -1.91960
N         -3.09760       -1.74540       -3.61860
C         -2.79140       -2.99980       -2.93840
C         -3.78790       -3.18180       -1.72930
N         -4.70300       -4.26920       -1.96510
C         -3.98750       -5.51170       -2.14930
C         -2.88500       -5.39030       -3.24900
C         -3.10560       -6.48070       -4.29410
S         -3.94260       -7.84450       -3.43760
C         -4.94530       -6.63400       -2.53660
N         -3.02020       -4.08190       -3.86480
N         -4.54110       -1.95170       -1.60350
S         -4.72250       -1.34940       -3.20150
C         -4.19770       -1.05260       -0.61350
S         -4.66870        0.59930       -0.77160
C         -3.88180        1.07650        0.70660
C         -3.28940       -0.02990        1.29730
C         -3.49200       -1.24940        0.55860
N         -3.03610       -2.43570        1.03890
C         -2.44450       -2.41510        2.19830
O         -2.04550       -3.56010        2.77550
C         -2.37340       -4.77610        2.10980
C         -1.34330       -5.15370        1.05250
C         -2.20400       -1.19030        2.92170
C         -1.48030       -1.20570        4.23760
N         -0.50980       -0.11910        4.27480
N         -2.61800       -0.04520        2.46860
C         -3.98310        2.41870        1.16830
S         -5.46290        3.30000        0.91590
C         -4.88720        4.69380        1.71690
C         -3.60170        4.51520        2.16020
C         -3.06590        3.21860        1.83600
N         -1.76780        2.92320        2.09090
C         -1.06890        3.85150        2.68140
O          0.23260        3.69120        2.92990
C          0.85850        2.51170        2.42710
C          2.02420        2.14600        3.32730
C         -1.63260        5.11970        3.10150
C         -0.77700        6.10790        3.84850
N         -1.43320        7.34950        4.19370
N         -2.85900        5.43640        2.82990
H          6.28340       -0.47840       -0.44570
H          4.50920        1.58660       -1.45310
H          3.72670        1.97760        0.81190
H          4.74580        0.52200        2.56450
H          6.10280        2.33950        2.85860
H          5.57900        3.47940        0.80580
H          8.17620        3.67760       -0.06310
H          7.61860        4.38570        1.46870
H          7.79400        0.57720        3.00000
H          7.75370        0.34470        1.23340
H          6.59600        2.51500       -1.27300
H          0.14880        0.07090        0.69690
H         -0.00780       -2.14070       -0.30140
H          2.21510       -3.15340       -0.93190
H          1.91330       -4.21750        1.07050
H          0.21180       -2.81710        1.98690
H          1.68000       -2.08850        4.24610
H          1.04940       -3.72460        3.93920
H          3.90430       -1.99730        1.73280
H          4.31040       -3.66400        1.23370
H          0.82890       -0.57570        2.76520
H          0.94710       -1.20010       -4.25360
H         -1.25270       -1.49420       -5.11870
H         -2.17580        0.64650       -5.72100
H          0.09630        0.24170       -6.71960
H          1.90200        0.66660       -5.36920
H          2.43860        2.90350       -4.75750
H          0.75490        3.28030       -4.32400
H         -0.77590        2.19220       -7.74200
H         -1.22390        2.89860       -6.16870
H         -0.02300        1.37500       -3.30140
H         -1.74570       -2.94750       -2.57930
H         -3.25630       -3.37090       -0.79280
H         -5.24960       -4.05440       -2.79700
H         -3.51210       -5.75560       -1.19230
H         -1.89100       -5.52050       -2.78230
H         -3.76330       -6.11590       -5.08480
H         -2.18050       -6.85370       -4.72620
H         -5.40000       -7.11320       -1.67480
H         -5.72620       -6.26690       -3.20390
H         -2.41820       -3.99220       -4.67560
H         -3.36570       -4.67940        1.65710
H         -2.39690       -5.52810        2.90220
H         -1.62440       -6.09770        0.59350
H         -1.29370       -4.38680        0.28200
H         -0.36070       -5.26370        1.50590
H         -0.96000       -2.15790        4.36310
H         -2.24280       -1.12940        5.03250
H         -0.98720        0.73460        3.99640
H         -0.16350        0.00690        5.22040
H         -5.50590        5.56150        1.81880
H          1.20110        2.70870        1.40480
H          0.12040        1.70880        2.39000
H          1.67720        1.98680        4.34450
H          2.76380        2.94300        3.33380
H          2.47200        1.22880        2.95770
H         -0.41660        5.63110        4.76690
H          0.10570        6.33070        3.23910
H         -2.25850        7.15070        4.75090
H         -1.76330        7.80240        3.34700
