240

C         -1.23750       -7.61150       12.26410
S         -2.49740       -6.67780       11.54520
C         -1.32870       -5.64230       10.80150
C         -1.52660       -4.47150       10.02910
C         -0.44720       -3.60980        9.86440
O          0.77070       -3.86480       10.40010
C          1.10430       -5.26610       10.47770
C          2.36020       -5.38730       11.31650
C          3.22800       -6.45560       11.13110
C          4.36140       -6.57580       11.91250
C          4.65650       -5.63660       12.89230
C          5.92150       -5.73960       13.69530
C          7.06740       -5.02540       12.97550
C          3.78130       -4.57450       13.07430
C          2.64170       -4.45190       12.30100
C          1.36260       -5.76130        9.05610
C          0.88780       -6.97650        8.58580
C          1.13610       -7.36350        7.28100
C          1.85290       -6.54770        6.41670
C          2.14580       -6.98530        5.01010
C          3.47480       -7.74090        4.94940
C          2.33260       -5.33540        6.89700
C          2.09410       -4.94740        8.20060
C         -0.03840       -6.02330       11.11230
C          0.00470       -7.15080       11.95300
C         -0.76170       -2.46390        9.13360
C         -2.07290       -2.45550        8.69460
S         -2.94100       -3.87120        9.23750
C         -2.65450       -1.51210        7.82300
S         -4.25920       -1.71360        7.15350
C         -4.08160       -0.35800        6.09140
C         -2.84350        0.25910        6.29420
C         -2.03410       -0.39000        7.26660
N         -0.79430        0.07810        7.54230
C         -0.40470        1.12920        6.86950
O          0.81060        1.65030        7.06840
C          1.64100        1.01410        8.03490
C          1.22680        1.34220        9.46280
C         -1.22270        1.77760        5.87600
C         -0.70990        2.97410        5.12150
N         -1.64340        3.54890        4.17710
N         -2.41930        1.33500        5.60800
C         -4.96820       -0.04150        5.06090
S         -4.54840        1.15140        3.86680
C         -5.88750        0.71740        2.83820
C         -6.67930       -0.26100        3.45450
C         -6.15090       -0.69110        4.70470
N         -6.73450       -1.67070        5.42410
C         -7.81800       -2.19360        4.91010
O         -8.45450       -3.17070        5.55630
C         -7.86650       -3.59040        6.78710
C         -8.69120       -4.73730        7.34050
C         -8.37560       -1.74960        3.65710
C         -9.65310       -2.35590        3.16300
N         -9.92230       -1.99030        1.78720
N         -7.80990       -0.80600        2.95890
C         -5.95480        1.15140        1.50300
S         -4.76780        2.26840        0.86490
C         -5.31700        1.95280       -0.74390
C         -4.69880        2.33330       -1.94690
C         -5.20760        1.85340       -3.14980
O         -6.38710        1.21940       -3.24960
C         -6.97520        0.59120       -2.07860
C         -8.45510        0.94110       -2.05730
C         -8.89830        2.14920       -2.57450
C        -10.23730        2.48760       -2.51130
C        -11.15980        1.63650       -1.91840
C        -12.62060        1.98450       -1.89150
C        -13.31950        1.44990       -3.14320
C        -10.70610        0.43270       -1.39400
C         -9.37060        0.08440       -1.45890
C         -6.76050       -0.90410       -2.28530
C         -5.87590       -1.65010       -1.52180
C         -5.68270       -2.99320       -1.79240
C         -6.35230       -3.61700       -2.83530
C         -6.10290       -5.06370       -3.15160
C         -4.93700       -5.20200       -4.13280
C         -7.21770       -2.85750       -3.61330
C         -7.41970       -1.51860       -3.34410
C         -6.39000        1.07260       -0.77280
C         -6.76010        0.63840        0.49720
C         -4.36220        2.11160       -4.23860
C         -3.21710        2.78810       -3.87500
S         -3.19150        3.14770       -2.16340
C         -2.04330        3.07220       -4.61690
S         -1.67320        2.28890       -6.13750
C         -0.06010        2.92600       -6.09880
C          1.06290        2.55430       -6.87190
C          2.32730        2.81540       -6.35010
O          2.54130        3.50610       -5.21310
C          1.48750        4.39080       -4.77930
C          1.63690        4.58660       -3.28070
C          1.90330        3.48150       -2.48330
C          1.84790        3.58380       -1.10720
C          1.51680        4.78600       -0.49470
C          1.29530        4.85460        0.98780
C         -0.17170        4.53760        1.29300
C          1.29870        5.89740       -1.29800
C          1.35700        5.80370       -2.67670
C          1.60560        5.69640       -5.55160
C          2.86900        6.19370       -5.84260
C          3.01150        7.37360       -6.54670
C          1.89860        8.08760       -6.97190
C          2.05500        9.39370       -7.69650
C          2.13300       10.55130       -6.69910
C          0.63820        7.59050       -6.66840
C          0.48910        6.40670       -5.96960
C          0.14150        3.74170       -4.99840
C         -0.97350        3.81770       -4.16680
C          3.35530        2.19450       -7.06830
C          2.89380        1.47100       -8.14820
S          1.15940        1.57230       -8.29210
C          3.66610        0.67600       -9.03680
S          2.98730        0.01710      -10.50450
C          4.48020       -0.77170      -10.87100
C          4.78520       -1.64630      -11.94370
C          5.94960       -2.39030      -11.87330
O          6.81210       -2.33380      -10.83850
C          6.82400       -1.12810      -10.04050
C          7.79300       -0.15620      -10.70350
C          9.05470       -0.63060      -11.04260
C          9.97360        0.19840      -11.65410
C          9.65720        1.52090      -11.94080
C         10.67640        2.43690      -12.55510
C         11.51130        3.11150      -11.46460
C          8.39550        1.98780      -11.60030
C          7.46800        1.16000      -10.99230
C          7.31230       -1.52530       -8.65730
C          8.06840       -0.65230       -7.88710
C          8.45150       -1.00650       -6.60670
C          8.09040       -2.23370       -6.06600
C          8.54460       -2.63160       -4.69090
C          9.89090       -3.35510       -4.76080
C          7.33590       -3.10200       -6.84380
C          6.94390       -2.75110       -8.12180
C          5.43940       -0.53950       -9.90360
C          4.97820        0.28230       -8.87160
C          6.09730       -3.27460      -12.96410
C          5.06230       -3.17870      -13.84120
S          3.88180       -2.01990      -13.36960
H         -1.49830       -8.45190       12.87530
H          3.01830       -7.19310       10.36990
H          5.02880       -7.41190       11.75720
H          6.18590       -6.78940       13.83810
H          5.77580       -5.28670       14.67800
H          7.98610       -5.09930       13.55290
H          6.82790       -3.97370       12.83530
H          7.23430       -5.47030       11.99700
H          3.99170       -3.83500       13.83400
H          1.96800       -3.62250       12.45020
H          0.32160       -7.62680        9.23670
H          0.75770       -8.31240        6.92780
H          2.19790       -6.11310        4.35530
H          1.34560       -7.63520        4.65040
H          3.68780       -8.05570        3.93030
H          4.28730       -7.10520        5.29430
H          3.43770       -8.62270        5.58510
H          2.89600       -4.68710        6.24090
H          2.46660       -4.00200        8.56690
H          0.91630       -7.59900       12.30540
H         -0.07170       -1.67620        8.90340
H          1.61460       -0.06850        7.87200
H          2.64330        1.39440        7.82410
H          1.92690        0.88640       10.15700
H          1.22470        2.41900        9.61470
H          0.23090        0.95420        9.66010
H         -0.41530        3.74320        5.84420
H          0.19830        2.67900        4.58310
H         -2.48140        3.84720        4.66650
H         -1.94340        2.83530        3.51950
H         -6.82970       -3.89310        6.60290
H         -7.84580       -2.74090        7.47900
H         -8.70170       -5.56500        6.63660
H         -9.71480       -4.41550        7.51290
H         -8.26020       -5.07360        8.27860
H         -9.57440       -3.44710        3.23290
H        -10.44640       -2.05000        3.87120
H         -9.70420       -1.00900        1.65060
H        -10.89840       -2.14300        1.56260
H         -8.19250        2.82210       -3.03800
H        -10.56890        3.42980       -2.92430
H        -13.08890        1.55080       -1.00550
H        -12.74300        3.06860       -1.84670
H        -12.87560        1.88240       -4.03700
H        -13.21680        0.36850       -3.20030
H        -14.37810        1.69880       -3.12520
H        -11.40850       -0.24490       -0.92950
H         -9.04310       -0.86010       -1.05020
H         -5.33590       -1.19180       -0.70680
H         -4.99770       -3.56340       -1.18110
H         -5.86800       -5.60760       -2.23440
H         -6.99850       -5.50620       -3.59210
H         -5.15730       -4.67510       -5.05840
H         -4.03150       -4.77680       -3.70600
H         -4.75470       -6.24920       -4.36330
H         -7.74110       -3.32190       -4.43700
H         -8.09200       -0.93500       -3.95530
H         -7.53330       -0.07600        0.70800
H         -4.56830        1.79470       -5.24410
H          2.13530        2.53580       -2.95010
H          2.03810        2.71090       -0.49910
H          1.93640        4.13300        1.49760
H          1.53650        5.85190        1.35990
H         -0.36750        4.56140        2.36210
H         -0.42810        3.54980        0.91660
H         -0.82100        5.26010        0.80420
H          1.05760        6.84600       -0.83980
H          1.15950        6.67460       -3.28430
H          3.73880        5.64380       -5.51480
H          4.00140        7.74570       -6.77020
H          2.96550        9.37600       -8.29910
H          1.20570        9.55070       -8.36440
H          2.98180       10.41900       -6.03180
H          1.22830       10.59260       -6.09660
H          2.24590       11.49820       -7.22220
H         -0.24020        8.13320       -6.98770
H         -0.50130        6.03790       -5.74570
H         -1.00540        4.37670       -3.24850
H          4.39050        2.27130       -6.79600
H          9.30390       -1.65820      -10.82230
H         10.95060       -0.18460      -11.91280
H         10.17580        3.20270      -13.15080
H         11.33650        1.86830      -13.21320
H         12.02730        2.36350      -10.86660
H         12.25140        3.77460      -11.90640
H         10.87180        3.69410      -10.80530
H          8.12960        3.01280      -11.81720
H          6.49230        1.54800      -10.73930
H          8.35880        0.30730       -8.28990
H          9.03810       -0.31620       -6.01700
H          7.80490       -3.29200       -4.23380
H          8.64510       -1.74430       -4.06270
H          9.80770       -4.24970       -5.37370
H         10.22000       -3.64460       -3.76540
H         10.64520       -2.70770       -5.20230
H          7.04360       -4.06140       -6.44110
H          6.35290       -3.43290       -8.71440
H          5.57480        0.56520       -8.02430
H          6.93250       -3.94020      -13.07560
H          4.92250       -3.72040      -14.75490
