
  xtb     03042219113D
 energy: -225.489579735766 gnorm: 0.000475033870 xtb: 6.4.1 (unknown)
136151  0     0  0            999 V2000
    5.5049   -0.1709   -1.0242 N   0  0  0  0  0  0  0  0  0  0  0  0
    5.1641    1.1891   -0.6593 C   0  0  0  0  0  0  0  0  0  0  0  0
    4.3292    1.0663    0.6451 C   0  0  0  0  0  0  0  0  0  0  0  0
    5.2447    0.7635    1.7179 N   0  0  0  0  0  0  0  0  0  0  0  0
    6.2786    1.7561    1.9419 C   0  0  0  0  0  0  0  0  0  0  0  0
    6.3976    2.7346    0.7612 C   0  0  0  0  0  0  0  0  0  0  0  0
    7.7291    3.4599    0.9053 C   0  0  0  0  0  0  0  0  0  0  0  0
    8.8713    2.3787    1.8418 S   0  0  0  0  0  0  0  0  0  0  0  0
    7.6394    1.0659    2.0417 C   0  0  0  0  0  0  0  0  0  0  0  0
    6.3611    1.9607   -0.4608 N   0  0  0  0  0  0  0  0  0  0  0  0
    3.4170   -0.0445    0.5007 N   0  0  0  0  0  0  0  0  0  0  0  0
    4.1300   -1.1464   -0.7204 S   0  0  0  0  0  0  0  0  0  0  0  0
    2.1228    0.3715    0.2427 N   0  0  0  0  0  0  0  0  0  0  0  0
    1.0731   -0.5317    0.7335 C   0  0  0  0  0  0  0  0  0  0  0  0
    0.9746   -1.6290   -0.3480 C   0  0  0  0  0  0  0  0  0  0  0  0
    2.0987   -2.5090   -0.1610 N   0  0  0  0  0  0  0  0  0  0  0  0
    2.1815   -3.1515    1.1392 C   0  0  0  0  0  0  0  0  0  0  0  0
    1.2486   -2.4817    2.1598 C   0  0  0  0  0  0  0  0  0  0  0  0
    1.6833   -2.9277    3.5534 C   0  0  0  0  0  0  0  0  0  0  0  0
    3.3847   -3.5918    3.4451 S   0  0  0  0  0  0  0  0  0  0  0  0
    3.5814   -3.0354    1.7362 C   0  0  0  0  0  0  0  0  0  0  0  0
    1.3661   -1.0431    2.0344 N   0  0  0  0  0  0  0  0  0  0  0  0
    1.0803   -0.9863   -1.6395 N   0  0  0  0  0  0  0  0  0  0  0  0
    1.6901    0.6969   -1.3816 S   0  0  0  0  0  0  0  0  0  0  0  0
   -0.0003   -1.1188   -2.4232 N   0  0  0  0  0  0  0  0  0  0  0  0
    0.2040   -0.5724   -3.7473 C   0  0  0  0  0  0  0  0  0  0  0  0
   -1.1673   -0.6018   -4.4692 C   0  0  0  0  0  0  0  0  0  0  0  0
   -1.3183    0.6445   -5.1822 N   0  0  0  0  0  0  0  0  0  0  0  0
   -0.1677    1.0233   -5.9848 C   0  0  0  0  0  0  0  0  0  0  0  0
    1.0409    1.2452   -5.0170 C   0  0  0  0  0  0  0  0  0  0  0  0
    1.3975    2.7259   -5.0096 C   0  0  0  0  0  0  0  0  0  0  0  0
    1.0756    3.2995   -6.6972 S   0  0  0  0  0  0  0  0  0  0  0  0
   -0.4633    2.3349   -6.7110 C   0  0  0  0  0  0  0  0  0  0  0  0
    0.7110    0.7808   -3.6883 N   0  0  0  0  0  0  0  0  0  0  0  0
   -2.2202   -0.6831   -3.4650 N   0  0  0  0  0  0  0  0  0  0  0  0
   -1.5731   -0.3206   -1.9196 S   0  0  0  0  0  0  0  0  0  0  0  0
   -3.0976   -1.7454   -3.6186 N   0  0  0  0  0  0  0  0  0  0  0  0
   -2.7914   -2.9998   -2.9384 C   0  0  0  0  0  0  0  0  0  0  0  0
   -3.7879   -3.1818   -1.7293 C   0  0  0  0  0  0  0  0  0  0  0  0
   -4.7030   -4.2692   -1.9651 N   0  0  0  0  0  0  0  0  0  0  0  0
   -3.9875   -5.5117   -2.1493 C   0  0  0  0  0  0  0  0  0  0  0  0
   -2.8850   -5.3903   -3.2490 C   0  0  0  0  0  0  0  0  0  0  0  0
   -3.1056   -6.4807   -4.2941 C   0  0  0  0  0  0  0  0  0  0  0  0
   -3.9426   -7.8445   -3.4376 S   0  0  0  0  0  0  0  0  0  0  0  0
   -4.9453   -6.6340   -2.5366 C   0  0  0  0  0  0  0  0  0  0  0  0
   -3.0202   -4.0819   -3.8648 N   0  0  0  0  0  0  0  0  0  0  0  0
   -4.5411   -1.9517   -1.6035 N   0  0  0  0  0  0  0  0  0  0  0  0
   -4.7225   -1.3494   -3.2015 S   0  0  0  0  0  0  0  0  0  0  0  0
   -4.1977   -1.0526   -0.6135 C   0  0  0  0  0  0  0  0  0  0  0  0
   -4.6687    0.5993   -0.7716 S   0  0  0  0  0  0  0  0  0  0  0  0
   -3.8818    1.0765    0.7066 C   0  0  0  0  0  0  0  0  0  0  0  0
   -3.2894   -0.0299    1.2973 C   0  0  0  0  0  0  0  0  0  0  0  0
   -3.4920   -1.2494    0.5586 C   0  0  0  0  0  0  0  0  0  0  0  0
   -3.0361   -2.4357    1.0389 N   0  0  0  0  0  0  0  0  0  0  0  0
   -2.4445   -2.4151    2.1983 C   0  0  0  0  0  0  0  0  0  0  0  0
   -2.0455   -3.5601    2.7755 O   0  0  0  0  0  0  0  0  0  0  0  0
   -2.3734   -4.7761    2.1098 C   0  0  0  0  0  0  0  0  0  0  0  0
   -1.3433   -5.1537    1.0525 C   0  0  0  0  0  0  0  0  0  0  0  0
   -2.2040   -1.1903    2.9217 C   0  0  0  0  0  0  0  0  0  0  0  0
   -1.4803   -1.2057    4.2376 C   0  0  0  0  0  0  0  0  0  0  0  0
   -0.5098   -0.1191    4.2748 N   0  0  0  0  0  0  0  0  0  0  0  0
   -2.6180   -0.0452    2.4686 N   0  0  0  0  0  0  0  0  0  0  0  0
   -3.9831    2.4187    1.1683 C   0  0  0  0  0  0  0  0  0  0  0  0
   -5.4629    3.3000    0.9159 S   0  0  0  0  0  0  0  0  0  0  0  0
   -4.8872    4.6938    1.7169 C   0  0  0  0  0  0  0  0  0  0  0  0
   -3.6017    4.5152    2.1602 C   0  0  0  0  0  0  0  0  0  0  0  0
   -3.0659    3.2186    1.8360 C   0  0  0  0  0  0  0  0  0  0  0  0
   -1.7678    2.9232    2.0909 N   0  0  0  0  0  0  0  0  0  0  0  0
   -1.0689    3.8515    2.6814 C   0  0  0  0  0  0  0  0  0  0  0  0
    0.2326    3.6912    2.9299 O   0  0  0  0  0  0  0  0  0  0  0  0
    0.8585    2.5117    2.4271 C   0  0  0  0  0  0  0  0  0  0  0  0
    2.0242    2.1460    3.3273 C   0  0  0  0  0  0  0  0  0  0  0  0
   -1.6326    5.1197    3.1015 C   0  0  0  0  0  0  0  0  0  0  0  0
   -0.7770    6.1079    3.8485 C   0  0  0  0  0  0  0  0  0  0  0  0
   -1.4332    7.3495    4.1937 N   0  0  0  0  0  0  0  0  0  0  0  0
   -2.8590    5.4364    2.8299 N   0  0  0  0  0  0  0  0  0  0  0  0
    6.2834   -0.4784   -0.4457 H   0  0  0  0  0  0  0  0  0  0  0  0
    4.5092    1.5866   -1.4531 H   0  0  0  0  0  0  0  0  0  0  0  0
    3.7267    1.9776    0.8119 H   0  0  0  0  0  0  0  0  0  0  0  0
    4.7458    0.5220    2.5645 H   0  0  0  0  0  0  0  0  0  0  0  0
    6.1028    2.3395    2.8586 H   0  0  0  0  0  0  0  0  0  0  0  0
    5.5790    3.4794    0.8058 H   0  0  0  0  0  0  0  0  0  0  0  0
    8.1762    3.6776   -0.0631 H   0  0  0  0  0  0  0  0  0  0  0  0
    7.6186    4.3857    1.4687 H   0  0  0  0  0  0  0  0  0  0  0  0
    7.7940    0.5772    3.0000 H   0  0  0  0  0  0  0  0  0  0  0  0
    7.7537    0.3447    1.2334 H   0  0  0  0  0  0  0  0  0  0  0  0
    6.5960    2.5150   -1.2730 H   0  0  0  0  0  0  0  0  0  0  0  0
    0.1488    0.0709    0.6969 H   0  0  0  0  0  0  0  0  0  0  0  0
   -0.0078   -2.1407   -0.3014 H   0  0  0  0  0  0  0  0  0  0  0  0
    2.2151   -3.1534   -0.9319 H   0  0  0  0  0  0  0  0  0  0  0  0
    1.9133   -4.2175    1.0705 H   0  0  0  0  0  0  0  0  0  0  0  0
    0.2118   -2.8171    1.9869 H   0  0  0  0  0  0  0  0  0  0  0  0
    1.6800   -2.0885    4.2461 H   0  0  0  0  0  0  0  0  0  0  0  0
    1.0494   -3.7246    3.9392 H   0  0  0  0  0  0  0  0  0  0  0  0
    3.9043   -1.9973    1.7328 H   0  0  0  0  0  0  0  0  0  0  0  0
    4.3104   -3.6640    1.2337 H   0  0  0  0  0  0  0  0  0  0  0  0
    0.8289   -0.5757    2.7652 H   0  0  0  0  0  0  0  0  0  0  0  0
    0.9471   -1.2001   -4.2536 H   0  0  0  0  0  0  0  0  0  0  0  0
   -1.2527   -1.4942   -5.1187 H   0  0  0  0  0  0  0  0  0  0  0  0
   -2.1758    0.6465   -5.7210 H   0  0  0  0  0  0  0  0  0  0  0  0
    0.0963    0.2417   -6.7196 H   0  0  0  0  0  0  0  0  0  0  0  0
    1.9020    0.6666   -5.3692 H   0  0  0  0  0  0  0  0  0  0  0  0
    2.4386    2.9035   -4.7575 H   0  0  0  0  0  0  0  0  0  0  0  0
    0.7549    3.2803   -4.3240 H   0  0  0  0  0  0  0  0  0  0  0  0
   -0.7759    2.1922   -7.7420 H   0  0  0  0  0  0  0  0  0  0  0  0
   -1.2239    2.8986   -6.1687 H   0  0  0  0  0  0  0  0  0  0  0  0
   -0.0230    1.3750   -3.3014 H   0  0  0  0  0  0  0  0  0  0  0  0
   -1.7457   -2.9475   -2.5793 H   0  0  0  0  0  0  0  0  0  0  0  0
   -3.2563   -3.3709   -0.7928 H   0  0  0  0  0  0  0  0  0  0  0  0
   -5.2496   -4.0544   -2.7970 H   0  0  0  0  0  0  0  0  0  0  0  0
   -3.5121   -5.7556   -1.1923 H   0  0  0  0  0  0  0  0  0  0  0  0
   -1.8910   -5.5205   -2.7823 H   0  0  0  0  0  0  0  0  0  0  0  0
   -3.7633   -6.1159   -5.0848 H   0  0  0  0  0  0  0  0  0  0  0  0
   -2.1805   -6.8537   -4.7262 H   0  0  0  0  0  0  0  0  0  0  0  0
   -5.4000   -7.1132   -1.6748 H   0  0  0  0  0  0  0  0  0  0  0  0
   -5.7262   -6.2669   -3.2039 H   0  0  0  0  0  0  0  0  0  0  0  0
   -2.4182   -3.9922   -4.6756 H   0  0  0  0  0  0  0  0  0  0  0  0
   -3.3657   -4.6794    1.6571 H   0  0  0  0  0  0  0  0  0  0  0  0
   -2.3969   -5.5281    2.9022 H   0  0  0  0  0  0  0  0  0  0  0  0
   -1.6244   -6.0977    0.5935 H   0  0  0  0  0  0  0  0  0  0  0  0
   -1.2937   -4.3868    0.2820 H   0  0  0  0  0  0  0  0  0  0  0  0
   -0.3607   -5.2637    1.5059 H   0  0  0  0  0  0  0  0  0  0  0  0
   -0.9600   -2.1579    4.3631 H   0  0  0  0  0  0  0  0  0  0  0  0
   -2.2428   -1.1294    5.0325 H   0  0  0  0  0  0  0  0  0  0  0  0
   -0.9872    0.7346    3.9964 H   0  0  0  0  0  0  0  0  0  0  0  0
   -0.1635    0.0069    5.2204 H   0  0  0  0  0  0  0  0  0  0  0  0
   -5.5059    5.5615    1.8188 H   0  0  0  0  0  0  0  0  0  0  0  0
    1.2011    2.7087    1.4048 H   0  0  0  0  0  0  0  0  0  0  0  0
    0.1204    1.7088    2.3900 H   0  0  0  0  0  0  0  0  0  0  0  0
    1.6772    1.9868    4.3445 H   0  0  0  0  0  0  0  0  0  0  0  0
    2.7638    2.9430    3.3338 H   0  0  0  0  0  0  0  0  0  0  0  0
    2.4720    1.2288    2.9577 H   0  0  0  0  0  0  0  0  0  0  0  0
   -0.4166    5.6311    4.7669 H   0  0  0  0  0  0  0  0  0  0  0  0
    0.1057    6.3307    3.2391 H   0  0  0  0  0  0  0  0  0  0  0  0
   -2.2585    7.1507    4.7509 H   0  0  0  0  0  0  0  0  0  0  0  0
   -1.7633    7.8024    3.3470 H   0  0  0  0  0  0  0  0  0  0  0  0
  1  2  1  0  0  0  0
  2  3  1  0  0  0  0
  3  4  1  0  0  0  0
  4  5  1  0  0  0  0
  5  6  1  0  0  0  0
  6  7  1  0  0  0  0
  7  8  1  0  0  0  0
  8  9  1  0  0  0  0
  6 10  1  0  0  0  0
  3 11  1  0  0  0  0
 11 12  1  0  0  0  0
 11 13  1  0  0  0  0
 13 14  1  0  0  0  0
 14 15  1  0  0  0  0
 15 16  1  0  0  0  0
 16 17  1  0  0  0  0
 17 18  1  0  0  0  0
 18 19  1  0  0  0  0
 19 20  1  0  0  0  0
 20 21  1  0  0  0  0
 18 22  1  0  0  0  0
 15 23  1  0  0  0  0
 23 24  1  0  0  0  0
 23 25  1  0  0  0  0
 25 26  1  0  0  0  0
 26 27  1  0  0  0  0
 27 28  1  0  0  0  0
 28 29  1  0  0  0  0
 29 30  1  0  0  0  0
 30 31  1  0  0  0  0
 31 32  1  0  0  0  0
 32 33  1  0  0  0  0
 30 34  1  0  0  0  0
 27 35  1  0  0  0  0
 35 36  1  0  0  0  0
 35 37  1  0  0  0  0
 37 38  1  0  0  0  0
 38 39  1  0  0  0  0
 39 40  1  0  0  0  0
 40 41  1  0  0  0  0
 41 42  1  0  0  0  0
 42 43  1  0  0  0  0
 43 44  1  0  0  0  0
 44 45  1  0  0  0  0
 42 46  1  0  0  0  0
 39 47  1  0  0  0  0
 47 48  1  0  0  0  0
 47 49  1  0  0  0  0
 49 50  1  0  0  0  0
 50 51  1  0  0  0  0
 51 52  2  0  0  0  0
 52 53  1  0  0  0  0
 53 54  1  0  0  0  0
 54 55  2  0  0  0  0
 55 56  1  0  0  0  0
 56 57  1  0  0  0  0
 57 58  1  0  0  0  0
 55 59  1  0  0  0  0
 59 60  1  0  0  0  0
 60 61  1  0  0  0  0
 59 62  2  0  0  0  0
 51 63  1  0  0  0  0
 63 64  1  0  0  0  0
 64 65  1  0  0  0  0
 65 66  2  0  0  0  0
 66 67  1  0  0  0  0
 67 68  1  0  0  0  0
 68 69  2  0  0  0  0
 69 70  1  0  0  0  0
 70 71  1  0  0  0  0
 71 72  1  0  0  0  0
 69 73  1  0  0  0  0
 73 74  1  0  0  0  0
 74 75  1  0  0  0  0
 73 76  2  0  0  0  0
 12  1  1  0  0  0  0
 24 13  1  0  0  0  0
 36 25  1  0  0  0  0
 48 37  1  0  0  0  0
 53 49  2  0  0  0  0
 67 63  2  0  0  0  0
 10  2  1  0  0  0  0
 22 14  1  0  0  0  0
 34 26  1  0  0  0  0
 46 38  1  0  0  0  0
 62 52  1  0  0  0  0
 76 66  1  0  0  0  0
  9  5  1  0  0  0  0
 21 17  1  0  0  0  0
 33 29  1  0  0  0  0
 45 41  1  0  0  0  0
  1 77  1  0  0  0  0
  2 78  1  0  0  0  0
  3 79  1  0  0  0  0
  4 80  1  0  0  0  0
  5 81  1  0  0  0  0
  6 82  1  0  0  0  0
  7 83  1  0  0  0  0
  7 84  1  0  0  0  0
  9 85  1  0  0  0  0
  9 86  1  0  0  0  0
 10 87  1  0  0  0  0
 14 88  1  0  0  0  0
 15 89  1  0  0  0  0
 16 90  1  0  0  0  0
 17 91  1  0  0  0  0
 18 92  1  0  0  0  0
 19 93  1  0  0  0  0
 19 94  1  0  0  0  0
 21 95  1  0  0  0  0
 21 96  1  0  0  0  0
 22 97  1  0  0  0  0
 26 98  1  0  0  0  0
 27 99  1  0  0  0  0
 28100  1  0  0  0  0
 29101  1  0  0  0  0
 30102  1  0  0  0  0
 31103  1  0  0  0  0
 31104  1  0  0  0  0
 33105  1  0  0  0  0
 33106  1  0  0  0  0
 34107  1  0  0  0  0
 38108  1  0  0  0  0
 39109  1  0  0  0  0
 40110  1  0  0  0  0
 41111  1  0  0  0  0
 42112  1  0  0  0  0
 43113  1  0  0  0  0
 43114  1  0  0  0  0
 45115  1  0  0  0  0
 45116  1  0  0  0  0
 46117  1  0  0  0  0
 57118  1  0  0  0  0
 57119  1  0  0  0  0
 58120  1  0  0  0  0
 58121  1  0  0  0  0
 58122  1  0  0  0  0
 60123  1  0  0  0  0
 60124  1  0  0  0  0
 61125  1  0  0  0  0
 61126  1  0  0  0  0
 65127  1  0  0  0  0
 71128  1  0  0  0  0
 71129  1  0  0  0  0
 72130  1  0  0  0  0
 72131  1  0  0  0  0
 72132  1  0  0  0  0
 74133  1  0  0  0  0
 74134  1  0  0  0  0
 75135  1  0  0  0  0
 75136  1  0  0  0  0
M  END
