248

C         14.33160        9.04510      -10.45000
C         13.30340        9.65910       -9.83120
C         12.33260        8.74540       -9.32100
C         11.16260        9.03370       -8.60150
C         10.73130       10.41410       -8.34890
C         10.38000       10.83680       -7.06830
C          9.97810       12.13590       -6.84410
C          9.89140       13.06000       -7.88380
S          9.31470       14.68180       -7.47740
C         10.33010       15.79500       -8.51830
C         11.81290       15.61530       -8.26320
C         10.21080       12.61360       -9.16260
F         10.10740       13.43460      -10.23190
C         10.64020       11.32340       -9.39790
C         10.42000        7.94860       -8.15710
C         10.79180        6.60810       -8.41940
C         11.96230        6.31760       -9.13790
C         12.34230        4.92190       -9.38800
C         12.61210        4.46100      -10.67300
C         12.88010        3.12620      -10.90650
C         12.88280        2.20580       -9.86460
S         13.17990        0.47840      -10.06780
C         12.45010        0.13050      -11.70670
C         10.97070        0.45700      -11.75600
C         12.65840        2.68920       -8.57670
C         12.39160        4.01690       -8.32880
F         12.67440        1.83110       -7.53540
C         12.70160        7.40260       -9.58130
S         14.20600        7.31900      -10.46050
C          9.83540        5.68810       -7.92660
C          8.78220        6.27730       -7.29160
S          8.90950        8.02380       -7.28390
C          7.69030        5.58520       -6.68360
C          7.62130        4.23740       -6.48080
C          6.41180        3.80780       -5.88510
C          6.05310        2.49500       -5.52720
C          6.94410        1.36700       -5.82180
C          7.27060        0.43020       -4.84190
C          8.15530       -0.59040       -5.11190
C          8.74900       -0.72990       -6.36680
S          9.85570       -2.08250       -6.59120
C         11.09820       -1.45320       -7.79050
C         12.37770       -2.24770       -7.62610
C          8.37860        0.18520       -7.34850
F          8.86410        0.08820       -8.60940
C          7.50260        1.21890       -7.08890
C          4.83850        2.34480       -4.87560
C          3.98210        3.43800       -4.59160
C          4.34130        4.74890       -4.94790
C          3.46340        5.87600       -4.61070
C          2.96970        6.02670       -3.31440
C          2.11030        7.05770       -3.00400
C          1.70020        7.97460       -3.97030
S          0.52430        9.19920       -3.47210
C          1.06960       10.72150       -4.33050
C          2.49830       11.08730       -3.98320
C          2.20290        7.81460       -5.25790
C          3.08230        6.79910       -5.57770
F          1.82970        8.64630       -6.25490
C          5.55150        4.89940       -5.60480
S          6.25380        6.41140       -6.12190
C          2.78740        3.01950       -3.96080
C          2.72220        1.67660       -3.73750
S          4.13920        0.83670       -4.33380
C          1.67810        1.01010       -3.03150
C          1.49210       -0.31520       -2.77680
C          0.36770       -0.57670       -1.94970
C         -0.12470       -1.81180       -1.50430
C          0.50430       -3.10100       -1.81830
C          1.84150       -3.35590       -1.52290
C          2.36200       -4.62280       -1.68400
C          1.58320       -5.67210       -2.16880
S          2.32940       -7.27020       -2.28050
C          0.99180       -8.41340       -1.76390
C          0.43480       -8.07460       -0.39640
C          0.27520       -5.37860       -2.54420
F         -0.51140       -6.31740       -3.10960
C         -0.27010       -4.12680       -2.35020
C         -1.24740       -1.77860       -0.69100
C         -1.90970       -0.58800       -0.30230
C         -1.43610        0.64620       -0.77150
C         -2.07840        1.92890       -0.46060
C         -3.43690        2.14040       -0.68920
C         -3.98620        3.39610       -0.53380
C         -3.20960        4.48150       -0.13220
S         -3.96380        6.07500       -0.03360
C         -2.62760        7.17280       -0.66560
C         -3.24100        8.36640       -1.36870
C         -1.87470        4.23540        0.17600
C         -1.30770        2.99120        0.00240
F         -1.08370        5.21960        0.65840
C         -0.30540        0.61280       -1.57470
S          0.45410        2.01400       -2.27410
C         -2.95980       -0.84130        0.61750
C         -3.09730       -2.16040        0.93210
S         -1.95570       -3.17610        0.07040
C         -3.97530       -2.77750        1.86930
C         -3.96180       -4.08950        2.23870
C         -4.90330       -4.41010        3.24520
C         -5.11370       -5.65830        3.85770
C         -4.36180       -6.83860        3.41420
C         -3.67950       -7.64400        4.32020
C         -2.92710       -8.72240        3.89470
C         -2.82770       -9.03230        2.54380
S         -1.90290      -10.36660        1.85730
C         -0.82150      -10.91450        3.22160
C          0.27670       -9.91230        3.52270
C         -3.54160       -8.23410        1.64800
F         -3.48500       -8.52080        0.33170
C         -4.29550       -7.15900        2.05840
C         -6.03390       -5.69250        4.89180
C         -6.78490       -4.55820        5.29910
C         -6.59860       -3.32010        4.65840
C         -7.38590       -2.14100        5.03700
C         -6.77000       -0.92880        5.33180
C         -7.51000        0.18330        5.68360
C         -8.89620        0.12120        5.75370
S         -9.95770        1.46860        6.16880
C         -8.85360        2.65780        7.00540
C         -8.37160        2.14590        8.34940
C         -9.50120       -1.09660        5.44070
C         -8.77640       -2.21350        5.09380
F        -10.84790       -1.18860        5.48260
C         -5.63800       -3.27260        3.66080
S         -5.17780       -1.85410        2.74880
C         -7.63010       -4.84670        6.39590
C         -7.55660       -6.14620        6.81550
S         -6.43980       -7.09350        5.84900
C         -8.23040       -6.72620        7.91870
S         -7.96650       -8.37860        8.38410
C         -9.01080       -8.27000        9.76130
C         -9.57400       -6.99610        9.83400
C         -9.12070       -6.11800        8.79960
N         -9.55930       -4.83630        8.73060
C        -10.42640       -4.47300        9.63640
O        -10.90250       -3.23100        9.66270
C        -10.45460       -2.33790        8.64470
C        -11.06770       -0.97790        8.91970
C        -10.94510       -5.38330       10.63210
C        -12.04560       -4.92910       11.54080
N        -12.24750       -5.85990       12.63500
N        -10.52080       -6.60720       10.71360
C         -9.18610       -9.35310       10.65650
S         -9.05310      -11.00580       10.13180
C         -9.36480      -11.62560       11.69290
C         -9.54870      -10.61680       12.60580
C         -9.43900       -9.30770       12.02410
N         -9.49220       -8.19570       12.79030
C         -9.68920       -8.38100       14.06660
O         -9.70290       -7.35570       14.90890
C         -9.50780       -6.05770       14.34190
C         -9.38760       -5.06310       15.48210
C         -9.88070       -9.69620       14.64920
C        -10.16290       -9.82320       16.12230
N        -10.33250      -11.17730       16.60150
N         -9.80020      -10.77400       13.93370
H         15.18510        9.49760      -10.91580
H         13.23070       10.72510       -9.71500
H         10.44960       10.14960       -6.23950
H          9.72120       12.46330       -5.84890
H         10.07300       15.63810       -9.56350
H          9.99710       16.78810       -8.21640
H         12.14100       14.62170       -8.56320
H         12.37490       16.34970       -8.83650
H         12.03780       15.74850       -7.20700
H         10.86300       11.02730      -10.41150
H         12.58910        5.15030      -11.50300
H         13.08330        2.79840      -11.91360
H         12.62070       -0.93830      -11.83490
H         13.01700        0.66650      -12.46730
H         10.43660       -0.06700      -10.96700
H         10.55890        0.15490      -12.71680
H         10.80400        1.52500      -11.62840
H         12.22800        4.34130       -7.31280
H          9.91590        4.62720       -8.07060
H          8.42740        3.56890       -6.71720
H          6.85400        0.52450       -3.85140
H          8.41730       -1.30190       -4.34460
H         10.69370       -1.56440       -8.79520
H         11.26390       -0.40160       -7.56680
H         12.20550       -3.30190       -7.83180
H         12.75790       -2.14900       -6.61230
H         13.12720       -1.86870       -8.31710
H          7.23500        1.88490       -7.89520
H          3.28320        5.34260       -2.54080
H          1.73210        7.16950       -1.99970
H          0.37040       11.47530       -3.96810
H          0.92930       10.59340       -5.40140
H          2.75540       12.03700       -4.44760
H          3.19260       10.33090       -4.34470
H          2.61820       11.18020       -2.90570
H          3.42930        6.71710       -6.59590
H          1.99150        3.68890       -3.68820
H          2.13580       -1.08250       -3.16870
H          2.45900       -2.56860       -1.11780
H          3.38690       -4.82980       -1.41760
H          0.21650       -8.41990       -2.52630
H          1.48930       -9.38330       -1.75640
H         -0.06080       -7.10540       -0.40510
H         -0.29670       -8.82700       -0.10820
H          1.23050       -8.04810        0.34610
H         -1.29660       -3.95890       -2.63730
H         -4.05270        1.32540       -1.03770
H         -5.03030        3.56560       -0.74600
H         -2.03080        6.58050       -1.35740
H         -2.01360        7.48450        0.17800
H         -2.44770        8.99220       -1.77260
H         -3.83820        8.95540       -0.67650
H         -3.87970        8.04090       -2.18660
H         -0.26650        2.85880        0.25110
H         -3.56680       -0.07000        1.05760
H         -3.26990       -4.79830        1.82010
H         -3.71730       -7.41400        5.37370
H         -2.41620       -9.31990        4.63200
H         -0.40170      -11.85060        2.85340
H         -1.44030      -11.13160        4.09110
H          0.89090       -9.75380        2.63950
H         -0.14020       -8.95430        3.82630
H          0.90970      -10.28680        4.32480
H         -4.83880       -6.58690        1.32270
H         -5.69390       -0.85500        5.30130
H         -6.99310        1.10460        5.89690
H         -8.03290        2.90580        6.33380
H         -9.47930        3.54180        7.12770
H         -7.80420        1.22440        8.23590
H         -9.21890        1.94980        9.00210
H         -7.73360        2.89100        8.82080
H         -9.29600       -3.12630        4.84920
H         -8.25690       -4.12930        6.89080
H        -10.77270       -2.72590        7.67130
H         -9.35880       -2.29750        8.65720
H        -12.14950       -1.06490        8.96530
H        -10.80860       -0.28830        8.12300
H        -10.70850       -0.58720        9.86830
H        -12.94150       -4.78730       10.91150
H        -11.78800       -3.94280       11.94590
H        -12.02170       -6.79590       12.31100
H        -13.20720       -5.84270       12.95850
H         -9.39580      -12.68250       11.86210
H         -8.60280       -6.07550       13.72460
H        -10.36610       -5.82920       13.69870
H         -8.54430       -5.31360       16.12100
H         -9.24330       -4.06500       15.07930
H        -10.29310       -5.07560       16.08200
H        -11.06760       -9.24930       16.35160
H         -9.34090       -9.35250       16.67290
H         -9.49660      -11.71480       16.39340
H        -11.09130      -11.62170       16.09390
