
  xtb     03042220143D
 energy: -176.400926883838 gnorm: 0.000189105083 xtb: 6.4.1 (unknown)
108115  0     0  0            999 V2000
   11.8311   -6.8759    2.5925 C   0  0  0  0  0  0  0  0  0  0  0  0
   12.8685   -6.1573    2.6742 N   0  0  0  0  0  0  0  0  0  0  0  0
   12.8734   -4.8253    2.7757 N   0  0  0  0  0  0  0  0  0  0  0  0
   11.8320   -3.9072    2.8696 C   0  0  0  0  0  0  0  0  0  0  0  0
   10.6839   -4.1428    3.6255 C   0  0  0  0  0  0  0  0  0  0  0  0
    9.6874   -3.1899    3.7008 C   0  0  0  0  0  0  0  0  0  0  0  0
    9.8061   -1.9647    3.0400 C   0  0  0  0  0  0  0  0  0  0  0  0
   10.9965   -1.7070    2.3522 C   0  0  0  0  0  0  0  0  0  0  0  0
   11.9860   -2.6579    2.2613 C   0  0  0  0  0  0  0  0  0  0  0  0
    8.7685   -0.9367    3.0502 C   0  0  0  0  0  0  0  0  0  0  0  0
    7.4976   -1.0498    2.9944 N   0  0  0  0  0  0  0  0  0  0  0  0
    6.8763   -2.2214    2.9183 N   0  0  0  0  0  0  0  0  0  0  0  0
    5.5156   -2.2897    2.7130 C   0  0  0  0  0  0  0  0  0  0  0  0
    4.7328   -1.1339    2.6560 C   0  0  0  0  0  0  0  0  0  0  0  0
    3.3838   -1.2285    2.4162 C   0  0  0  0  0  0  0  0  0  0  0  0
    2.7619   -2.4723    2.2360 C   0  0  0  0  0  0  0  0  0  0  0  0
    3.5503   -3.6270    2.3327 C   0  0  0  0  0  0  0  0  0  0  0  0
    4.9035   -3.5362    2.5621 C   0  0  0  0  0  0  0  0  0  0  0  0
    1.3650   -2.5540    1.9194 C   0  0  0  0  0  0  0  0  0  0  0  0
    0.4532   -1.1052    1.5719 S   0  0  0  0  0  0  0  0  0  0  0  0
   -0.9928   -1.9793    1.2074 C   0  0  0  0  0  0  0  0  0  0  0  0
   -0.7836   -3.3469    1.3736 C   0  0  0  0  0  0  0  0  0  0  0  0
    0.5497   -3.6730    1.7710 C   0  0  0  0  0  0  0  0  0  0  0  0
    0.8969   -4.9730    1.9607 N   0  0  0  0  0  0  0  0  0  0  0  0
   -0.0361   -5.8628    1.7591 C   0  0  0  0  0  0  0  0  0  0  0  0
    0.2310   -7.1623    1.9319 O   0  0  0  0  0  0  0  0  0  0  0  0
    1.5577   -7.4826    2.3348 C   0  0  0  0  0  0  0  0  0  0  0  0
    1.6481   -8.9872    2.5127 C   0  0  0  0  0  0  0  0  0  0  0  0
   -1.3764   -5.5281    1.3482 C   0  0  0  0  0  0  0  0  0  0  0  0
   -2.4049   -6.6028    1.1199 C   0  0  0  0  0  0  0  0  0  0  0  0
   -3.7058   -6.1172    0.7102 N   0  0  0  0  0  0  0  0  0  0  0  0
   -1.7252   -4.2872    1.1643 N   0  0  0  0  0  0  0  0  0  0  0  0
   -2.1470   -1.3366    0.7463 C   0  0  0  0  0  0  0  0  0  0  0  0
   -3.5964   -2.1711    0.2876 S   0  0  0  0  0  0  0  0  0  0  0  0
   -4.3738   -0.7096   -0.2559 C   0  0  0  0  0  0  0  0  0  0  0  0
   -3.5376    0.3932   -0.0530 C   0  0  0  0  0  0  0  0  0  0  0  0
   -2.2824    0.0307    0.5109 C   0  0  0  0  0  0  0  0  0  0  0  0
   -1.3230    0.9418    0.7749 N   0  0  0  0  0  0  0  0  0  0  0  0
   -1.6160    2.1824    0.4885 C   0  0  0  0  0  0  0  0  0  0  0  0
   -0.7258    3.1563    0.6948 O   0  0  0  0  0  0  0  0  0  0  0  0
    0.5401    2.7729    1.2269 C   0  0  0  0  0  0  0  0  0  0  0  0
    0.4795    2.5133    2.7258 C   0  0  0  0  0  0  0  0  0  0  0  0
   -2.8979    2.5659   -0.0543 C   0  0  0  0  0  0  0  0  0  0  0  0
   -3.1888    4.0169   -0.2883 C   0  0  0  0  0  0  0  0  0  0  0  0
   -4.3886    4.2002   -1.0779 N   0  0  0  0  0  0  0  0  0  0  0  0
   -3.8231    1.6874   -0.3104 N   0  0  0  0  0  0  0  0  0  0  0  0
   -5.6450   -0.7507   -0.8723 C   0  0  0  0  0  0  0  0  0  0  0  0
   -6.1011    0.2840   -1.4823 N   0  0  0  0  0  0  0  0  0  0  0  0
   -7.2786    0.2543   -2.0729 N   0  0  0  0  0  0  0  0  0  0  0  0
   -7.6990    1.2986   -2.8663 C   0  0  0  0  0  0  0  0  0  0  0  0
   -8.9599    1.2610   -3.4639 C   0  0  0  0  0  0  0  0  0  0  0  0
   -9.3712    2.2997   -4.2703 C   0  0  0  0  0  0  0  0  0  0  0  0
   -8.5403    3.3993   -4.5044 C   0  0  0  0  0  0  0  0  0  0  0  0
   -7.2794    3.4268   -3.8932 C   0  0  0  0  0  0  0  0  0  0  0  0
   -6.8606    2.3966   -3.0890 C   0  0  0  0  0  0  0  0  0  0  0  0
   -8.9705    4.4675   -5.3697 C   0  0  0  0  0  0  0  0  0  0  0  0
   -8.2086    5.4602   -5.6283 N   0  0  0  0  0  0  0  0  0  0  0  0
   -8.6191    6.4266   -6.4355 N   0  0  0  0  0  0  0  0  0  0  0  0
   -7.8128    7.4949   -6.7651 C   0  0  0  0  0  0  0  0  0  0  0  0
   -6.5257    7.6096   -6.2389 C   0  0  0  0  0  0  0  0  0  0  0  0
   -5.7362    8.6870   -6.5851 C   0  0  0  0  0  0  0  0  0  0  0  0
   -6.2099    9.6595   -7.4522 C   0  0  0  0  0  0  0  0  0  0  0  0
   -7.4881    9.5472   -7.9745 C   0  0  0  0  0  0  0  0  0  0  0  0
   -8.2892    8.4740   -7.6366 C   0  0  0  0  0  0  0  0  0  0  0  0
   10.8019   -6.5268    2.5699 H   0  0  0  0  0  0  0  0  0  0  0  0
   11.9991   -7.9364    2.5154 H   0  0  0  0  0  0  0  0  0  0  0  0
   13.7797   -4.4409    2.5432 H   0  0  0  0  0  0  0  0  0  0  0  0
   10.5861   -5.0575    4.1892 H   0  0  0  0  0  0  0  0  0  0  0  0
    8.8367   -3.3819    4.3399 H   0  0  0  0  0  0  0  0  0  0  0  0
   11.1260   -0.7502    1.8674 H   0  0  0  0  0  0  0  0  0  0  0  0
   12.8943   -2.4447    1.7151 H   0  0  0  0  0  0  0  0  0  0  0  0
    9.1110    0.0904    3.0455 H   0  0  0  0  0  0  0  0  0  0  0  0
    7.4054   -3.0875    2.8262 H   0  0  0  0  0  0  0  0  0  0  0  0
    5.2134   -0.1782    2.7884 H   0  0  0  0  0  0  0  0  0  0  0  0
    2.7853   -0.3309    2.3572 H   0  0  0  0  0  0  0  0  0  0  0  0
    3.0786   -4.5877    2.2097 H   0  0  0  0  0  0  0  0  0  0  0  0
    5.5040   -4.4342    2.6163 H   0  0  0  0  0  0  0  0  0  0  0  0
    1.7852   -6.9549    3.2688 H   0  0  0  0  0  0  0  0  0  0  0  0
    2.2580   -7.1306    1.5677 H   0  0  0  0  0  0  0  0  0  0  0  0
    0.9456   -9.3166    3.2734 H   0  0  0  0  0  0  0  0  0  0  0  0
    1.4073   -9.4886    1.5793 H   0  0  0  0  0  0  0  0  0  0  0  0
    2.6548   -9.2606    2.8150 H   0  0  0  0  0  0  0  0  0  0  0  0
   -2.0273   -7.2912    0.3556 H   0  0  0  0  0  0  0  0  0  0  0  0
   -2.5174   -7.1821    2.0431 H   0  0  0  0  0  0  0  0  0  0  0  0
   -3.6050   -5.5706   -0.1400 H   0  0  0  0  0  0  0  0  0  0  0  0
   -4.0585   -5.4746    1.4132 H   0  0  0  0  0  0  0  0  0  0  0  0
    0.8911    1.8757    0.7073 H   0  0  0  0  0  0  0  0  0  0  0  0
    1.1963    3.6175    1.0039 H   0  0  0  0  0  0  0  0  0  0  0  0
    0.0723    3.3796    3.2419 H   0  0  0  0  0  0  0  0  0  0  0  0
   -0.1484    1.6495    2.9253 H   0  0  0  0  0  0  0  0  0  0  0  0
    1.4796    2.3151    3.1000 H   0  0  0  0  0  0  0  0  0  0  0  0
   -2.3366    4.4652   -0.8143 H   0  0  0  0  0  0  0  0  0  0  0  0
   -3.2309    4.4971    0.7067 H   0  0  0  0  0  0  0  0  0  0  0  0
   -5.0388    3.4504   -0.8640 H   0  0  0  0  0  0  0  0  0  0  0  0
   -4.8297    5.0886   -0.8739 H   0  0  0  0  0  0  0  0  0  0  0  0
   -6.1941   -1.7001   -0.8360 H   0  0  0  0  0  0  0  0  0  0  0  0
   -7.8650   -0.5840   -2.0222 H   0  0  0  0  0  0  0  0  0  0  0  0
   -9.6094    0.4130   -3.2949 H   0  0  0  0  0  0  0  0  0  0  0  0
  -10.3474    2.2611   -4.7329 H   0  0  0  0  0  0  0  0  0  0  0  0
   -6.6378    4.2734   -4.0737 H   0  0  0  0  0  0  0  0  0  0  0  0
   -5.8860    2.4047   -2.6291 H   0  0  0  0  0  0  0  0  0  0  0  0
   -9.9753    4.3898   -5.8077 H   0  0  0  0  0  0  0  0  0  0  0  0
   -9.5494    6.3785   -6.8578 H   0  0  0  0  0  0  0  0  0  0  0  0
   -6.1705    6.8449   -5.5676 H   0  0  0  0  0  0  0  0  0  0  0  0
   -4.7402    8.7697   -6.1755 H   0  0  0  0  0  0  0  0  0  0  0  0
   -5.5874   10.4997   -7.7201 H   0  0  0  0  0  0  0  0  0  0  0  0
   -7.8643   10.3006   -8.6510 H   0  0  0  0  0  0  0  0  0  0  0  0
   -9.2864    8.3872   -8.0460 H   0  0  0  0  0  0  0  0  0  0  0  0
  1  2  2  0  0  0  0
  2  3  1  0  0  0  0
  3  4  1  0  0  0  0
  4  5  2  0  0  0  0
  5  6  1  0  0  0  0
  6  7  2  0  0  0  0
  7  8  1  0  0  0  0
  8  9  2  0  0  0  0
  7 10  1  0  0  0  0
 10 11  2  0  0  0  0
 11 12  1  0  0  0  0
 12 13  1  0  0  0  0
 13 14  2  0  0  0  0
 14 15  1  0  0  0  0
 15 16  2  0  0  0  0
 16 17  1  0  0  0  0
 17 18  2  0  0  0  0
 16 19  1  0  0  0  0
 19 20  1  0  0  0  0
 20 21  1  0  0  0  0
 21 22  2  0  0  0  0
 22 23  1  0  0  0  0
 23 24  1  0  0  0  0
 24 25  2  0  0  0  0
 25 26  1  0  0  0  0
 26 27  1  0  0  0  0
 27 28  1  0  0  0  0
 25 29  1  0  0  0  0
 29 30  1  0  0  0  0
 30 31  1  0  0  0  0
 29 32  2  0  0  0  0
 21 33  1  0  0  0  0
 33 34  1  0  0  0  0
 34 35  1  0  0  0  0
 35 36  2  0  0  0  0
 36 37  1  0  0  0  0
 37 38  1  0  0  0  0
 38 39  2  0  0  0  0
 39 40  1  0  0  0  0
 40 41  1  0  0  0  0
 41 42  1  0  0  0  0
 39 43  1  0  0  0  0
 43 44  1  0  0  0  0
 44 45  1  0  0  0  0
 43 46  2  0  0  0  0
 35 47  1  0  0  0  0
 47 48  2  0  0  0  0
 48 49  1  0  0  0  0
 49 50  1  0  0  0  0
 50 51  2  0  0  0  0
 51 52  1  0  0  0  0
 52 53  2  0  0  0  0
 53 54  1  0  0  0  0
 54 55  2  0  0  0  0
 53 56  1  0  0  0  0
 56 57  2  0  0  0  0
 57 58  1  0  0  0  0
 58 59  1  0  0  0  0
 59 60  2  0  0  0  0
 60 61  1  0  0  0  0
 61 62  2  0  0  0  0
 62 63  1  0  0  0  0
 63 64  2  0  0  0  0
  9  4  1  0  0  0  0
 18 13  1  0  0  0  0
 23 19  2  0  0  0  0
 37 33  2  0  0  0  0
 55 50  1  0  0  0  0
 64 59  1  0  0  0  0
 32 22  1  0  0  0  0
 46 36  1  0  0  0  0
  1 65  1  0  0  0  0
  1 66  1  0  0  0  0
  3 67  1  0  0  0  0
  5 68  1  0  0  0  0
  6 69  1  0  0  0  0
  8 70  1  0  0  0  0
  9 71  1  0  0  0  0
 10 72  1  0  0  0  0
 12 73  1  0  0  0  0
 14 74  1  0  0  0  0
 15 75  1  0  0  0  0
 17 76  1  0  0  0  0
 18 77  1  0  0  0  0
 27 78  1  0  0  0  0
 27 79  1  0  0  0  0
 28 80  1  0  0  0  0
 28 81  1  0  0  0  0
 28 82  1  0  0  0  0
 30 83  1  0  0  0  0
 30 84  1  0  0  0  0
 31 85  1  0  0  0  0
 31 86  1  0  0  0  0
 41 87  1  0  0  0  0
 41 88  1  0  0  0  0
 42 89  1  0  0  0  0
 42 90  1  0  0  0  0
 42 91  1  0  0  0  0
 44 92  1  0  0  0  0
 44 93  1  0  0  0  0
 45 94  1  0  0  0  0
 45 95  1  0  0  0  0
 47 96  1  0  0  0  0
 49 97  1  0  0  0  0
 51 98  1  0  0  0  0
 52 99  1  0  0  0  0
 54100  1  0  0  0  0
 55101  1  0  0  0  0
 56102  1  0  0  0  0
 58103  1  0  0  0  0
 60104  1  0  0  0  0
 61105  1  0  0  0  0
 62106  1  0  0  0  0
 63107  1  0  0  0  0
 64108  1  0  0  0  0
M  END
