
  xtb     03042217373D
 energy: -233.979952519535 gnorm: 0.000406217684 xtb: 6.4.1 (unknown)
112123  0     0  0            999 V2000
    8.6387   -1.5877    0.7453 C   0  0  0  0  0  0  0  0  0  0  0  0
    7.2764   -1.6456   -0.2738 S   0  0  0  0  0  0  0  0  0  0  0  0
    6.4232   -2.7112    0.7855 C   0  0  0  0  0  0  0  0  0  0  0  0
    7.1765   -2.9800    1.9253 C   0  0  0  0  0  0  0  0  0  0  0  0
    8.4612   -2.3390    1.8853 C   0  0  0  0  0  0  0  0  0  0  0  0
    9.3454   -2.5251    2.9832 C   0  0  0  0  0  0  0  0  0  0  0  0
   10.6948   -1.8788    2.9273 C   0  0  0  0  0  0  0  0  0  0  0  0
   10.6171   -0.5334    2.8445 F   0  0  0  0  0  0  0  0  0  0  0  0
   11.4122   -2.2654    1.8544 F   0  0  0  0  0  0  0  0  0  0  0  0
   11.4545   -2.1406    3.9995 F   0  0  0  0  0  0  0  0  0  0  0  0
    8.9503   -3.2650    4.0606 C   0  0  0  0  0  0  0  0  0  0  0  0
    7.6641   -3.8440    4.1080 C   0  0  0  0  0  0  0  0  0  0  0  0
    6.7914   -3.7105    3.0701 C   0  0  0  0  0  0  0  0  0  0  0  0
    5.0915   -3.1553    0.5028 C   0  0  0  0  0  0  0  0  0  0  0  0
    3.8718   -1.9664    0.1735 S   0  0  0  0  0  0  0  0  0  0  0  0
    2.5853   -3.1255    0.2103 C   0  0  0  0  0  0  0  0  0  0  0  0
    3.0939   -4.4057    0.4740 C   0  0  0  0  0  0  0  0  0  0  0  0
    4.5301   -4.4293    0.5739 C   0  0  0  0  0  0  0  0  0  0  0  0
    5.1599   -5.7051    0.6629 C   0  0  0  0  0  0  0  0  0  0  0  0
    6.6297   -5.9226    0.4348 C   0  0  0  0  0  0  0  0  0  0  0  0
    7.3663   -5.9471    1.5638 F   0  0  0  0  0  0  0  0  0  0  0  0
    7.1989   -5.0171   -0.3736 F   0  0  0  0  0  0  0  0  0  0  0  0
    6.8564   -7.1137   -0.1538 F   0  0  0  0  0  0  0  0  0  0  0  0
    4.3965   -6.8271    0.8626 C   0  0  0  0  0  0  0  0  0  0  0  0
    2.9958   -6.7564    0.9400 C   0  0  0  0  0  0  0  0  0  0  0  0
    2.3506   -5.5761    0.7066 C   0  0  0  0  0  0  0  0  0  0  0  0
    1.2628   -2.6681   -0.0057 C   0  0  0  0  0  0  0  0  0  0  0  0
    0.9395   -0.9613    0.1849 S   0  0  0  0  0  0  0  0  0  0  0  0
   -0.7228   -1.1010   -0.2787 C   0  0  0  0  0  0  0  0  0  0  0  0
   -1.0090   -2.4279   -0.6139 C   0  0  0  0  0  0  0  0  0  0  0  0
    0.1022   -3.3130   -0.4416 C   0  0  0  0  0  0  0  0  0  0  0  0
   -0.0158   -4.6239   -0.7610 N   0  0  0  0  0  0  0  0  0  0  0  0
   -1.1555   -5.0117   -1.2669 C   0  0  0  0  0  0  0  0  0  0  0  0
   -1.3392   -6.2838   -1.6205 O   0  0  0  0  0  0  0  0  0  0  0  0
   -0.2503   -7.1799   -1.4083 C   0  0  0  0  0  0  0  0  0  0  0  0
   -0.5721   -8.4883   -2.1069 C   0  0  0  0  0  0  0  0  0  0  0  0
   -2.2517   -4.1050   -1.4969 C   0  0  0  0  0  0  0  0  0  0  0  0
   -3.4873   -4.5945   -2.1871 C   0  0  0  0  0  0  0  0  0  0  0  0
   -4.5668   -3.6311   -2.0882 N   0  0  0  0  0  0  0  0  0  0  0  0
   -2.1627   -2.8517   -1.1652 N   0  0  0  0  0  0  0  0  0  0  0  0
   -1.5863    0.0128   -0.2860 C   0  0  0  0  0  0  0  0  0  0  0  0
   -0.9728    1.6286   -0.4942 S   0  0  0  0  0  0  0  0  0  0  0  0
   -2.5357    2.3501   -0.3353 C   0  0  0  0  0  0  0  0  0  0  0  0
   -3.5043    1.3665   -0.1424 C   0  0  0  0  0  0  0  0  0  0  0  0
   -2.9690    0.0437   -0.0869 C   0  0  0  0  0  0  0  0  0  0  0  0
   -3.7624   -1.0029    0.2140 N   0  0  0  0  0  0  0  0  0  0  0  0
   -5.0353   -0.7480    0.3683 C   0  0  0  0  0  0  0  0  0  0  0  0
   -5.8701   -1.7041    0.7559 O   0  0  0  0  0  0  0  0  0  0  0  0
   -5.3107   -2.9985    0.9889 C   0  0  0  0  0  0  0  0  0  0  0  0
   -6.3896   -3.8659    1.6122 C   0  0  0  0  0  0  0  0  0  0  0  0
   -5.6038    0.5602    0.1224 C   0  0  0  0  0  0  0  0  0  0  0  0
   -7.0913    0.7731    0.1968 C   0  0  0  0  0  0  0  0  0  0  0  0
   -7.6224    0.5951    1.5379 N   0  0  0  0  0  0  0  0  0  0  0  0
   -4.8366    1.5858   -0.0994 N   0  0  0  0  0  0  0  0  0  0  0  0
   -2.7815    3.7407   -0.4865 C   0  0  0  0  0  0  0  0  0  0  0  0
   -2.0440    4.5781   -1.8078 S   0  0  0  0  0  0  0  0  0  0  0  0
   -3.0278    5.9784   -1.5878 C   0  0  0  0  0  0  0  0  0  0  0  0
   -3.9078    5.8021   -0.5194 C   0  0  0  0  0  0  0  0  0  0  0  0
   -3.7193    4.5508    0.1622 C   0  0  0  0  0  0  0  0  0  0  0  0
   -4.4076    4.3654    1.3909 C   0  0  0  0  0  0  0  0  0  0  0  0
   -4.0620    3.3213    2.4164 C   0  0  0  0  0  0  0  0  0  0  0  0
   -2.8545    2.7623    2.2811 F   0  0  0  0  0  0  0  0  0  0  0  0
   -4.9475    2.3072    2.4984 F   0  0  0  0  0  0  0  0  0  0  0  0
   -4.0574    3.8640    3.6535 F   0  0  0  0  0  0  0  0  0  0  0  0
   -5.3615    5.2744    1.7773 C   0  0  0  0  0  0  0  0  0  0  0  0
   -5.6247    6.4334    1.0275 C   0  0  0  0  0  0  0  0  0  0  0  0
   -4.8728    6.7267   -0.0707 C   0  0  0  0  0  0  0  0  0  0  0  0
   -2.9991    7.0644   -2.5236 C   0  0  0  0  0  0  0  0  0  0  0  0
   -4.5000    7.4820   -3.2969 S   0  0  0  0  0  0  0  0  0  0  0  0
   -3.7515    8.5892   -4.3453 C   0  0  0  0  0  0  0  0  0  0  0  0
   -2.3933    8.6642   -4.1347 C   0  0  0  0  0  0  0  0  0  0  0  0
   -1.9489    7.8075   -3.0602 C   0  0  0  0  0  0  0  0  0  0  0  0
   -0.5803    7.9147   -2.6762 C   0  0  0  0  0  0  0  0  0  0  0  0
   -0.0140    7.2650   -1.4444 C   0  0  0  0  0  0  0  0  0  0  0  0
    1.0323    7.9541   -0.9565 F   0  0  0  0  0  0  0  0  0  0  0  0
    0.4520    6.0192   -1.6628 F   0  0  0  0  0  0  0  0  0  0  0  0
   -0.8862    7.1783   -0.4266 F   0  0  0  0  0  0  0  0  0  0  0  0
    0.2752    8.6964   -3.4076 C   0  0  0  0  0  0  0  0  0  0  0  0
   -0.1624    9.4489   -4.5162 C   0  0  0  0  0  0  0  0  0  0  0  0
   -1.4784    9.4652   -4.8568 C   0  0  0  0  0  0  0  0  0  0  0  0
    9.4927   -1.0090    0.4570 H   0  0  0  0  0  0  0  0  0  0  0  0
    9.6219   -3.4046    4.8938 H   0  0  0  0  0  0  0  0  0  0  0  0
    7.3815   -4.4007    4.9872 H   0  0  0  0  0  0  0  0  0  0  0  0
    5.8077   -4.1540    3.1081 H   0  0  0  0  0  0  0  0  0  0  0  0
    4.8777   -7.7904    0.9358 H   0  0  0  0  0  0  0  0  0  0  0  0
    2.4383   -7.6582    1.1377 H   0  0  0  0  0  0  0  0  0  0  0  0
    1.2770   -5.5166    0.6792 H   0  0  0  0  0  0  0  0  0  0  0  0
   -0.1218   -7.3319   -0.3305 H   0  0  0  0  0  0  0  0  0  0  0  0
    0.6680   -6.7289   -1.7997 H   0  0  0  0  0  0  0  0  0  0  0  0
    0.2388   -9.1934   -1.9508 H   0  0  0  0  0  0  0  0  0  0  0  0
   -0.6981   -8.3234   -3.1734 H   0  0  0  0  0  0  0  0  0  0  0  0
   -1.4920   -8.9091   -1.7100 H   0  0  0  0  0  0  0  0  0  0  0  0
   -3.8012   -5.5398   -1.7276 H   0  0  0  0  0  0  0  0  0  0  0  0
   -3.1997   -4.8300   -3.2268 H   0  0  0  0  0  0  0  0  0  0  0  0
   -4.1685   -2.6968   -2.0657 H   0  0  0  0  0  0  0  0  0  0  0  0
   -5.1977   -3.7050   -2.8771 H   0  0  0  0  0  0  0  0  0  0  0  0
   -4.4436   -2.8941    1.6501 H   0  0  0  0  0  0  0  0  0  0  0  0
   -4.9734   -3.4050    0.0281 H   0  0  0  0  0  0  0  0  0  0  0  0
   -6.0000   -4.8654    1.7801 H   0  0  0  0  0  0  0  0  0  0  0  0
   -6.7164   -3.4501    2.5625 H   0  0  0  0  0  0  0  0  0  0  0  0
   -7.2464   -3.9272    0.9469 H   0  0  0  0  0  0  0  0  0  0  0  0
   -7.3092    1.7921   -0.1312 H   0  0  0  0  0  0  0  0  0  0  0  0
   -7.5973    0.0612   -0.4616 H   0  0  0  0  0  0  0  0  0  0  0  0
   -7.4699   -0.3618    1.8399 H   0  0  0  0  0  0  0  0  0  0  0  0
   -7.1348    1.2074    2.1837 H   0  0  0  0  0  0  0  0  0  0  0  0
   -5.8887    5.1254    2.7075 H   0  0  0  0  0  0  0  0  0  0  0  0
   -6.3844    7.1168    1.3721 H   0  0  0  0  0  0  0  0  0  0  0  0
   -4.9982    7.6603   -0.5964 H   0  0  0  0  0  0  0  0  0  0  0  0
   -4.3316    9.1284   -5.0666 H   0  0  0  0  0  0  0  0  0  0  0  0
    1.3111    8.7661   -3.1135 H   0  0  0  0  0  0  0  0  0  0  0  0
    0.5582   10.0389   -5.0598 H   0  0  0  0  0  0  0  0  0  0  0  0
   -1.8480   10.0769   -5.6652 H   0  0  0  0  0  0  0  0  0  0  0  0
  1  2  1  0  0  0  0
  2  3  1  0  0  0  0
  3  4  2  0  0  0  0
  4  5  1  0  0  0  0
  5  6  1  0  0  0  0
  6  7  1  0  0  0  0
  7  8  1  0  0  0  0
  7  9  1  0  0  0  0
  7 10  1  0  0  0  0
  6 11  2  0  0  0  0
 11 12  1  0  0  0  0
 12 13  2  0  0  0  0
  3 14  1  0  0  0  0
 14 15  1  0  0  0  0
 15 16  1  0  0  0  0
 16 17  2  0  0  0  0
 17 18  1  0  0  0  0
 18 19  1  0  0  0  0
 19 20  1  0  0  0  0
 20 21  1  0  0  0  0
 20 22  1  0  0  0  0
 20 23  1  0  0  0  0
 19 24  2  0  0  0  0
 24 25  1  0  0  0  0
 25 26  2  0  0  0  0
 16 27  1  0  0  0  0
 27 28  1  0  0  0  0
 28 29  1  0  0  0  0
 29 30  2  0  0  0  0
 30 31  1  0  0  0  0
 31 32  1  0  0  0  0
 32 33  2  0  0  0  0
 33 34  1  0  0  0  0
 34 35  1  0  0  0  0
 35 36  1  0  0  0  0
 33 37  1  0  0  0  0
 37 38  1  0  0  0  0
 38 39  1  0  0  0  0
 37 40  2  0  0  0  0
 29 41  1  0  0  0  0
 41 42  1  0  0  0  0
 42 43  1  0  0  0  0
 43 44  2  0  0  0  0
 44 45  1  0  0  0  0
 45 46  1  0  0  0  0
 46 47  2  0  0  0  0
 47 48  1  0  0  0  0
 48 49  1  0  0  0  0
 49 50  1  0  0  0  0
 47 51  1  0  0  0  0
 51 52  1  0  0  0  0
 52 53  1  0  0  0  0
 51 54  2  0  0  0  0
 43 55  1  0  0  0  0
 55 56  1  0  0  0  0
 56 57  1  0  0  0  0
 57 58  2  0  0  0  0
 58 59  1  0  0  0  0
 59 60  1  0  0  0  0
 60 61  1  0  0  0  0
 61 62  1  0  0  0  0
 61 63  1  0  0  0  0
 61 64  1  0  0  0  0
 60 65  2  0  0  0  0
 65 66  1  0  0  0  0
 66 67  2  0  0  0  0
 57 68  1  0  0  0  0
 68 69  1  0  0  0  0
 69 70  1  0  0  0  0
 70 71  2  0  0  0  0
 71 72  1  0  0  0  0
 72 73  1  0  0  0  0
 73 74  1  0  0  0  0
 74 75  1  0  0  0  0
 74 76  1  0  0  0  0
 74 77  1  0  0  0  0
 73 78  2  0  0  0  0
 78 79  1  0  0  0  0
 79 80  2  0  0  0  0
  5  1  2  0  0  0  0
 18 14  2  0  0  0  0
 31 27  2  0  0  0  0
 45 41  2  0  0  0  0
 59 55  2  0  0  0  0
 72 68  2  0  0  0  0
 13  4  1  0  0  0  0
 26 17  1  0  0  0  0
 40 30  1  0  0  0  0
 54 44  1  0  0  0  0
 67 58  1  0  0  0  0
 80 71  1  0  0  0  0
  1 81  1  0  0  0  0
 11 82  1  0  0  0  0
 12 83  1  0  0  0  0
 13 84  1  0  0  0  0
 24 85  1  0  0  0  0
 25 86  1  0  0  0  0
 26 87  1  0  0  0  0
 35 88  1  0  0  0  0
 35 89  1  0  0  0  0
 36 90  1  0  0  0  0
 36 91  1  0  0  0  0
 36 92  1  0  0  0  0
 38 93  1  0  0  0  0
 38 94  1  0  0  0  0
 39 95  1  0  0  0  0
 39 96  1  0  0  0  0
 49 97  1  0  0  0  0
 49 98  1  0  0  0  0
 50 99  1  0  0  0  0
 50100  1  0  0  0  0
 50101  1  0  0  0  0
 52102  1  0  0  0  0
 52103  1  0  0  0  0
 53104  1  0  0  0  0
 53105  1  0  0  0  0
 65106  1  0  0  0  0
 66107  1  0  0  0  0
 67108  1  0  0  0  0
 70109  1  0  0  0  0
 78110  1  0  0  0  0
 79111  1  0  0  0  0
 80112  1  0  0  0  0
M  END
