
  xtb     03052200033D
 energy: -382.951277411835 gnorm: 0.000208828883 xtb: 6.4.1 (unknown)
221241  0     0  0            999 V2000
   -2.6621  -15.3667    6.9863 C   0  0  0  0  0  0  0  0  0  0  0  0
   -3.6210  -14.0065    6.5664 S   0  0  0  0  0  0  0  0  0  0  0  0
   -2.3905  -13.3369    5.5507 C   0  0  0  0  0  0  0  0  0  0  0  0
   -1.2799  -14.1694    5.5474 C   0  0  0  0  0  0  0  0  0  0  0  0
   -1.4351  -15.3288    6.3736 C   0  0  0  0  0  0  0  0  0  0  0  0
   -0.4228  -16.2318    6.4867 N   0  0  0  0  0  0  0  0  0  0  0  0
    0.6491  -15.9806    5.7898 C   0  0  0  0  0  0  0  0  0  0  0  0
    1.6933  -16.8058    5.8530 O   0  0  0  0  0  0  0  0  0  0  0  0
    1.5501  -17.9433    6.6998 C   0  0  0  0  0  0  0  0  0  0  0  0
    2.8245  -18.7622    6.6091 C   0  0  0  0  0  0  0  0  0  0  0  0
    0.7891  -14.8286    4.9173 C   0  0  0  0  0  0  0  0  0  0  0  0
    2.0403  -14.6331    4.1204 C   0  0  0  0  0  0  0  0  0  0  0  0
    1.7957  -13.8211    2.9485 N   0  0  0  0  0  0  0  0  0  0  0  0
   -0.1615  -13.9484    4.8265 N   0  0  0  0  0  0  0  0  0  0  0  0
   -2.4935  -12.1194    4.8331 C   0  0  0  0  0  0  0  0  0  0  0  0
   -3.5574  -11.2706    4.7144 C   0  0  0  0  0  0  0  0  0  0  0  0
   -3.2873  -10.1384    3.9070 C   0  0  0  0  0  0  0  0  0  0  0  0
   -4.1420   -9.0588    3.6144 C   0  0  0  0  0  0  0  0  0  0  0  0
   -5.5300   -9.0257    4.0890 C   0  0  0  0  0  0  0  0  0  0  0  0
   -6.0346   -7.9056    4.7425 C   0  0  0  0  0  0  0  0  0  0  0  0
   -7.3410   -7.8640    5.1895 C   0  0  0  0  0  0  0  0  0  0  0  0
   -8.1927   -8.9456    4.9995 C   0  0  0  0  0  0  0  0  0  0  0  0
   -9.8815   -9.0203    5.4979 S   0  0  0  0  0  0  0  0  0  0  0  0
  -10.0636   -7.6313    6.6696 C   0  0  0  0  0  0  0  0  0  0  0  0
   -9.3356   -7.8805    7.9769 C   0  0  0  0  0  0  0  0  0  0  0  0
   -7.6779  -10.0572    4.3295 C   0  0  0  0  0  0  0  0  0  0  0  0
   -8.4811  -11.1183    4.1104 F   0  0  0  0  0  0  0  0  0  0  0  0
   -6.3780  -10.1122    3.8807 C   0  0  0  0  0  0  0  0  0  0  0  0
   -3.6046   -8.0295    2.8569 C   0  0  0  0  0  0  0  0  0  0  0  0
   -2.2698   -8.0407    2.3843 C   0  0  0  0  0  0  0  0  0  0  0  0
   -1.4074   -9.1057    2.6952 C   0  0  0  0  0  0  0  0  0  0  0  0
    0.0013   -9.0551    2.2894 C   0  0  0  0  0  0  0  0  0  0  0  0
    0.7443   -7.8977    2.5180 C   0  0  0  0  0  0  0  0  0  0  0  0
    2.0537   -7.7887    2.0973 C   0  0  0  0  0  0  0  0  0  0  0  0
    2.6740   -8.8380    1.4285 C   0  0  0  0  0  0  0  0  0  0  0  0
    4.3206   -8.7999    0.8030 S   0  0  0  0  0  0  0  0  0  0  0  0
    4.7247   -7.0189    0.7235 C   0  0  0  0  0  0  0  0  0  0  0  0
    3.9026   -6.2713   -0.3083 C   0  0  0  0  0  0  0  0  0  0  0  0
    1.9395  -10.0137    1.2621 C   0  0  0  0  0  0  0  0  0  0  0  0
    0.6305  -10.1351    1.6743 C   0  0  0  0  0  0  0  0  0  0  0  0
    2.5276  -11.0699    0.6642 F   0  0  0  0  0  0  0  0  0  0  0  0
   -1.9494  -10.1454    3.4323 C   0  0  0  0  0  0  0  0  0  0  0  0
   -1.0844  -11.5674    3.9559 S   0  0  0  0  0  0  0  0  0  0  0  0
   -1.9805   -6.9049    1.5943 C   0  0  0  0  0  0  0  0  0  0  0  0
   -3.0192   -6.0297    1.4805 C   0  0  0  0  0  0  0  0  0  0  0  0
   -4.4475   -6.5885    2.3300 S   0  0  0  0  0  0  0  0  0  0  0  0
   -2.9568   -4.7660    0.8261 C   0  0  0  0  0  0  0  0  0  0  0  0
   -3.9131   -3.8085    0.6653 C   0  0  0  0  0  0  0  0  0  0  0  0
   -3.4368   -2.6285    0.0349 C   0  0  0  0  0  0  0  0  0  0  0  0
   -4.1289   -1.4348   -0.2365 C   0  0  0  0  0  0  0  0  0  0  0  0
   -5.5236   -1.2265    0.1707 C   0  0  0  0  0  0  0  0  0  0  0  0
   -6.4623   -0.7070   -0.7193 C   0  0  0  0  0  0  0  0  0  0  0  0
   -7.7587   -0.4731   -0.3156 C   0  0  0  0  0  0  0  0  0  0  0  0
   -8.1713   -0.7302    0.9910 C   0  0  0  0  0  0  0  0  0  0  0  0
   -9.8414   -0.3179    1.4022 S   0  0  0  0  0  0  0  0  0  0  0  0
  -10.3726   -1.6423    2.5493 C   0  0  0  0  0  0  0  0  0  0  0  0
  -10.2344   -3.0200    1.9338 C   0  0  0  0  0  0  0  0  0  0  0  0
   -7.2181   -1.2279    1.8740 C   0  0  0  0  0  0  0  0  0  0  0  0
   -7.5268   -1.4641    3.1695 F   0  0  0  0  0  0  0  0  0  0  0  0
   -5.9225   -1.4895    1.4772 C   0  0  0  0  0  0  0  0  0  0  0  0
   -3.4137   -0.4202   -0.8566 C   0  0  0  0  0  0  0  0  0  0  0  0
   -2.0356   -0.5299   -1.1723 C   0  0  0  0  0  0  0  0  0  0  0  0
   -1.3364   -1.7135   -0.8880 C   0  0  0  0  0  0  0  0  0  0  0  0
    0.1102   -1.8267   -1.1145 C   0  0  0  0  0  0  0  0  0  0  0  0
    0.9803   -0.8667   -0.5997 C   0  0  0  0  0  0  0  0  0  0  0  0
    2.3412   -0.9760   -0.7908 C   0  0  0  0  0  0  0  0  0  0  0  0
    2.8869   -2.0436   -1.4982 C   0  0  0  0  0  0  0  0  0  0  0  0
    4.6519   -2.1213   -1.6647 S   0  0  0  0  0  0  0  0  0  0  0  0
    4.8730   -2.4607   -3.4512 C   0  0  0  0  0  0  0  0  0  0  0  0
    4.3074   -1.3514   -4.3148 C   0  0  0  0  0  0  0  0  0  0  0  0
    2.0109   -3.0117   -1.9783 C   0  0  0  0  0  0  0  0  0  0  0  0
    0.6451   -2.9090   -1.8051 C   0  0  0  0  0  0  0  0  0  0  0  0
    2.4792   -4.0945   -2.6351 F   0  0  0  0  0  0  0  0  0  0  0  0
   -2.0663   -2.7391   -0.3135 C   0  0  0  0  0  0  0  0  0  0  0  0
   -1.4049   -4.2736    0.1700 S   0  0  0  0  0  0  0  0  0  0  0  0
   -1.5257    0.6582   -1.7386 C   0  0  0  0  0  0  0  0  0  0  0  0
   -2.4521    1.6601   -1.8218 C   0  0  0  0  0  0  0  0  0  0  0  0
   -4.0288    1.1713   -1.2467 S   0  0  0  0  0  0  0  0  0  0  0  0
   -2.2223    2.9881   -2.2455 C   0  0  0  0  0  0  0  0  0  0  0  0
   -0.6314    3.5371   -2.6718 S   0  0  0  0  0  0  0  0  0  0  0  0
   -1.1519    5.1796   -2.8913 C   0  0  0  0  0  0  0  0  0  0  0  0
   -2.5202    5.2839   -2.6649 C   0  0  0  0  0  0  0  0  0  0  0  0
   -3.1228    4.0427   -2.2997 C   0  0  0  0  0  0  0  0  0  0  0  0
   -4.4418    3.9525   -2.0213 N   0  0  0  0  0  0  0  0  0  0  0  0
   -5.1278    5.0592   -2.1143 C   0  0  0  0  0  0  0  0  0  0  0  0
   -6.4373    5.0641   -1.8780 O   0  0  0  0  0  0  0  0  0  0  0  0
   -7.0455    3.8159   -1.5442 C   0  0  0  0  0  0  0  0  0  0  0  0
   -6.8113    3.4273   -0.0917 C   0  0  0  0  0  0  0  0  0  0  0  0
   -4.5239    6.3224   -2.4937 C   0  0  0  0  0  0  0  0  0  0  0  0
   -5.3673    7.5554   -2.5703 C   0  0  0  0  0  0  0  0  0  0  0  0
   -4.7526    8.5759   -3.3931 N   0  0  0  0  0  0  0  0  0  0  0  0
   -3.2530    6.4153   -2.7524 N   0  0  0  0  0  0  0  0  0  0  0  0
   -0.2064    6.1858   -3.1928 C   0  0  0  0  0  0  0  0  0  0  0  0
    1.1362    5.9854   -3.3632 C   0  0  0  0  0  0  0  0  0  0  0  0
    1.8636    7.1744   -3.5761 C   0  0  0  0  0  0  0  0  0  0  0  0
    3.2538    7.3013   -3.7480 C   0  0  0  0  0  0  0  0  0  0  0  0
    4.0850    6.0946   -3.8383 C   0  0  0  0  0  0  0  0  0  0  0  0
    3.7369    5.0746   -4.7247 C   0  0  0  0  0  0  0  0  0  0  0  0
    4.4471    3.8943   -4.7562 C   0  0  0  0  0  0  0  0  0  0  0  0
    5.5351    3.6872   -3.9124 C   0  0  0  0  0  0  0  0  0  0  0  0
    6.3602    2.1215   -3.9954 S   0  0  0  0  0  0  0  0  0  0  0  0
    6.5550    1.6694   -2.2300 C   0  0  0  0  0  0  0  0  0  0  0  0
    5.2290    1.6548   -1.4974 C   0  0  0  0  0  0  0  0  0  0  0  0
    5.9135    4.7382   -3.0841 C   0  0  0  0  0  0  0  0  0  0  0  0
    6.9952    4.6209   -2.2793 F   0  0  0  0  0  0  0  0  0  0  0  0
    5.2031    5.9211   -3.0304 C   0  0  0  0  0  0  0  0  0  0  0  0
    3.7552    8.5885   -3.8225 C   0  0  0  0  0  0  0  0  0  0  0  0
    2.9199    9.7370   -3.8142 C   0  0  0  0  0  0  0  0  0  0  0  0
    1.5237    9.6052   -3.6897 C   0  0  0  0  0  0  0  0  0  0  0  0
    0.6446   10.7804   -3.7076 C   0  0  0  0  0  0  0  0  0  0  0  0
   -0.3164   10.9778   -2.7173 C   0  0  0  0  0  0  0  0  0  0  0  0
   -1.1189   12.0973   -2.7308 C   0  0  0  0  0  0  0  0  0  0  0  0
   -1.0111   13.0581   -3.7359 C   0  0  0  0  0  0  0  0  0  0  0  0
   -2.1085   14.4376   -3.6546 S   0  0  0  0  0  0  0  0  0  0  0  0
   -1.1420   15.8139   -4.3970 C   0  0  0  0  0  0  0  0  0  0  0  0
   -1.6708   17.1292   -3.8601 C   0  0  0  0  0  0  0  0  0  0  0  0
   -0.0762   12.8272   -4.7406 C   0  0  0  0  0  0  0  0  0  0  0  0
    0.7504   11.7223   -4.7259 C   0  0  0  0  0  0  0  0  0  0  0  0
    0.0519   13.6823   -5.7814 F   0  0  0  0  0  0  0  0  0  0  0  0
    1.0281    8.3194   -3.5393 C   0  0  0  0  0  0  0  0  0  0  0  0
   -0.6503    7.8734   -3.3059 S   0  0  0  0  0  0  0  0  0  0  0  0
    3.6774   10.9298   -3.9023 C   0  0  0  0  0  0  0  0  0  0  0  0
    5.0241   10.7169   -3.9829 C   0  0  0  0  0  0  0  0  0  0  0  0
    5.4430    9.0182   -3.9553 S   0  0  0  0  0  0  0  0  0  0  0  0
    6.0687   11.6702   -4.0766 C   0  0  0  0  0  0  0  0  0  0  0  0
    5.8170   13.3771   -4.2575 S   0  0  0  0  0  0  0  0  0  0  0  0
    7.4954   13.7119   -4.3025 C   0  0  0  0  0  0  0  0  0  0  0  0
    8.2429   12.5661   -4.1812 C   0  0  0  0  0  0  0  0  0  0  0  0
    7.4271   11.3958   -4.0497 C   0  0  0  0  0  0  0  0  0  0  0  0
    7.9634   10.1647   -3.8959 N   0  0  0  0  0  0  0  0  0  0  0  0
    9.2657   10.1023   -3.8872 C   0  0  0  0  0  0  0  0  0  0  0  0
    9.8961    8.9397   -3.7462 O   0  0  0  0  0  0  0  0  0  0  0  0
    9.0943    7.7852   -3.4938 C   0  0  0  0  0  0  0  0  0  0  0  0
    8.6139    7.7405   -2.0507 C   0  0  0  0  0  0  0  0  0  0  0  0
   10.1034   11.2805   -4.0351 C   0  0  0  0  0  0  0  0  0  0  0  0
   11.5903   11.1121   -4.0387 C   0  0  0  0  0  0  0  0  0  0  0  0
   12.2831   12.3660   -3.8213 N   0  0  0  0  0  0  0  0  0  0  0  0
    9.5990   12.4670   -4.1758 N   0  0  0  0  0  0  0  0  0  0  0  0
   -3.0495  -16.1080    7.6544 H   0  0  0  0  0  0  0  0  0  0  0  0
    1.3643  -17.6018    7.7245 H   0  0  0  0  0  0  0  0  0  0  0  0
    0.6773  -18.5204    6.3748 H   0  0  0  0  0  0  0  0  0  0  0  0
    2.9898  -19.0847    5.5847 H   0  0  0  0  0  0  0  0  0  0  0  0
    2.7437  -19.6362    7.2486 H   0  0  0  0  0  0  0  0  0  0  0  0
    3.6760  -18.1663    6.9265 H   0  0  0  0  0  0  0  0  0  0  0  0
    2.7924  -14.2074    4.8133 H   0  0  0  0  0  0  0  0  0  0  0  0
    2.4182  -15.6124    3.8069 H   0  0  0  0  0  0  0  0  0  0  0  0
    2.6589  -13.4533    2.5668 H   0  0  0  0  0  0  0  0  0  0  0  0
    1.1864  -13.0473    3.1885 H   0  0  0  0  0  0  0  0  0  0  0  0
   -4.4956  -11.4492    5.2084 H   0  0  0  0  0  0  0  0  0  0  0  0
   -5.3922   -7.0570    4.9210 H   0  0  0  0  0  0  0  0  0  0  0  0
   -7.6903   -6.9730    5.6851 H   0  0  0  0  0  0  0  0  0  0  0  0
   -9.7393   -6.7144    6.1791 H   0  0  0  0  0  0  0  0  0  0  0  0
  -11.1402   -7.5754    6.8305 H   0  0  0  0  0  0  0  0  0  0  0  0
   -9.7120   -8.7852    8.4484 H   0  0  0  0  0  0  0  0  0  0  0  0
   -8.2666   -7.9991    7.8132 H   0  0  0  0  0  0  0  0  0  0  0  0
   -9.4932   -7.0431    8.6541 H   0  0  0  0  0  0  0  0  0  0  0  0
   -6.0399  -10.9898    3.3524 H   0  0  0  0  0  0  0  0  0  0  0  0
    0.2947   -7.0736    3.0511 H   0  0  0  0  0  0  0  0  0  0  0  0
    2.5914   -6.8763    2.2982 H   0  0  0  0  0  0  0  0  0  0  0  0
    5.7803   -7.0167    0.4513 H   0  0  0  0  0  0  0  0  0  0  0  0
    4.6259   -6.5932    1.7215 H   0  0  0  0  0  0  0  0  0  0  0  0
    4.0420   -6.7089   -1.2937 H   0  0  0  0  0  0  0  0  0  0  0  0
    2.8419   -6.3028   -0.0676 H   0  0  0  0  0  0  0  0  0  0  0  0
    4.2185   -5.2303   -0.3436 H   0  0  0  0  0  0  0  0  0  0  0  0
    0.1059  -11.0582    1.4855 H   0  0  0  0  0  0  0  0  0  0  0  0
   -1.0350   -6.7422    1.1088 H   0  0  0  0  0  0  0  0  0  0  0  0
   -4.9290   -3.9490    0.9884 H   0  0  0  0  0  0  0  0  0  0  0  0
   -6.1784   -0.5089   -1.7407 H   0  0  0  0  0  0  0  0  0  0  0  0
   -8.4847   -0.0815   -1.0111 H   0  0  0  0  0  0  0  0  0  0  0  0
  -11.4184   -1.3992    2.7381 H   0  0  0  0  0  0  0  0  0  0  0  0
   -9.8143   -1.5511    3.4784 H   0  0  0  0  0  0  0  0  0  0  0  0
  -10.6451   -3.7662    2.6109 H   0  0  0  0  0  0  0  0  0  0  0  0
  -10.7715   -3.0723    0.9891 H   0  0  0  0  0  0  0  0  0  0  0  0
   -9.1892   -3.2622    1.7509 H   0  0  0  0  0  0  0  0  0  0  0  0
   -5.2212   -1.8570    2.2104 H   0  0  0  0  0  0  0  0  0  0  0  0
    0.5847   -0.0386   -0.0319 H   0  0  0  0  0  0  0  0  0  0  0  0
    3.0095   -0.2316   -0.3871 H   0  0  0  0  0  0  0  0  0  0  0  0
    4.4237   -3.4248   -3.6792 H   0  0  0  0  0  0  0  0  0  0  0  0
    5.9539   -2.5369   -3.5660 H   0  0  0  0  0  0  0  0  0  0  0  0
    4.4618   -1.5938   -5.3642 H   0  0  0  0  0  0  0  0  0  0  0  0
    3.2383   -1.2332   -4.1426 H   0  0  0  0  0  0  0  0  0  0  0  0
    4.8030   -0.4060   -4.1050 H   0  0  0  0  0  0  0  0  0  0  0  0
    0.0107   -3.6790   -2.2153 H   0  0  0  0  0  0  0  0  0  0  0  0
   -0.5106    0.7809   -2.0715 H   0  0  0  0  0  0  0  0  0  0  0  0
   -8.1088    3.9717   -1.7386 H   0  0  0  0  0  0  0  0  0  0  0  0
   -6.6504    3.0384   -2.2052 H   0  0  0  0  0  0  0  0  0  0  0  0
   -7.3547    2.5129    0.1292 H   0  0  0  0  0  0  0  0  0  0  0  0
   -5.7529    3.2531    0.0794 H   0  0  0  0  0  0  0  0  0  0  0  0
   -7.1576    4.2168    0.5705 H   0  0  0  0  0  0  0  0  0  0  0  0
   -6.3438    7.2901   -2.9928 H   0  0  0  0  0  0  0  0  0  0  0  0
   -5.5506    7.8750   -1.5274 H   0  0  0  0  0  0  0  0  0  0  0  0
   -3.7433    8.5262   -3.3012 H   0  0  0  0  0  0  0  0  0  0  0  0
   -5.0636    9.5012   -3.1243 H   0  0  0  0  0  0  0  0  0  0  0  0
    1.5840    5.0094   -3.3027 H   0  0  0  0  0  0  0  0  0  0  0  0
    2.8995    5.2130   -5.3913 H   0  0  0  0  0  0  0  0  0  0  0  0
    4.1629    3.1008   -5.4298 H   0  0  0  0  0  0  0  0  0  0  0  0
    7.2691    2.3488   -1.7697 H   0  0  0  0  0  0  0  0  0  0  0  0
    6.9886    0.6703   -2.2702 H   0  0  0  0  0  0  0  0  0  0  0  0
    5.3809    1.2871   -0.4846 H   0  0  0  0  0  0  0  0  0  0  0  0
    4.8003    2.6544   -1.4440 H   0  0  0  0  0  0  0  0  0  0  0  0
    4.5218    1.0013   -2.0032 H   0  0  0  0  0  0  0  0  0  0  0  0
    5.5192    6.6917   -2.3455 H   0  0  0  0  0  0  0  0  0  0  0  0
   -0.4111   10.2635   -1.9147 H   0  0  0  0  0  0  0  0  0  0  0  0
   -1.8481   12.2565   -1.9517 H   0  0  0  0  0  0  0  0  0  0  0  0
   -1.2431   15.7611   -5.4799 H   0  0  0  0  0  0  0  0  0  0  0  0
   -0.1008   15.6647   -4.1151 H   0  0  0  0  0  0  0  0  0  0  0  0
   -1.1079   17.9540   -4.2919 H   0  0  0  0  0  0  0  0  0  0  0  0
   -1.5737   17.1672   -2.7774 H   0  0  0  0  0  0  0  0  0  0  0  0
   -2.7207   17.2516   -4.1165 H   0  0  0  0  0  0  0  0  0  0  0  0
    1.4502   11.5888   -5.5363 H   0  0  0  0  0  0  0  0  0  0  0  0
    3.2515   11.9170   -3.8837 H   0  0  0  0  0  0  0  0  0  0  0  0
    7.8405   14.7192   -4.4140 H   0  0  0  0  0  0  0  0  0  0  0  0
    9.7549    6.9432   -3.7103 H   0  0  0  0  0  0  0  0  0  0  0  0
    8.2403    7.7792   -4.1781 H   0  0  0  0  0  0  0  0  0  0  0  0
    9.4555    7.8619   -1.3727 H   0  0  0  0  0  0  0  0  0  0  0  0
    8.1439    6.7824   -1.8567 H   0  0  0  0  0  0  0  0  0  0  0  0
    7.8954    8.5363   -1.8726 H   0  0  0  0  0  0  0  0  0  0  0  0
   11.8490   10.6219   -4.9939 H   0  0  0  0  0  0  0  0  0  0  0  0
   11.8637   10.4068   -3.2437 H   0  0  0  0  0  0  0  0  0  0  0  0
   11.7046   13.1288   -4.1577 H   0  0  0  0  0  0  0  0  0  0  0  0
   13.1699   12.3847   -4.3095 H   0  0  0  0  0  0  0  0  0  0  0  0
  1  2  1  0  0  0  0
  2  3  1  0  0  0  0
  3  4  2  0  0  0  0
  4  5  1  0  0  0  0
  5  6  1  0  0  0  0
  6  7  2  0  0  0  0
  7  8  1  0  0  0  0
  8  9  1  0  0  0  0
  9 10  1  0  0  0  0
  7 11  1  0  0  0  0
 11 12  1  0  0  0  0
 12 13  1  0  0  0  0
 11 14  2  0  0  0  0
  3 15  1  0  0  0  0
 15 16  2  0  0  0  0
 16 17  1  0  0  0  0
 17 18  2  0  0  0  0
 18 19  1  0  0  0  0
 19 20  2  0  0  0  0
 20 21  1  0  0  0  0
 21 22  2  0  0  0  0
 22 23  1  0  0  0  0
 23 24  1  0  0  0  0
 24 25  1  0  0  0  0
 22 26  1  0  0  0  0
 26 27  1  0  0  0  0
 26 28  2  0  0  0  0
 18 29  1  0  0  0  0
 29 30  2  0  0  0  0
 30 31  1  0  0  0  0
 31 32  1  0  0  0  0
 32 33  2  0  0  0  0
 33 34  1  0  0  0  0
 34 35  2  0  0  0  0
 35 36  1  0  0  0  0
 36 37  1  0  0  0  0
 37 38  1  0  0  0  0
 35 39  1  0  0  0  0
 39 40  2  0  0  0  0
 39 41  1  0  0  0  0
 31 42  2  0  0  0  0
 42 43  1  0  0  0  0
 30 44  1  0  0  0  0
 44 45  2  0  0  0  0
 45 46  1  0  0  0  0
 45 47  1  0  0  0  0
 47 48  2  0  0  0  0
 48 49  1  0  0  0  0
 49 50  2  0  0  0  0
 50 51  1  0  0  0  0
 51 52  2  0  0  0  0
 52 53  1  0  0  0  0
 53 54  2  0  0  0  0
 54 55  1  0  0  0  0
 55 56  1  0  0  0  0
 56 57  1  0  0  0  0
 54 58  1  0  0  0  0
 58 59  1  0  0  0  0
 58 60  2  0  0  0  0
 50 61  1  0  0  0  0
 61 62  2  0  0  0  0
 62 63  1  0  0  0  0
 63 64  1  0  0  0  0
 64 65  2  0  0  0  0
 65 66  1  0  0  0  0
 66 67  2  0  0  0  0
 67 68  1  0  0  0  0
 68 69  1  0  0  0  0
 69 70  1  0  0  0  0
 67 71  1  0  0  0  0
 71 72  2  0  0  0  0
 71 73  1  0  0  0  0
 63 74  2  0  0  0  0
 74 75  1  0  0  0  0
 62 76  1  0  0  0  0
 76 77  2  0  0  0  0
 77 78  1  0  0  0  0
 77 79  1  0  0  0  0
 79 80  1  0  0  0  0
 80 81  1  0  0  0  0
 81 82  2  0  0  0  0
 82 83  1  0  0  0  0
 83 84  1  0  0  0  0
 84 85  2  0  0  0  0
 85 86  1  0  0  0  0
 86 87  1  0  0  0  0
 87 88  1  0  0  0  0
 85 89  1  0  0  0  0
 89 90  1  0  0  0  0
 90 91  1  0  0  0  0
 89 92  2  0  0  0  0
 81 93  1  0  0  0  0
 93 94  2  0  0  0  0
 94 95  1  0  0  0  0
 95 96  2  0  0  0  0
 96 97  1  0  0  0  0
 97 98  2  0  0  0  0
 98 99  1  0  0  0  0
 99100  2  0  0  0  0
100101  1  0  0  0  0
101102  1  0  0  0  0
102103  1  0  0  0  0
100104  1  0  0  0  0
104105  1  0  0  0  0
104106  2  0  0  0  0
 96107  1  0  0  0  0
107108  2  0  0  0  0
108109  1  0  0  0  0
109110  1  0  0  0  0
110111  2  0  0  0  0
111112  1  0  0  0  0
112113  2  0  0  0  0
113114  1  0  0  0  0
114115  1  0  0  0  0
115116  1  0  0  0  0
113117  1  0  0  0  0
117118  2  0  0  0  0
117119  1  0  0  0  0
109120  2  0  0  0  0
120121  1  0  0  0  0
108122  1  0  0  0  0
122123  2  0  0  0  0
123124  1  0  0  0  0
123125  1  0  0  0  0
125126  1  0  0  0  0
126127  1  0  0  0  0
127128  2  0  0  0  0
128129  1  0  0  0  0
129130  1  0  0  0  0
130131  2  0  0  0  0
131132  1  0  0  0  0
132133  1  0  0  0  0
133134  1  0  0  0  0
131135  1  0  0  0  0
135136  1  0  0  0  0
136137  1  0  0  0  0
135138  2  0  0  0  0
  5  1  2  0  0  0  0
 43 15  1  0  0  0  0
 75 47  1  0  0  0  0
 83 79  2  0  0  0  0
121 93  1  0  0  0  0
129125  2  0  0  0  0
 14  4  1  0  0  0  0
 42 17  1  0  0  0  0
 74 49  1  0  0  0  0
 92 82  1  0  0  0  0
120 95  1  0  0  0  0
138128  1  0  0  0  0
 28 19  1  0  0  0  0
 46 29  1  0  0  0  0
 60 51  1  0  0  0  0
 78 61  1  0  0  0  0
106 97  1  0  0  0  0
124107  1  0  0  0  0
 40 32  1  0  0  0  0
 72 64  1  0  0  0  0
118110  1  0  0  0  0
  1139  1  0  0  0  0
  9140  1  0  0  0  0
  9141  1  0  0  0  0
 10142  1  0  0  0  0
 10143  1  0  0  0  0
 10144  1  0  0  0  0
 12145  1  0  0  0  0
 12146  1  0  0  0  0
 13147  1  0  0  0  0
 13148  1  0  0  0  0
 16149  1  0  0  0  0
 20150  1  0  0  0  0
 21151  1  0  0  0  0
 24152  1  0  0  0  0
 24153  1  0  0  0  0
 25154  1  0  0  0  0
 25155  1  0  0  0  0
 25156  1  0  0  0  0
 28157  1  0  0  0  0
 33158  1  0  0  0  0
 34159  1  0  0  0  0
 37160  1  0  0  0  0
 37161  1  0  0  0  0
 38162  1  0  0  0  0
 38163  1  0  0  0  0
 38164  1  0  0  0  0
 40165  1  0  0  0  0
 44166  1  0  0  0  0
 48167  1  0  0  0  0
 52168  1  0  0  0  0
 53169  1  0  0  0  0
 56170  1  0  0  0  0
 56171  1  0  0  0  0
 57172  1  0  0  0  0
 57173  1  0  0  0  0
 57174  1  0  0  0  0
 60175  1  0  0  0  0
 65176  1  0  0  0  0
 66177  1  0  0  0  0
 69178  1  0  0  0  0
 69179  1  0  0  0  0
 70180  1  0  0  0  0
 70181  1  0  0  0  0
 70182  1  0  0  0  0
 72183  1  0  0  0  0
 76184  1  0  0  0  0
 87185  1  0  0  0  0
 87186  1  0  0  0  0
 88187  1  0  0  0  0
 88188  1  0  0  0  0
 88189  1  0  0  0  0
 90190  1  0  0  0  0
 90191  1  0  0  0  0
 91192  1  0  0  0  0
 91193  1  0  0  0  0
 94194  1  0  0  0  0
 98195  1  0  0  0  0
 99196  1  0  0  0  0
102197  1  0  0  0  0
102198  1  0  0  0  0
103199  1  0  0  0  0
103200  1  0  0  0  0
103201  1  0  0  0  0
106202  1  0  0  0  0
111203  1  0  0  0  0
112204  1  0  0  0  0
115205  1  0  0  0  0
115206  1  0  0  0  0
116207  1  0  0  0  0
116208  1  0  0  0  0
116209  1  0  0  0  0
118210  1  0  0  0  0
122211  1  0  0  0  0
127212  1  0  0  0  0
133213  1  0  0  0  0
133214  1  0  0  0  0
134215  1  0  0  0  0
134216  1  0  0  0  0
134217  1  0  0  0  0
136218  1  0  0  0  0
136219  1  0  0  0  0
137220  1  0  0  0  0
137221  1  0  0  0  0
M  END
