
  xtb     03042215383D
 energy: -430.342759796812 gnorm: 0.000203045016 xtb: 6.4.1 (unknown)
248271  0     0  0            999 V2000
   -8.8585   -1.7620   17.1437 C   0  0  0  0  0  0  0  0  0  0  0  0
   -8.5579   -2.7364   16.2623 C   0  0  0  0  0  0  0  0  0  0  0  0
   -8.1203   -2.2314   15.0010 C   0  0  0  0  0  0  0  0  0  0  0  0
   -7.7235   -2.9574   13.8678 C   0  0  0  0  0  0  0  0  0  0  0  0
   -7.6247   -4.4224   13.8812 C   0  0  0  0  0  0  0  0  0  0  0  0
   -6.8978   -5.0767   14.8711 C   0  0  0  0  0  0  0  0  0  0  0  0
   -6.7634   -6.4521   14.8721 C   0  0  0  0  0  0  0  0  0  0  0  0
   -7.3581   -7.2243   13.8802 C   0  0  0  0  0  0  0  0  0  0  0  0
   -7.2681   -8.9758   13.7552 S   0  0  0  0  0  0  0  0  0  0  0  0
   -6.1495   -9.4471   15.1273 C   0  0  0  0  0  0  0  0  0  0  0  0
   -5.9242  -10.9466   15.0738 C   0  0  0  0  0  0  0  0  0  0  0  0
   -8.0909   -6.5541   12.8976 C   0  0  0  0  0  0  0  0  0  0  0  0
   -8.6884   -7.2742   11.9271 F   0  0  0  0  0  0  0  0  0  0  0  0
   -8.2263   -5.1852   12.8821 C   0  0  0  0  0  0  0  0  0  0  0  0
   -7.3935   -2.2191   12.7404 C   0  0  0  0  0  0  0  0  0  0  0  0
   -7.3959   -0.8033   12.7223 C   0  0  0  0  0  0  0  0  0  0  0  0
   -7.7524   -0.0755   13.8680 C   0  0  0  0  0  0  0  0  0  0  0  0
   -7.6968    1.3920   13.8605 C   0  0  0  0  0  0  0  0  0  0  0  0
   -8.7889    2.1665   14.2437 C   0  0  0  0  0  0  0  0  0  0  0  0
   -8.7263    3.5437   14.1854 C   0  0  0  0  0  0  0  0  0  0  0  0
   -7.5792    4.1983   13.7453 C   0  0  0  0  0  0  0  0  0  0  0  0
   -7.6182    5.9662   13.6291 S   0  0  0  0  0  0  0  0  0  0  0  0
   -6.0341    6.4665   14.4021 C   0  0  0  0  0  0  0  0  0  0  0  0
   -5.9299    5.9811   15.8338 C   0  0  0  0  0  0  0  0  0  0  0  0
   -6.4954    3.4129   13.3663 C   0  0  0  0  0  0  0  0  0  0  0  0
   -6.5392    2.0359   13.4316 C   0  0  0  0  0  0  0  0  0  0  0  0
   -5.3566    3.9801   12.9111 F   0  0  0  0  0  0  0  0  0  0  0  0
   -8.1347   -0.8153   14.9766 C   0  0  0  0  0  0  0  0  0  0  0  0
   -8.6389   -0.1640   16.5147 S   0  0  0  0  0  0  0  0  0  0  0  0
   -7.0146   -0.2917   11.4577 C   0  0  0  0  0  0  0  0  0  0  0  0
   -6.6961   -1.2551   10.5493 C   0  0  0  0  0  0  0  0  0  0  0  0
   -6.8714   -2.8708   11.2053 S   0  0  0  0  0  0  0  0  0  0  0  0
   -6.2293   -1.0312    9.2208 C   0  0  0  0  0  0  0  0  0  0  0  0
   -5.9085   -1.9349    8.2533 C   0  0  0  0  0  0  0  0  0  0  0  0
   -5.4098   -1.3382    7.0652 C   0  0  0  0  0  0  0  0  0  0  0  0
   -4.9566   -1.9634    5.8920 C   0  0  0  0  0  0  0  0  0  0  0  0
   -4.9185   -3.4258    5.7670 C   0  0  0  0  0  0  0  0  0  0  0  0
   -4.3075   -4.2080    6.7462 C   0  0  0  0  0  0  0  0  0  0  0  0
   -4.2675   -5.5800    6.6245 C   0  0  0  0  0  0  0  0  0  0  0  0
   -4.8261   -6.2274    5.5241 C   0  0  0  0  0  0  0  0  0  0  0  0
   -4.6690   -7.9881    5.4562 S   0  0  0  0  0  0  0  0  0  0  0  0
   -6.2869   -8.5553    4.8125 C   0  0  0  0  0  0  0  0  0  0  0  0
   -7.4359   -8.1042    5.6913 C   0  0  0  0  0  0  0  0  0  0  0  0
   -5.4055   -5.4320    4.5403 C   0  0  0  0  0  0  0  0  0  0  0  0
   -5.9362   -5.9842    3.4277 F   0  0  0  0  0  0  0  0  0  0  0  0
   -5.4655   -4.0577    4.6557 C   0  0  0  0  0  0  0  0  0  0  0  0
   -4.5022   -1.1325    4.8777 C   0  0  0  0  0  0  0  0  0  0  0  0
   -4.4436    0.2805    4.9902 C   0  0  0  0  0  0  0  0  0  0  0  0
   -4.9155    0.9055    6.1532 C   0  0  0  0  0  0  0  0  0  0  0  0
   -4.8893    2.3587    6.3663 C   0  0  0  0  0  0  0  0  0  0  0  0
   -3.7115    3.0965    6.2704 C   0  0  0  0  0  0  0  0  0  0  0  0
   -3.6934    4.4312    6.6166 C   0  0  0  0  0  0  0  0  0  0  0  0
   -4.8455    5.0879    7.0478 C   0  0  0  0  0  0  0  0  0  0  0  0
   -4.6923    6.7875    7.5042 S   0  0  0  0  0  0  0  0  0  0  0  0
   -5.8444    6.9864    8.9162 C   0  0  0  0  0  0  0  0  0  0  0  0
   -5.5546    6.0218   10.0476 C   0  0  0  0  0  0  0  0  0  0  0  0
   -6.0295    4.3562    7.0604 C   0  0  0  0  0  0  0  0  0  0  0  0
   -6.0553    3.0125    6.7507 C   0  0  0  0  0  0  0  0  0  0  0  0
   -7.2049    4.9385    7.3828 F   0  0  0  0  0  0  0  0  0  0  0  0
   -5.3947    0.0751    7.1538 C   0  0  0  0  0  0  0  0  0  0  0  0
   -5.9644    0.6242    8.7051 S   0  0  0  0  0  0  0  0  0  0  0  0
   -3.8738    0.8835    3.8406 C   0  0  0  0  0  0  0  0  0  0  0  0
   -3.4947   -0.0159    2.8882 C   0  0  0  0  0  0  0  0  0  0  0  0
   -3.8525   -1.6669    3.3517 S   0  0  0  0  0  0  0  0  0  0  0  0
   -2.8244    0.2400    1.6519 C   0  0  0  0  0  0  0  0  0  0  0  0
   -2.1042    1.3476    1.3110 C   0  0  0  0  0  0  0  0  0  0  0  0
   -1.4808    1.2499    0.0415 C   0  0  0  0  0  0  0  0  0  0  0  0
   -0.5891    2.1586   -0.5574 C   0  0  0  0  0  0  0  0  0  0  0  0
   -0.3038    3.4573    0.0635 C   0  0  0  0  0  0  0  0  0  0  0  0
   -1.3423    4.3006    0.4580 C   0  0  0  0  0  0  0  0  0  0  0  0
   -1.0755    5.5343    1.0109 C   0  0  0  0  0  0  0  0  0  0  0  0
    0.2332    5.9697    1.2136 C   0  0  0  0  0  0  0  0  0  0  0  0
    0.4537    7.5563    1.9620 S   0  0  0  0  0  0  0  0  0  0  0  0
    1.9065    8.2624    1.0986 C   0  0  0  0  0  0  0  0  0  0  0  0
    1.7168    8.3021   -0.4046 C   0  0  0  0  0  0  0  0  0  0  0  0
    1.2566    5.1006    0.8512 C   0  0  0  0  0  0  0  0  0  0  0  0
    2.5517    5.4287    1.0719 F   0  0  0  0  0  0  0  0  0  0  0  0
    1.0062    3.8771    0.2649 C   0  0  0  0  0  0  0  0  0  0  0  0
   -0.0037    1.7692   -1.7515 C   0  0  0  0  0  0  0  0  0  0  0  0
   -0.3176    0.5435   -2.3955 C   0  0  0  0  0  0  0  0  0  0  0  0
   -1.2140   -0.3619   -1.8032 C   0  0  0  0  0  0  0  0  0  0  0  0
   -1.5181   -1.6535   -2.4307 C   0  0  0  0  0  0  0  0  0  0  0  0
   -2.8348   -2.0524   -2.6528 C   0  0  0  0  0  0  0  0  0  0  0  0
   -3.1098   -3.2612   -3.2546 C   0  0  0  0  0  0  0  0  0  0  0  0
   -2.0884   -4.1228   -3.6528 C   0  0  0  0  0  0  0  0  0  0  0  0
   -2.5553   -5.6164   -4.4699 S   0  0  0  0  0  0  0  0  0  0  0  0
   -1.2923   -6.8309   -3.9118 C   0  0  0  0  0  0  0  0  0  0  0  0
   -1.8879   -8.2231   -3.9803 C   0  0  0  0  0  0  0  0  0  0  0  0
   -0.7786   -3.7116   -3.4245 C   0  0  0  0  0  0  0  0  0  0  0  0
   -0.4895   -2.5054   -2.8202 C   0  0  0  0  0  0  0  0  0  0  0  0
    0.2670   -4.4845   -3.8010 F   0  0  0  0  0  0  0  0  0  0  0  0
   -1.7661    0.0138   -0.5902 C   0  0  0  0  0  0  0  0  0  0  0  0
   -2.8020   -0.9812    0.3965 S   0  0  0  0  0  0  0  0  0  0  0  0
    0.3608    0.4055   -3.6257 C   0  0  0  0  0  0  0  0  0  0  0  0
    1.2003    1.4487   -3.9082 C   0  0  0  0  0  0  0  0  0  0  0  0
    1.1651    2.6894   -2.6744 S   0  0  0  0  0  0  0  0  0  0  0  0
    2.0783    1.5498   -5.0091 C   0  0  0  0  0  0  0  0  0  0  0  0
    2.1008    0.3485   -6.2734 S   0  0  0  0  0  0  0  0  0  0  0  0
    3.4646    1.0779   -7.0531 C   0  0  0  0  0  0  0  0  0  0  0  0
    3.8645    2.2296   -6.3733 C   0  0  0  0  0  0  0  0  0  0  0  0
    3.0747    2.4973   -5.2198 C   0  0  0  0  0  0  0  0  0  0  0  0
    3.3404    3.5551   -4.4214 N   0  0  0  0  0  0  0  0  0  0  0  0
    4.3346    4.3187   -4.7897 C   0  0  0  0  0  0  0  0  0  0  0  0
    4.6704    5.3892   -4.0724 O   0  0  0  0  0  0  0  0  0  0  0  0
    3.9567    5.6090   -2.8563 C   0  0  0  0  0  0  0  0  0  0  0  0
    4.4374    4.6819   -1.7498 C   0  0  0  0  0  0  0  0  0  0  0  0
    5.1232    4.0630   -5.9760 C   0  0  0  0  0  0  0  0  0  0  0  0
    6.2574    4.9745   -6.3228 C   0  0  0  0  0  0  0  0  0  0  0  0
    6.6746    4.8170   -7.7006 N   0  0  0  0  0  0  0  0  0  0  0  0
    4.8894    3.0278   -6.7312 N   0  0  0  0  0  0  0  0  0  0  0  0
    4.0515    0.4886   -8.1778 C   0  0  0  0  0  0  0  0  0  0  0  0
    5.5440    1.0342   -8.8784 S   0  0  0  0  0  0  0  0  0  0  0  0
    5.5515   -0.2447  -10.0575 C   0  0  0  0  0  0  0  0  0  0  0  0
    4.4197   -1.0448   -9.9129 C   0  0  0  0  0  0  0  0  0  0  0  0
    3.5713   -0.6340   -8.8527 C   0  0  0  0  0  0  0  0  0  0  0  0
    2.4286   -1.2899   -8.5624 N   0  0  0  0  0  0  0  0  0  0  0  0
    2.1587   -2.3302   -9.3088 C   0  0  0  0  0  0  0  0  0  0  0  0
    1.0349   -3.0215   -9.1416 O   0  0  0  0  0  0  0  0  0  0  0  0
    0.1218   -2.5654   -8.1447 C   0  0  0  0  0  0  0  0  0  0  0  0
    0.5137   -3.0197   -6.7471 C   0  0  0  0  0  0  0  0  0  0  0  0
    3.0421   -2.7819  -10.3640 C   0  0  0  0  0  0  0  0  0  0  0  0
    2.7198   -4.0241  -11.1499 C   0  0  0  0  0  0  0  0  0  0  0  0
    3.7140   -4.4026  -12.1291 N   0  0  0  0  0  0  0  0  0  0  0  0
    4.1362   -2.1397  -10.6498 N   0  0  0  0  0  0  0  0  0  0  0  0
    6.5826   -0.4726  -10.9950 C   0  0  0  0  0  0  0  0  0  0  0  0
    7.7975    0.1461  -11.1103 C   0  0  0  0  0  0  0  0  0  0  0  0
    8.6069   -0.3942  -12.1382 C   0  0  0  0  0  0  0  0  0  0  0  0
    9.9016   -0.0020  -12.5207 C   0  0  0  0  0  0  0  0  0  0  0  0
   10.6480    1.0125  -11.7691 C   0  0  0  0  0  0  0  0  0  0  0  0
   10.7589    0.9280  -10.3812 C   0  0  0  0  0  0  0  0  0  0  0  0
   11.4962    1.8554   -9.6774 C   0  0  0  0  0  0  0  0  0  0  0  0
   12.1399    2.9086  -10.3228 C   0  0  0  0  0  0  0  0  0  0  0  0
   13.0315    4.0646   -9.3209 S   0  0  0  0  0  0  0  0  0  0  0  0
   14.5824    4.3286  -10.2578 C   0  0  0  0  0  0  0  0  0  0  0  0
   15.3276    3.0306  -10.4949 C   0  0  0  0  0  0  0  0  0  0  0  0
   11.9963    2.9984  -11.7037 C   0  0  0  0  0  0  0  0  0  0  0  0
   12.5560    4.0184  -12.3896 F   0  0  0  0  0  0  0  0  0  0  0  0
   11.2814    2.0633  -12.4242 C   0  0  0  0  0  0  0  0  0  0  0  0
   10.4517   -0.6555  -13.6145 C   0  0  0  0  0  0  0  0  0  0  0  0
    9.7804   -1.6782  -14.3275 C   0  0  0  0  0  0  0  0  0  0  0  0
    8.4913   -2.0747  -13.9407 C   0  0  0  0  0  0  0  0  0  0  0  0
    7.7316   -3.0922  -14.6778 C   0  0  0  0  0  0  0  0  0  0  0  0
    7.0893   -4.1372  -14.0158 C   0  0  0  0  0  0  0  0  0  0  0  0
    6.3452   -5.0631  -14.7145 C   0  0  0  0  0  0  0  0  0  0  0  0
    6.2051   -4.9840  -16.0990 C   0  0  0  0  0  0  0  0  0  0  0  0
    5.1840   -6.1988  -16.8795 S   0  0  0  0  0  0  0  0  0  0  0  0
    6.0610   -6.5820  -18.4417 C   0  0  0  0  0  0  0  0  0  0  0  0
    7.4768   -7.0631  -18.1950 C   0  0  0  0  0  0  0  0  0  0  0  0
    6.8327   -3.9232  -16.7450 C   0  0  0  0  0  0  0  0  0  0  0  0
    7.5940   -2.9986  -16.0591 C   0  0  0  0  0  0  0  0  0  0  0  0
    6.7095   -3.7515  -18.0812 F   0  0  0  0  0  0  0  0  0  0  0  0
    7.9432   -1.4327  -12.8401 C   0  0  0  0  0  0  0  0  0  0  0  0
    6.3630   -1.7520  -12.1710 S   0  0  0  0  0  0  0  0  0  0  0  0
   10.6007   -2.2230  -15.3600 C   0  0  0  0  0  0  0  0  0  0  0  0
   11.8156   -1.6430  -15.4292 C   0  0  0  0  0  0  0  0  0  0  0  0
   12.0561   -0.3960  -14.2538 S   0  0  0  0  0  0  0  0  0  0  0  0
   -9.2112   -1.8693   18.1508 H   0  0  0  0  0  0  0  0  0  0  0  0
   -8.6531   -3.7855   16.4757 H   0  0  0  0  0  0  0  0  0  0  0  0
   -6.4073   -4.4989   15.6401 H   0  0  0  0  0  0  0  0  0  0  0  0
   -6.1859   -6.9183   15.6534 H   0  0  0  0  0  0  0  0  0  0  0  0
   -6.6231   -9.1584   16.0659 H   0  0  0  0  0  0  0  0  0  0  0  0
   -5.2114   -8.9078   14.9953 H   0  0  0  0  0  0  0  0  0  0  0  0
   -5.4724  -11.2294   14.1260 H   0  0  0  0  0  0  0  0  0  0  0  0
   -5.2619  -11.2503   15.8817 H   0  0  0  0  0  0  0  0  0  0  0  0
   -6.8677  -11.4773   15.1770 H   0  0  0  0  0  0  0  0  0  0  0  0
   -8.8122   -4.7247   12.1027 H   0  0  0  0  0  0  0  0  0  0  0  0
   -9.6971    1.6857   14.5724 H   0  0  0  0  0  0  0  0  0  0  0  0
   -9.5769    4.1409   14.4743 H   0  0  0  0  0  0  0  0  0  0  0  0
   -6.0633    7.5549   14.3555 H   0  0  0  0  0  0  0  0  0  0  0  0
   -5.2114    6.1067   13.7881 H   0  0  0  0  0  0  0  0  0  0  0  0
   -5.9130    4.8932   15.8739 H   0  0  0  0  0  0  0  0  0  0  0  0
   -6.7759    6.3348   16.4194 H   0  0  0  0  0  0  0  0  0  0  0  0
   -5.0124    6.3566   16.2826 H   0  0  0  0  0  0  0  0  0  0  0  0
   -5.6636    1.4741   13.1448 H   0  0  0  0  0  0  0  0  0  0  0  0
   -6.9894    0.7566   11.2200 H   0  0  0  0  0  0  0  0  0  0  0  0
   -6.0295   -2.9952    8.3870 H   0  0  0  0  0  0  0  0  0  0  0  0
   -3.8470   -3.7327    7.5988 H   0  0  0  0  0  0  0  0  0  0  0  0
   -3.7964   -6.1826    7.3854 H   0  0  0  0  0  0  0  0  0  0  0  0
   -6.1892   -9.6409    4.8190 H   0  0  0  0  0  0  0  0  0  0  0  0
   -6.3989   -8.2154    3.7854 H   0  0  0  0  0  0  0  0  0  0  0  0
   -7.2823   -8.4272    6.7188 H   0  0  0  0  0  0  0  0  0  0  0  0
   -8.3665   -8.5332    5.3253 H   0  0  0  0  0  0  0  0  0  0  0  0
   -7.5305   -7.0198    5.6806 H   0  0  0  0  0  0  0  0  0  0  0  0
   -5.9453   -3.4935    3.8712 H   0  0  0  0  0  0  0  0  0  0  0  0
   -2.7972    2.6070    5.9706 H   0  0  0  0  0  0  0  0  0  0  0  0
   -2.7729    4.9928    6.5758 H   0  0  0  0  0  0  0  0  0  0  0  0
   -5.6711    8.0172    9.2260 H   0  0  0  0  0  0  0  0  0  0  0  0
   -6.8659    6.8937    8.5543 H   0  0  0  0  0  0  0  0  0  0  0  0
   -4.5253    6.1205   10.3858 H   0  0  0  0  0  0  0  0  0  0  0  0
   -6.2205    6.2343   10.8817 H   0  0  0  0  0  0  0  0  0  0  0  0
   -5.7167    4.9913    9.7375 H   0  0  0  0  0  0  0  0  0  0  0  0
   -6.9986    2.4903    6.7936 H   0  0  0  0  0  0  0  0  0  0  0  0
   -3.7646    1.9466    3.7269 H   0  0  0  0  0  0  0  0  0  0  0  0
   -1.9748    2.1875    1.9690 H   0  0  0  0  0  0  0  0  0  0  0  0
   -2.3653    3.9968    0.2957 H   0  0  0  0  0  0  0  0  0  0  0  0
   -1.8816    6.1919    1.2971 H   0  0  0  0  0  0  0  0  0  0  0  0
    1.9722    9.2686    1.5125 H   0  0  0  0  0  0  0  0  0  0  0  0
    2.7956    7.7041    1.3836 H   0  0  0  0  0  0  0  0  0  0  0  0
    1.6544    7.2970   -0.8178 H   0  0  0  0  0  0  0  0  0  0  0  0
    2.5613    8.8104   -0.8655 H   0  0  0  0  0  0  0  0  0  0  0  0
    0.8049    8.8380   -0.6594 H   0  0  0  0  0  0  0  0  0  0  0  0
    1.8400    3.2462    0.0011 H   0  0  0  0  0  0  0  0  0  0  0  0
   -3.6459   -1.4029   -2.3623 H   0  0  0  0  0  0  0  0  0  0  0  0
   -4.1299   -3.5641   -3.4312 H   0  0  0  0  0  0  0  0  0  0  0  0
   -0.4198   -6.7424   -4.5574 H   0  0  0  0  0  0  0  0  0  0  0  0
   -1.0243   -6.5675   -2.8900 H   0  0  0  0  0  0  0  0  0  0  0  0
   -1.1547   -8.9525   -3.6427 H   0  0  0  0  0  0  0  0  0  0  0  0
   -2.7689   -8.2927   -3.3463 H   0  0  0  0  0  0  0  0  0  0  0  0
   -2.1770   -8.4653   -5.0005 H   0  0  0  0  0  0  0  0  0  0  0  0
    0.5435   -2.2443   -2.6508 H   0  0  0  0  0  0  0  0  0  0  0  0
    0.2456   -0.4321   -4.2896 H   0  0  0  0  0  0  0  0  0  0  0  0
    4.1594    6.6530   -2.6076 H   0  0  0  0  0  0  0  0  0  0  0  0
    2.8866    5.4636   -3.0339 H   0  0  0  0  0  0  0  0  0  0  0  0
    4.1620    3.6566   -1.9815 H   0  0  0  0  0  0  0  0  0  0  0  0
    3.9818    4.9690   -0.8090 H   0  0  0  0  0  0  0  0  0  0  0  0
    5.5183    4.7482   -1.6506 H   0  0  0  0  0  0  0  0  0  0  0  0
    7.0601    4.7722   -5.5900 H   0  0  0  0  0  0  0  0  0  0  0  0
    5.9389    6.0111   -6.1585 H   0  0  0  0  0  0  0  0  0  0  0  0
    6.5349    3.8539   -7.9876 H   0  0  0  0  0  0  0  0  0  0  0  0
    7.6509    5.0587   -7.8174 H   0  0  0  0  0  0  0  0  0  0  0  0
   -0.8382   -2.9975   -8.4365 H   0  0  0  0  0  0  0  0  0  0  0  0
    0.0697   -1.4726   -8.1809 H   0  0  0  0  0  0  0  0  0  0  0  0
    0.5951   -4.1028   -6.7075 H   0  0  0  0  0  0  0  0  0  0  0  0
   -0.2484   -2.6974   -6.0429 H   0  0  0  0  0  0  0  0  0  0  0  0
    1.4658   -2.5801   -6.4628 H   0  0  0  0  0  0  0  0  0  0  0  0
    1.7583   -3.8801  -11.6545 H   0  0  0  0  0  0  0  0  0  0  0  0
    2.5860   -4.8516  -10.4436 H   0  0  0  0  0  0  0  0  0  0  0  0
    4.6184   -4.4868  -11.6756 H   0  0  0  0  0  0  0  0  0  0  0  0
    3.8141   -3.6673  -12.8217 H   0  0  0  0  0  0  0  0  0  0  0  0
    8.0884    0.9681  -10.4813 H   0  0  0  0  0  0  0  0  0  0  0  0
   10.2922    0.1071   -9.8587 H   0  0  0  0  0  0  0  0  0  0  0  0
   11.5942    1.7770   -8.6057 H   0  0  0  0  0  0  0  0  0  0  0  0
   15.1525    4.9989   -9.6145 H   0  0  0  0  0  0  0  0  0  0  0  0
   14.3504    4.8419  -11.1883 H   0  0  0  0  0  0  0  0  0  0  0  0
   16.2779    3.2381  -10.9829 H   0  0  0  0  0  0  0  0  0  0  0  0
   14.7519    2.3632  -11.1340 H   0  0  0  0  0  0  0  0  0  0  0  0
   15.5218    2.5236   -9.5519 H   0  0  0  0  0  0  0  0  0  0  0  0
   11.2008    2.1847  -13.4929 H   0  0  0  0  0  0  0  0  0  0  0  0
    7.1961   -4.2376  -12.9474 H   0  0  0  0  0  0  0  0  0  0  0  0
    5.8476   -5.8668  -14.1954 H   0  0  0  0  0  0  0  0  0  0  0  0
    6.0337   -5.7089  -19.0896 H   0  0  0  0  0  0  0  0  0  0  0  0
    5.4500   -7.3698  -18.8822 H   0  0  0  0  0  0  0  0  0  0  0  0
    7.9350   -7.3541  -19.1382 H   0  0  0  0  0  0  0  0  0  0  0  0
    8.0815   -6.2760  -17.7482 H   0  0  0  0  0  0  0  0  0  0  0  0
    7.4774   -7.9206  -17.5254 H   0  0  0  0  0  0  0  0  0  0  0  0
    8.0401   -2.1842  -16.6091 H   0  0  0  0  0  0  0  0  0  0  0  0
   10.2884   -3.0283  -15.9995 H   0  0  0  0  0  0  0  0  0  0  0  0
   12.6154   -1.8652  -16.1085 H   0  0  0  0  0  0  0  0  0  0  0  0
  1  2  2  0  0  0  0
  2  3  1  0  0  0  0
  3  4  2  0  0  0  0
  4  5  1  0  0  0  0
  5  6  2  0  0  0  0
  6  7  1  0  0  0  0
  7  8  2  0  0  0  0
  8  9  1  0  0  0  0
  9 10  1  0  0  0  0
 10 11  1  0  0  0  0
  8 12  1  0  0  0  0
 12 13  1  0  0  0  0
 12 14  2  0  0  0  0
  4 15  1  0  0  0  0
 15 16  2  0  0  0  0
 16 17  1  0  0  0  0
 17 18  1  0  0  0  0
 18 19  2  0  0  0  0
 19 20  1  0  0  0  0
 20 21  2  0  0  0  0
 21 22  1  0  0  0  0
 22 23  1  0  0  0  0
 23 24  1  0  0  0  0
 21 25  1  0  0  0  0
 25 26  2  0  0  0  0
 25 27  1  0  0  0  0
 17 28  2  0  0  0  0
 28 29  1  0  0  0  0
 16 30  1  0  0  0  0
 30 31  2  0  0  0  0
 31 32  1  0  0  0  0
 31 33  1  0  0  0  0
 33 34  2  0  0  0  0
 34 35  1  0  0  0  0
 35 36  2  0  0  0  0
 36 37  1  0  0  0  0
 37 38  2  0  0  0  0
 38 39  1  0  0  0  0
 39 40  2  0  0  0  0
 40 41  1  0  0  0  0
 41 42  1  0  0  0  0
 42 43  1  0  0  0  0
 40 44  1  0  0  0  0
 44 45  1  0  0  0  0
 44 46  2  0  0  0  0
 36 47  1  0  0  0  0
 47 48  2  0  0  0  0
 48 49  1  0  0  0  0
 49 50  1  0  0  0  0
 50 51  2  0  0  0  0
 51 52  1  0  0  0  0
 52 53  2  0  0  0  0
 53 54  1  0  0  0  0
 54 55  1  0  0  0  0
 55 56  1  0  0  0  0
 53 57  1  0  0  0  0
 57 58  2  0  0  0  0
 57 59  1  0  0  0  0
 49 60  2  0  0  0  0
 60 61  1  0  0  0  0
 48 62  1  0  0  0  0
 62 63  2  0  0  0  0
 63 64  1  0  0  0  0
 63 65  1  0  0  0  0
 65 66  2  0  0  0  0
 66 67  1  0  0  0  0
 67 68  2  0  0  0  0
 68 69  1  0  0  0  0
 69 70  2  0  0  0  0
 70 71  1  0  0  0  0
 71 72  2  0  0  0  0
 72 73  1  0  0  0  0
 73 74  1  0  0  0  0
 74 75  1  0  0  0  0
 72 76  1  0  0  0  0
 76 77  1  0  0  0  0
 76 78  2  0  0  0  0
 68 79  1  0  0  0  0
 79 80  2  0  0  0  0
 80 81  1  0  0  0  0
 81 82  1  0  0  0  0
 82 83  2  0  0  0  0
 83 84  1  0  0  0  0
 84 85  2  0  0  0  0
 85 86  1  0  0  0  0
 86 87  1  0  0  0  0
 87 88  1  0  0  0  0
 85 89  1  0  0  0  0
 89 90  2  0  0  0  0
 89 91  1  0  0  0  0
 81 92  2  0  0  0  0
 92 93  1  0  0  0  0
 80 94  1  0  0  0  0
 94 95  2  0  0  0  0
 95 96  1  0  0  0  0
 95 97  1  0  0  0  0
 97 98  1  0  0  0  0
 98 99  1  0  0  0  0
 99100  2  0  0  0  0
100101  1  0  0  0  0
101102  1  0  0  0  0
102103  2  0  0  0  0
103104  1  0  0  0  0
104105  1  0  0  0  0
105106  1  0  0  0  0
103107  1  0  0  0  0
107108  1  0  0  0  0
108109  1  0  0  0  0
107110  2  0  0  0  0
 99111  1  0  0  0  0
111112  1  0  0  0  0
112113  1  0  0  0  0
113114  2  0  0  0  0
114115  1  0  0  0  0
115116  1  0  0  0  0
116117  2  0  0  0  0
117118  1  0  0  0  0
118119  1  0  0  0  0
119120  1  0  0  0  0
117121  1  0  0  0  0
121122  1  0  0  0  0
122123  1  0  0  0  0
121124  2  0  0  0  0
113125  1  0  0  0  0
125126  2  0  0  0  0
126127  1  0  0  0  0
127128  2  0  0  0  0
128129  1  0  0  0  0
129130  2  0  0  0  0
130131  1  0  0  0  0
131132  2  0  0  0  0
132133  1  0  0  0  0
133134  1  0  0  0  0
134135  1  0  0  0  0
132136  1  0  0  0  0
136137  1  0  0  0  0
136138  2  0  0  0  0
128139  1  0  0  0  0
139140  2  0  0  0  0
140141  1  0  0  0  0
141142  1  0  0  0  0
142143  2  0  0  0  0
143144  1  0  0  0  0
144145  2  0  0  0  0
145146  1  0  0  0  0
146147  1  0  0  0  0
147148  1  0  0  0  0
145149  1  0  0  0  0
149150  2  0  0  0  0
149151  1  0  0  0  0
141152  2  0  0  0  0
152153  1  0  0  0  0
140154  1  0  0  0  0
154155  2  0  0  0  0
155156  1  0  0  0  0
 29  1  1  0  0  0  0
 61 33  1  0  0  0  0
 93 65  1  0  0  0  0
101 97  2  0  0  0  0
115111  2  0  0  0  0
153125  1  0  0  0  0
 28  3  1  0  0  0  0
 60 35  1  0  0  0  0
 92 67  1  0  0  0  0
110100  1  0  0  0  0
124114  1  0  0  0  0
152127  1  0  0  0  0
 14  5  1  0  0  0  0
 32 15  1  0  0  0  0
 46 37  1  0  0  0  0
 64 47  1  0  0  0  0
 78 69  1  0  0  0  0
 96 79  1  0  0  0  0
138129  1  0  0  0  0
156139  1  0  0  0  0
 26 18  1  0  0  0  0
 58 50  1  0  0  0  0
 90 82  1  0  0  0  0
150142  1  0  0  0  0
  1157  1  0  0  0  0
  2158  1  0  0  0  0
  6159  1  0  0  0  0
  7160  1  0  0  0  0
 10161  1  0  0  0  0
 10162  1  0  0  0  0
 11163  1  0  0  0  0
 11164  1  0  0  0  0
 11165  1  0  0  0  0
 14166  1  0  0  0  0
 19167  1  0  0  0  0
 20168  1  0  0  0  0
 23169  1  0  0  0  0
 23170  1  0  0  0  0
 24171  1  0  0  0  0
 24172  1  0  0  0  0
 24173  1  0  0  0  0
 26174  1  0  0  0  0
 30175  1  0  0  0  0
 34176  1  0  0  0  0
 38177  1  0  0  0  0
 39178  1  0  0  0  0
 42179  1  0  0  0  0
 42180  1  0  0  0  0
 43181  1  0  0  0  0
 43182  1  0  0  0  0
 43183  1  0  0  0  0
 46184  1  0  0  0  0
 51185  1  0  0  0  0
 52186  1  0  0  0  0
 55187  1  0  0  0  0
 55188  1  0  0  0  0
 56189  1  0  0  0  0
 56190  1  0  0  0  0
 56191  1  0  0  0  0
 58192  1  0  0  0  0
 62193  1  0  0  0  0
 66194  1  0  0  0  0
 70195  1  0  0  0  0
 71196  1  0  0  0  0
 74197  1  0  0  0  0
 74198  1  0  0  0  0
 75199  1  0  0  0  0
 75200  1  0  0  0  0
 75201  1  0  0  0  0
 78202  1  0  0  0  0
 83203  1  0  0  0  0
 84204  1  0  0  0  0
 87205  1  0  0  0  0
 87206  1  0  0  0  0
 88207  1  0  0  0  0
 88208  1  0  0  0  0
 88209  1  0  0  0  0
 90210  1  0  0  0  0
 94211  1  0  0  0  0
105212  1  0  0  0  0
105213  1  0  0  0  0
106214  1  0  0  0  0
106215  1  0  0  0  0
106216  1  0  0  0  0
108217  1  0  0  0  0
108218  1  0  0  0  0
109219  1  0  0  0  0
109220  1  0  0  0  0
119221  1  0  0  0  0
119222  1  0  0  0  0
120223  1  0  0  0  0
120224  1  0  0  0  0
120225  1  0  0  0  0
122226  1  0  0  0  0
122227  1  0  0  0  0
123228  1  0  0  0  0
123229  1  0  0  0  0
126230  1  0  0  0  0
130231  1  0  0  0  0
131232  1  0  0  0  0
134233  1  0  0  0  0
134234  1  0  0  0  0
135235  1  0  0  0  0
135236  1  0  0  0  0
135237  1  0  0  0  0
138238  1  0  0  0  0
143239  1  0  0  0  0
144240  1  0  0  0  0
147241  1  0  0  0  0
147242  1  0  0  0  0
148243  1  0  0  0  0
148244  1  0  0  0  0
148245  1  0  0  0  0
150246  1  0  0  0  0
154247  1  0  0  0  0
155248  1  0  0  0  0
M  END
