
  xtb     03022209493D
 energy: -451.191791649685 gnorm: 0.000244670414 xtb: 6.4.1 (unknown)
229255  0     0  0            999 V2000
   -4.7012  -17.7746    9.4340 C   0  0  0  0  0  0  0  0  0  0  0  0
   -4.3230  -16.4983    9.6502 C   0  0  0  0  0  0  0  0  0  0  0  0
   -4.4635  -15.6775    8.4936 C   0  0  0  0  0  0  0  0  0  0  0  0
   -4.2112  -14.3026    8.3657 C   0  0  0  0  0  0  0  0  0  0  0  0
   -3.5988  -13.5416    9.4419 C   0  0  0  0  0  0  0  0  0  0  0  0
   -4.2907  -12.0593   10.0286 S   0  0  0  0  0  0  0  0  0  0  0  0
   -3.0130  -11.8244   11.1716 C   0  0  0  0  0  0  0  0  0  0  0  0
   -3.0182  -10.6688   12.1103 C   0  0  0  0  0  0  0  0  0  0  0  0
   -3.8278  -10.9889   13.3690 C   0  0  0  0  0  0  0  0  0  0  0  0
   -2.1137  -12.8458   11.0947 C   0  0  0  0  0  0  0  0  0  0  0  0
   -0.7074  -12.9586   12.0718 Cl  0  0  0  0  0  0  0  0  0  0  0  0
   -2.4393  -13.8188   10.1123 C   0  0  0  0  0  0  0  0  0  0  0  0
   -1.4203  -15.1552    9.7627 Cl  0  0  0  0  0  0  0  0  0  0  0  0
   -4.5524  -13.7097    7.1570 C   0  0  0  0  0  0  0  0  0  0  0  0
   -5.0728  -14.4365    6.0587 C   0  0  0  0  0  0  0  0  0  0  0  0
   -5.2705  -15.8229    6.1679 C   0  0  0  0  0  0  0  0  0  0  0  0
   -5.7741  -16.6108    5.0552 C   0  0  0  0  0  0  0  0  0  0  0  0
   -7.2590  -16.1989    4.2484 S   0  0  0  0  0  0  0  0  0  0  0  0
   -7.1449  -17.5521    3.1762 C   0  0  0  0  0  0  0  0  0  0  0  0
   -8.2128  -17.8420    2.1803 C   0  0  0  0  0  0  0  0  0  0  0  0
   -9.3346  -18.6719    2.8093 C   0  0  0  0  0  0  0  0  0  0  0  0
   -6.0198  -18.2731    3.4430 C   0  0  0  0  0  0  0  0  0  0  0  0
   -5.2386  -17.7421    4.5043 C   0  0  0  0  0  0  0  0  0  0  0  0
   -3.7354  -18.4219    4.9671 Cl  0  0  0  0  0  0  0  0  0  0  0  0
   -5.5638  -19.6860    2.5834 Cl  0  0  0  0  0  0  0  0  0  0  0  0
   -4.9761  -16.4075    7.3949 C   0  0  0  0  0  0  0  0  0  0  0  0
   -5.2480  -18.0727    7.8216 S   0  0  0  0  0  0  0  0  0  0  0  0
   -5.2849  -13.6056    4.9296 C   0  0  0  0  0  0  0  0  0  0  0  0
   -4.9598  -12.3005    5.1475 C   0  0  0  0  0  0  0  0  0  0  0  0
   -4.3536  -12.0253    6.7689 S   0  0  0  0  0  0  0  0  0  0  0  0
   -5.0337  -11.2105    4.2320 C   0  0  0  0  0  0  0  0  0  0  0  0
   -4.7362   -9.9046    4.4833 C   0  0  0  0  0  0  0  0  0  0  0  0
   -4.8516   -9.0688    3.3468 C   0  0  0  0  0  0  0  0  0  0  0  0
   -4.6128   -7.6866    3.2596 C   0  0  0  0  0  0  0  0  0  0  0  0
   -4.1267   -6.9285    4.3998 C   0  0  0  0  0  0  0  0  0  0  0  0
   -4.9215   -5.4731    4.9212 S   0  0  0  0  0  0  0  0  0  0  0  0
   -3.7927   -5.2249    6.2081 C   0  0  0  0  0  0  0  0  0  0  0  0
   -3.9407   -4.0858    7.1552 C   0  0  0  0  0  0  0  0  0  0  0  0
   -4.9136   -4.4350    8.2839 C   0  0  0  0  0  0  0  0  0  0  0  0
   -2.8631   -6.2217    6.2224 C   0  0  0  0  0  0  0  0  0  0  0  0
   -1.5796   -6.3177    7.3573 Cl  0  0  0  0  0  0  0  0  0  0  0  0
   -3.0442   -7.1863    5.1954 C   0  0  0  0  0  0  0  0  0  0  0  0
   -1.9475   -8.4842    4.9483 Cl  0  0  0  0  0  0  0  0  0  0  0  0
   -4.8358   -7.0864    2.0287 C   0  0  0  0  0  0  0  0  0  0  0  0
   -5.2651   -7.8011    0.8835 C   0  0  0  0  0  0  0  0  0  0  0  0
   -5.5259   -9.1809    0.9779 C   0  0  0  0  0  0  0  0  0  0  0  0
   -6.0326   -9.9294   -0.1588 C   0  0  0  0  0  0  0  0  0  0  0  0
   -5.2926  -11.4136   -0.6803 S   0  0  0  0  0  0  0  0  0  0  0  0
   -6.4358  -11.6249   -1.9615 C   0  0  0  0  0  0  0  0  0  0  0  0
   -6.3350  -12.7700   -2.9077 C   0  0  0  0  0  0  0  0  0  0  0  0
   -5.4263  -12.4250   -4.0902 C   0  0  0  0  0  0  0  0  0  0  0  0
   -7.3292  -10.5954   -1.9749 C   0  0  0  0  0  0  0  0  0  0  0  0
   -7.1076   -9.6349   -0.9526 C   0  0  0  0  0  0  0  0  0  0  0  0
   -8.1520   -8.2940   -0.7065 Cl  0  0  0  0  0  0  0  0  0  0  0  0
   -8.6164  -10.4606   -3.1025 Cl  0  0  0  0  0  0  0  0  0  0  0  0
   -5.2880   -9.7852    2.2055 C   0  0  0  0  0  0  0  0  0  0  0  0
   -5.5181  -11.4735    2.5683 S   0  0  0  0  0  0  0  0  0  0  0  0
   -5.3069   -6.9768   -0.2677 C   0  0  0  0  0  0  0  0  0  0  0  0
   -4.9500   -5.6815   -0.0233 C   0  0  0  0  0  0  0  0  0  0  0  0
   -4.5443   -5.4132    1.6597 S   0  0  0  0  0  0  0  0  0  0  0  0
   -4.8308   -4.6072   -0.9533 C   0  0  0  0  0  0  0  0  0  0  0  0
   -5.1130   -4.5986   -2.2989 C   0  0  0  0  0  0  0  0  0  0  0  0
   -4.8202   -3.3790   -2.9355 C   0  0  0  0  0  0  0  0  0  0  0  0
   -5.0860   -3.1497   -4.3589 C   0  0  0  0  0  0  0  0  0  0  0  0
   -5.7517   -2.0034   -4.7876 C   0  0  0  0  0  0  0  0  0  0  0  0
   -6.0116   -1.8075   -6.1305 C   0  0  0  0  0  0  0  0  0  0  0  0
   -5.6182   -2.7545   -7.0621 C   0  0  0  0  0  0  0  0  0  0  0  0
   -4.9658   -3.9018   -6.6430 C   0  0  0  0  0  0  0  0  0  0  0  0
   -4.7023   -4.1010   -5.3000 C   0  0  0  0  0  0  0  0  0  0  0  0
   -4.2936   -2.4437   -2.0582 C   0  0  0  0  0  0  0  0  0  0  0  0
   -4.1975   -3.0746   -0.4426 S   0  0  0  0  0  0  0  0  0  0  0  0
   -3.7248   -1.1610   -2.3246 C   0  0  0  0  0  0  0  0  0  0  0  0
   -3.2276   -0.6806   -3.5013 C   0  0  0  0  0  0  0  0  0  0  0  0
   -2.5962    0.5803   -3.3789 C   0  0  0  0  0  0  0  0  0  0  0  0
   -1.9679    1.3360   -4.3870 C   0  0  0  0  0  0  0  0  0  0  0  0
   -1.9551    0.9057   -5.7745 C   0  0  0  0  0  0  0  0  0  0  0  0
   -1.4277   -0.6846   -6.2439 S   0  0  0  0  0  0  0  0  0  0  0  0
   -1.6511   -0.3512   -7.9266 C   0  0  0  0  0  0  0  0  0  0  0  0
   -1.3941   -1.3889   -8.9627 C   0  0  0  0  0  0  0  0  0  0  0  0
   -2.6389   -2.2479   -9.1948 C   0  0  0  0  0  0  0  0  0  0  0  0
   -2.1256    0.9144   -8.0981 C   0  0  0  0  0  0  0  0  0  0  0  0
   -2.4854    1.5992   -9.6290 Cl  0  0  0  0  0  0  0  0  0  0  0  0
   -2.2914    1.6325   -6.8838 C   0  0  0  0  0  0  0  0  0  0  0  0
   -2.9310    3.2214   -6.8392 Cl  0  0  0  0  0  0  0  0  0  0  0  0
   -1.3287    2.5050   -3.9889 C   0  0  0  0  0  0  0  0  0  0  0  0
   -1.3544    2.9653   -2.6509 C   0  0  0  0  0  0  0  0  0  0  0  0
   -2.0792    2.2717   -1.6652 C   0  0  0  0  0  0  0  0  0  0  0  0
   -2.1741    2.8177   -0.3237 C   0  0  0  0  0  0  0  0  0  0  0  0
   -1.7732    1.8914    1.0916 S   0  0  0  0  0  0  0  0  0  0  0  0
   -2.0489    3.2368    2.1441 C   0  0  0  0  0  0  0  0  0  0  0  0
   -1.7950    3.1485    3.6084 C   0  0  0  0  0  0  0  0  0  0  0  0
   -0.3874    3.6483    3.9450 C   0  0  0  0  0  0  0  0  0  0  0  0
   -2.4367    4.3307    1.4281 C   0  0  0  0  0  0  0  0  0  0  0  0
   -2.5136    4.0968    0.0304 C   0  0  0  0  0  0  0  0  0  0  0  0
   -3.0511    5.2971   -1.0737 Cl  0  0  0  0  0  0  0  0  0  0  0  0
   -2.7938    5.8549    2.1297 Cl  0  0  0  0  0  0  0  0  0  0  0  0
   -2.6441    1.0653   -2.0470 C   0  0  0  0  0  0  0  0  0  0  0  0
   -3.4763   -0.0413   -0.9971 S   0  0  0  0  0  0  0  0  0  0  0  0
   -0.5182    4.0859   -2.4594 C   0  0  0  0  0  0  0  0  0  0  0  0
    0.1246    4.4907   -3.5934 C   0  0  0  0  0  0  0  0  0  0  0  0
   -0.3077    3.5142   -4.9780 S   0  0  0  0  0  0  0  0  0  0  0  0
    1.0670    5.5615   -3.6491 C   0  0  0  0  0  0  0  0  0  0  0  0
    1.6178    6.1633   -2.5547 C   0  0  0  0  0  0  0  0  0  0  0  0
    2.5001    7.2188   -2.8703 C   0  0  0  0  0  0  0  0  0  0  0  0
    3.1869    8.0558   -1.9716 C   0  0  0  0  0  0  0  0  0  0  0  0
    2.9275    7.9786   -0.5461 C   0  0  0  0  0  0  0  0  0  0  0  0
    4.2243    7.9049    0.6123 S   0  0  0  0  0  0  0  0  0  0  0  0
    3.1330    7.7687    1.9476 C   0  0  0  0  0  0  0  0  0  0  0  0
    3.6280    7.7146    3.3506 C   0  0  0  0  0  0  0  0  0  0  0  0
    3.7403    9.1240    3.9373 C   0  0  0  0  0  0  0  0  0  0  0  0
    1.8427    7.7980    1.5092 C   0  0  0  0  0  0  0  0  0  0  0  0
    0.4776    7.6737    2.5417 Cl  0  0  0  0  0  0  0  0  0  0  0  0
    1.7198    7.9207    0.0996 C   0  0  0  0  0  0  0  0  0  0  0  0
    0.1870    8.0781   -0.6622 Cl  0  0  0  0  0  0  0  0  0  0  0  0
    4.1153    8.9261   -2.5251 C   0  0  0  0  0  0  0  0  0  0  0  0
    4.3242    9.0439   -3.9219 C   0  0  0  0  0  0  0  0  0  0  0  0
    3.5438    8.2925   -4.8211 C   0  0  0  0  0  0  0  0  0  0  0  0
    3.6597    8.4842   -6.2548 C   0  0  0  0  0  0  0  0  0  0  0  0
    3.8413    7.1391   -7.3417 S   0  0  0  0  0  0  0  0  0  0  0  0
    3.8891    8.1678   -8.7317 C   0  0  0  0  0  0  0  0  0  0  0  0
    4.0952    7.6090  -10.0959 C   0  0  0  0  0  0  0  0  0  0  0  0
    5.5802    7.3547  -10.3652 C   0  0  0  0  0  0  0  0  0  0  0  0
    3.7725    9.4742   -8.3599 C   0  0  0  0  0  0  0  0  0  0  0  0
    3.6370    9.6587   -6.9581 C   0  0  0  0  0  0  0  0  0  0  0  0
    3.3804   11.2047   -6.2576 Cl  0  0  0  0  0  0  0  0  0  0  0  0
    3.7767   10.7887   -9.4631 Cl  0  0  0  0  0  0  0  0  0  0  0  0
    2.6671    7.3673   -4.2681 C   0  0  0  0  0  0  0  0  0  0  0  0
    1.6482    6.2566   -5.1449 S   0  0  0  0  0  0  0  0  0  0  0  0
    5.3821    9.9387   -4.2206 C   0  0  0  0  0  0  0  0  0  0  0  0
    5.9356   10.5143   -3.1169 C   0  0  0  0  0  0  0  0  0  0  0  0
    5.1677    9.9841   -1.6326 S   0  0  0  0  0  0  0  0  0  0  0  0
    7.0344   11.4187   -3.0445 C   0  0  0  0  0  0  0  0  0  0  0  0
    7.5866   11.9387   -1.9124 C   0  0  0  0  0  0  0  0  0  0  0  0
    8.7007   12.7765   -2.1593 C   0  0  0  0  0  0  0  0  0  0  0  0
    9.5178   13.4247   -1.2190 C   0  0  0  0  0  0  0  0  0  0  0  0
    9.2865   13.2578    0.2067 C   0  0  0  0  0  0  0  0  0  0  0  0
    9.1913   11.6687    0.9091 S   0  0  0  0  0  0  0  0  0  0  0  0
    8.9182   12.2991    2.4974 C   0  0  0  0  0  0  0  0  0  0  0  0
    8.6717   11.3865    3.6474 C   0  0  0  0  0  0  0  0  0  0  0  0
    7.2684   10.7802    3.5713 C   0  0  0  0  0  0  0  0  0  0  0  0
    8.9032   13.6612    2.4681 C   0  0  0  0  0  0  0  0  0  0  0  0
    8.6491   14.6477    3.8490 Cl  0  0  0  0  0  0  0  0  0  0  0  0
    9.1192   14.2089    1.1736 C   0  0  0  0  0  0  0  0  0  0  0  0
    9.0769   15.8947    0.8717 Cl  0  0  0  0  0  0  0  0  0  0  0  0
   10.5670   14.1875   -1.7172 C   0  0  0  0  0  0  0  0  0  0  0  0
   10.8277   14.3242   -3.1023 C   0  0  0  0  0  0  0  0  0  0  0  0
   10.0070   13.6802   -4.0418 C   0  0  0  0  0  0  0  0  0  0  0  0
   10.2596   13.7738   -5.4714 C   0  0  0  0  0  0  0  0  0  0  0  0
   11.8054   13.3440   -6.1434 S   0  0  0  0  0  0  0  0  0  0  0  0
   11.2783   13.6554   -7.7622 C   0  0  0  0  0  0  0  0  0  0  0  0
   12.1755   13.4169   -8.9261 C   0  0  0  0  0  0  0  0  0  0  0  0
   12.1360   11.9480   -9.3543 C   0  0  0  0  0  0  0  0  0  0  0  0
    9.9780   14.0626   -7.7650 C   0  0  0  0  0  0  0  0  0  0  0  0
    9.3975   14.1336   -6.4694 C   0  0  0  0  0  0  0  0  0  0  0  0
    7.7999   14.6965   -6.2098 Cl  0  0  0  0  0  0  0  0  0  0  0  0
    9.1049   14.4657   -9.1859 Cl  0  0  0  0  0  0  0  0  0  0  0  0
    8.9588   12.9151   -3.5450 C   0  0  0  0  0  0  0  0  0  0  0  0
    7.8506   11.9639   -4.4934 S   0  0  0  0  0  0  0  0  0  0  0  0
   11.9667   15.1472   -3.3411 C   0  0  0  0  0  0  0  0  0  0  0  0
   12.5474   15.5800   -2.2034 C   0  0  0  0  0  0  0  0  0  0  0  0
   11.7528   15.0365   -0.7681 S   0  0  0  0  0  0  0  0  0  0  0  0
   -4.6978  -18.5893   10.1316 H   0  0  0  0  0  0  0  0  0  0  0  0
   -3.9728  -16.1325   10.5975 H   0  0  0  0  0  0  0  0  0  0  0  0
   -1.9878  -10.4389   12.3878 H   0  0  0  0  0  0  0  0  0  0  0  0
   -3.4495   -9.7997   11.6111 H   0  0  0  0  0  0  0  0  0  0  0  0
   -4.8582  -11.2163   13.1066 H   0  0  0  0  0  0  0  0  0  0  0  0
   -3.4017  -11.8468   13.8827 H   0  0  0  0  0  0  0  0  0  0  0  0
   -3.8186  -10.1383   14.0452 H   0  0  0  0  0  0  0  0  0  0  0  0
   -7.7737  -18.3939    1.3471 H   0  0  0  0  0  0  0  0  0  0  0  0
   -8.6220  -16.9031    1.8035 H   0  0  0  0  0  0  0  0  0  0  0  0
  -10.1047  -18.8790    2.0713 H   0  0  0  0  0  0  0  0  0  0  0  0
   -8.9424  -19.6159    3.1787 H   0  0  0  0  0  0  0  0  0  0  0  0
   -9.7824  -18.1322    3.6404 H   0  0  0  0  0  0  0  0  0  0  0  0
   -5.6609  -13.9577    3.9861 H   0  0  0  0  0  0  0  0  0  0  0  0
   -4.4506   -9.5559    5.4588 H   0  0  0  0  0  0  0  0  0  0  0  0
   -2.9613   -3.8512    7.5760 H   0  0  0  0  0  0  0  0  0  0  0  0
   -4.3091   -3.2124    6.6148 H   0  0  0  0  0  0  0  0  0  0  0  0
   -5.8941   -4.6701    7.8768 H   0  0  0  0  0  0  0  0  0  0  0  0
   -5.0106   -3.5949    8.9663 H   0  0  0  0  0  0  0  0  0  0  0  0
   -4.5522   -5.2963    8.8399 H   0  0  0  0  0  0  0  0  0  0  0  0
   -5.9348  -13.6383   -2.3822 H   0  0  0  0  0  0  0  0  0  0  0  0
   -7.3345  -13.0110   -3.2749 H   0  0  0  0  0  0  0  0  0  0  0  0
   -4.4261  -12.1831   -3.7389 H   0  0  0  0  0  0  0  0  0  0  0  0
   -5.3630  -13.2695   -4.7709 H   0  0  0  0  0  0  0  0  0  0  0  0
   -5.8218  -11.5696   -4.6319 H   0  0  0  0  0  0  0  0  0  0  0  0
   -5.5615   -7.3401   -1.2454 H   0  0  0  0  0  0  0  0  0  0  0  0
   -5.5388   -5.4394   -2.8159 H   0  0  0  0  0  0  0  0  0  0  0  0
   -6.0690   -1.2709   -4.0603 H   0  0  0  0  0  0  0  0  0  0  0  0
   -6.5270   -0.9147   -6.4520 H   0  0  0  0  0  0  0  0  0  0  0  0
   -5.8239   -2.6011   -8.1108 H   0  0  0  0  0  0  0  0  0  0  0  0
   -4.6631   -4.6464   -7.3650 H   0  0  0  0  0  0  0  0  0  0  0  0
   -4.1821   -4.9903   -4.9754 H   0  0  0  0  0  0  0  0  0  0  0  0
   -3.2767   -1.2315   -4.4212 H   0  0  0  0  0  0  0  0  0  0  0  0
   -1.1135   -0.8923   -9.8935 H   0  0  0  0  0  0  0  0  0  0  0  0
   -0.5677   -2.0246   -8.6408 H   0  0  0  0  0  0  0  0  0  0  0  0
   -3.4637   -1.6272   -9.5353 H   0  0  0  0  0  0  0  0  0  0  0  0
   -2.4361   -3.0035   -9.9490 H   0  0  0  0  0  0  0  0  0  0  0  0
   -2.9333   -2.7406   -8.2712 H   0  0  0  0  0  0  0  0  0  0  0  0
   -2.5311    3.7626    4.1315 H   0  0  0  0  0  0  0  0  0  0  0  0
   -1.9057    2.1132    3.9335 H   0  0  0  0  0  0  0  0  0  0  0  0
   -0.2161    3.5877    5.0164 H   0  0  0  0  0  0  0  0  0  0  0  0
    0.3598    3.0439    3.4362 H   0  0  0  0  0  0  0  0  0  0  0  0
   -0.2704    4.6825    3.6314 H   0  0  0  0  0  0  0  0  0  0  0  0
   -0.3808    4.5588   -1.5063 H   0  0  0  0  0  0  0  0  0  0  0  0
    1.4326    5.8348   -1.5504 H   0  0  0  0  0  0  0  0  0  0  0  0
    4.6059    7.2315    3.3710 H   0  0  0  0  0  0  0  0  0  0  0  0
    2.9307    7.1247    3.9485 H   0  0  0  0  0  0  0  0  0  0  0  0
    2.7657    9.6047    3.9494 H   0  0  0  0  0  0  0  0  0  0  0  0
    4.1175    9.0766    4.9551 H   0  0  0  0  0  0  0  0  0  0  0  0
    4.4190    9.7271    3.3396 H   0  0  0  0  0  0  0  0  0  0  0  0
    3.5439    6.6718  -10.1898 H   0  0  0  0  0  0  0  0  0  0  0  0
    3.7064    8.3199  -10.8270 H   0  0  0  0  0  0  0  0  0  0  0  0
    5.9771    6.6440   -9.6443 H   0  0  0  0  0  0  0  0  0  0  0  0
    6.1418    8.2820  -10.2852 H   0  0  0  0  0  0  0  0  0  0  0  0
    5.7145    6.9510  -11.3651 H   0  0  0  0  0  0  0  0  0  0  0  0
    5.7445   10.1296   -5.2143 H   0  0  0  0  0  0  0  0  0  0  0  0
    7.2016   11.7211   -0.9329 H   0  0  0  0  0  0  0  0  0  0  0  0
    9.4118   10.5837    3.6405 H   0  0  0  0  0  0  0  0  0  0  0  0
    8.7803   11.9542    4.5728 H   0  0  0  0  0  0  0  0  0  0  0  0
    6.5181   11.5669    3.5922 H   0  0  0  0  0  0  0  0  0  0  0  0
    7.1021   10.1174    4.4162 H   0  0  0  0  0  0  0  0  0  0  0  0
    7.1533   10.2112    2.6512 H   0  0  0  0  0  0  0  0  0  0  0  0
   13.1978   13.6896   -8.6587 H   0  0  0  0  0  0  0  0  0  0  0  0
   11.8486   14.0482   -9.7542 H   0  0  0  0  0  0  0  0  0  0  0  0
   12.4636   11.3083   -8.5382 H   0  0  0  0  0  0  0  0  0  0  0  0
   12.7908   11.7901  -10.2069 H   0  0  0  0  0  0  0  0  0  0  0  0
   11.1246   11.6647   -9.6337 H   0  0  0  0  0  0  0  0  0  0  0  0
   12.3232   15.3961   -4.3235 H   0  0  0  0  0  0  0  0  0  0  0  0
   13.4120   16.2066   -2.1032 H   0  0  0  0  0  0  0  0  0  0  0  0
  1  2  2  0  0  0  0
  2  3  1  0  0  0  0
  3  4  2  0  0  0  0
  4  5  1  0  0  0  0
  5  6  1  0  0  0  0
  6  7  1  0  0  0  0
  7  8  1  0  0  0  0
  8  9  1  0  0  0  0
  7 10  2  0  0  0  0
 10 11  1  0  0  0  0
 10 12  1  0  0  0  0
 12 13  1  0  0  0  0
  4 14  1  0  0  0  0
 14 15  2  0  0  0  0
 15 16  1  0  0  0  0
 16 17  1  0  0  0  0
 17 18  1  0  0  0  0
 18 19  1  0  0  0  0
 19 20  1  0  0  0  0
 20 21  1  0  0  0  0
 19 22  2  0  0  0  0
 22 23  1  0  0  0  0
 23 24  1  0  0  0  0
 22 25  1  0  0  0  0
 16 26  2  0  0  0  0
 26 27  1  0  0  0  0
 15 28  1  0  0  0  0
 28 29  2  0  0  0  0
 29 30  1  0  0  0  0
 29 31  1  0  0  0  0
 31 32  2  0  0  0  0
 32 33  1  0  0  0  0
 33 34  2  0  0  0  0
 34 35  1  0  0  0  0
 35 36  1  0  0  0  0
 36 37  1  0  0  0  0
 37 38  1  0  0  0  0
 38 39  1  0  0  0  0
 37 40  2  0  0  0  0
 40 41  1  0  0  0  0
 40 42  1  0  0  0  0
 42 43  1  0  0  0  0
 34 44  1  0  0  0  0
 44 45  2  0  0  0  0
 45 46  1  0  0  0  0
 46 47  1  0  0  0  0
 47 48  1  0  0  0  0
 48 49  1  0  0  0  0
 49 50  1  0  0  0  0
 50 51  1  0  0  0  0
 49 52  2  0  0  0  0
 52 53  1  0  0  0  0
 53 54  1  0  0  0  0
 52 55  1  0  0  0  0
 46 56  2  0  0  0  0
 56 57  1  0  0  0  0
 45 58  1  0  0  0  0
 58 59  2  0  0  0  0
 59 60  1  0  0  0  0
 59 61  1  0  0  0  0
 61 62  2  0  0  0  0
 62 63  1  0  0  0  0
 63 64  1  0  0  0  0
 64 65  2  0  0  0  0
 65 66  1  0  0  0  0
 66 67  2  0  0  0  0
 67 68  1  0  0  0  0
 68 69  2  0  0  0  0
 63 70  2  0  0  0  0
 70 71  1  0  0  0  0
 70 72  1  0  0  0  0
 72 73  2  0  0  0  0
 73 74  1  0  0  0  0
 74 75  2  0  0  0  0
 75 76  1  0  0  0  0
 76 77  1  0  0  0  0
 77 78  1  0  0  0  0
 78 79  1  0  0  0  0
 79 80  1  0  0  0  0
 78 81  2  0  0  0  0
 81 82  1  0  0  0  0
 81 83  1  0  0  0  0
 83 84  1  0  0  0  0
 75 85  1  0  0  0  0
 85 86  2  0  0  0  0
 86 87  1  0  0  0  0
 87 88  1  0  0  0  0
 88 89  1  0  0  0  0
 89 90  1  0  0  0  0
 90 91  1  0  0  0  0
 91 92  1  0  0  0  0
 90 93  2  0  0  0  0
 93 94  1  0  0  0  0
 94 95  1  0  0  0  0
 93 96  1  0  0  0  0
 87 97  2  0  0  0  0
 97 98  1  0  0  0  0
 86 99  1  0  0  0  0
 99100  2  0  0  0  0
100101  1  0  0  0  0
100102  1  0  0  0  0
102103  2  0  0  0  0
103104  1  0  0  0  0
104105  2  0  0  0  0
105106  1  0  0  0  0
106107  1  0  0  0  0
107108  1  0  0  0  0
108109  1  0  0  0  0
109110  1  0  0  0  0
108111  2  0  0  0  0
111112  1  0  0  0  0
111113  1  0  0  0  0
113114  1  0  0  0  0
105115  1  0  0  0  0
115116  2  0  0  0  0
116117  1  0  0  0  0
117118  1  0  0  0  0
118119  1  0  0  0  0
119120  1  0  0  0  0
120121  1  0  0  0  0
121122  1  0  0  0  0
120123  2  0  0  0  0
123124  1  0  0  0  0
124125  1  0  0  0  0
123126  1  0  0  0  0
117127  2  0  0  0  0
127128  1  0  0  0  0
116129  1  0  0  0  0
129130  2  0  0  0  0
130131  1  0  0  0  0
130132  1  0  0  0  0
132133  2  0  0  0  0
133134  1  0  0  0  0
134135  2  0  0  0  0
135136  1  0  0  0  0
136137  1  0  0  0  0
137138  1  0  0  0  0
138139  1  0  0  0  0
139140  1  0  0  0  0
138141  2  0  0  0  0
141142  1  0  0  0  0
141143  1  0  0  0  0
143144  1  0  0  0  0
135145  1  0  0  0  0
145146  2  0  0  0  0
146147  1  0  0  0  0
147148  1  0  0  0  0
148149  1  0  0  0  0
149150  1  0  0  0  0
150151  1  0  0  0  0
151152  1  0  0  0  0
150153  2  0  0  0  0
153154  1  0  0  0  0
154155  1  0  0  0  0
153156  1  0  0  0  0
147157  2  0  0  0  0
157158  1  0  0  0  0
146159  1  0  0  0  0
159160  2  0  0  0  0
160161  1  0  0  0  0
 27  1  1  0  0  0  0
 57 31  1  0  0  0  0
 71 61  1  0  0  0  0
 98 72  1  0  0  0  0
128102  1  0  0  0  0
158132  1  0  0  0  0
 26  3  1  0  0  0  0
 56 33  1  0  0  0  0
 69 64  1  0  0  0  0
 97 74  1  0  0  0  0
127104  1  0  0  0  0
157134  1  0  0  0  0
 12  5  2  0  0  0  0
 30 14  1  0  0  0  0
 42 35  2  0  0  0  0
 60 44  1  0  0  0  0
 83 76  2  0  0  0  0
101 85  1  0  0  0  0
113106  2  0  0  0  0
131115  1  0  0  0  0
143136  2  0  0  0  0
161145  1  0  0  0  0
 23 17  2  0  0  0  0
 53 47  2  0  0  0  0
 94 88  2  0  0  0  0
124118  2  0  0  0  0
154148  2  0  0  0  0
  1162  1  0  0  0  0
  2163  1  0  0  0  0
  8164  1  0  0  0  0
  8165  1  0  0  0  0
  9166  1  0  0  0  0
  9167  1  0  0  0  0
  9168  1  0  0  0  0
 20169  1  0  0  0  0
 20170  1  0  0  0  0
 21171  1  0  0  0  0
 21172  1  0  0  0  0
 21173  1  0  0  0  0
 28174  1  0  0  0  0
 32175  1  0  0  0  0
 38176  1  0  0  0  0
 38177  1  0  0  0  0
 39178  1  0  0  0  0
 39179  1  0  0  0  0
 39180  1  0  0  0  0
 50181  1  0  0  0  0
 50182  1  0  0  0  0
 51183  1  0  0  0  0
 51184  1  0  0  0  0
 51185  1  0  0  0  0
 58186  1  0  0  0  0
 62187  1  0  0  0  0
 65188  1  0  0  0  0
 66189  1  0  0  0  0
 67190  1  0  0  0  0
 68191  1  0  0  0  0
 69192  1  0  0  0  0
 73193  1  0  0  0  0
 79194  1  0  0  0  0
 79195  1  0  0  0  0
 80196  1  0  0  0  0
 80197  1  0  0  0  0
 80198  1  0  0  0  0
 91199  1  0  0  0  0
 91200  1  0  0  0  0
 92201  1  0  0  0  0
 92202  1  0  0  0  0
 92203  1  0  0  0  0
 99204  1  0  0  0  0
103205  1  0  0  0  0
109206  1  0  0  0  0
109207  1  0  0  0  0
110208  1  0  0  0  0
110209  1  0  0  0  0
110210  1  0  0  0  0
121211  1  0  0  0  0
121212  1  0  0  0  0
122213  1  0  0  0  0
122214  1  0  0  0  0
122215  1  0  0  0  0
129216  1  0  0  0  0
133217  1  0  0  0  0
139218  1  0  0  0  0
139219  1  0  0  0  0
140220  1  0  0  0  0
140221  1  0  0  0  0
140222  1  0  0  0  0
151223  1  0  0  0  0
151224  1  0  0  0  0
152225  1  0  0  0  0
152226  1  0  0  0  0
152227  1  0  0  0  0
159228  1  0  0  0  0
160229  1  0  0  0  0
M  END
