
  xtb     03012223583D
 energy: -455.116648563964 gnorm: 0.000212013030 xtb: 6.4.1 (unknown)
226253  0     0  0            999 V2000
   11.2628  -10.9006    9.6230 C   0  0  0  0  0  0  0  0  0  0  0  0
   11.3216   -9.9052    8.7147 C   0  0  0  0  0  0  0  0  0  0  0  0
   10.4892   -8.7994    9.0536 C   0  0  0  0  0  0  0  0  0  0  0  0
   10.3412   -7.5822    8.3721 C   0  0  0  0  0  0  0  0  0  0  0  0
   11.0092   -7.3179    7.1071 C   0  0  0  0  0  0  0  0  0  0  0  0
   10.7979   -8.3711    5.7393 S   0  0  0  0  0  0  0  0  0  0  0  0
   11.7665   -7.3669    4.7158 C   0  0  0  0  0  0  0  0  0  0  0  0
   11.9605   -7.6841    3.2740 C   0  0  0  0  0  0  0  0  0  0  0  0
   10.8752   -7.0214    2.4216 C   0  0  0  0  0  0  0  0  0  0  0  0
   12.2184   -6.2833    5.4076 C   0  0  0  0  0  0  0  0  0  0  0  0
   13.2088   -5.0599    4.7247 Cl  0  0  0  0  0  0  0  0  0  0  0  0
   11.7950   -6.2532    6.7635 C   0  0  0  0  0  0  0  0  0  0  0  0
   12.3018   -5.0349    7.8570 Cl  0  0  0  0  0  0  0  0  0  0  0  0
    9.5001   -6.6369    8.9453 C   0  0  0  0  0  0  0  0  0  0  0  0
    8.8021   -6.8572   10.1580 C   0  0  0  0  0  0  0  0  0  0  0  0
    8.9387   -8.0820   10.8322 C   0  0  0  0  0  0  0  0  0  0  0  0
    8.2019   -8.3504   12.0561 C   0  0  0  0  0  0  0  0  0  0  0  0
    8.2820   -7.2703   13.4169 S   0  0  0  0  0  0  0  0  0  0  0  0
    7.1977   -8.2407   14.3534 C   0  0  0  0  0  0  0  0  0  0  0  0
    6.7551   -7.8100   15.7078 C   0  0  0  0  0  0  0  0  0  0  0  0
    5.6327   -6.7739   15.6057 C   0  0  0  0  0  0  0  0  0  0  0  0
    6.8016   -9.3306   13.6379 C   0  0  0  0  0  0  0  0  0  0  0  0
    7.3728   -9.4004   12.3385 C   0  0  0  0  0  0  0  0  0  0  0  0
    6.9665  -10.6375   11.2249 Cl  0  0  0  0  0  0  0  0  0  0  0  0
    5.7154  -10.5206   14.2281 Cl  0  0  0  0  0  0  0  0  0  0  0  0
    9.7923   -9.0223   10.2657 C   0  0  0  0  0  0  0  0  0  0  0  0
   10.1954  -10.5741   10.9422 S   0  0  0  0  0  0  0  0  0  0  0  0
    7.9680   -5.7607   10.4923 C   0  0  0  0  0  0  0  0  0  0  0  0
    8.0133   -4.7473    9.5829 C   0  0  0  0  0  0  0  0  0  0  0  0
    9.1012   -5.0917    8.2547 S   0  0  0  0  0  0  0  0  0  0  0  0
    7.2741   -3.5290    9.5850 C   0  0  0  0  0  0  0  0  0  0  0  0
    7.2642   -2.5781    8.6089 C   0  0  0  0  0  0  0  0  0  0  0  0
    6.3556   -1.5221    8.8559 C   0  0  0  0  0  0  0  0  0  0  0  0
    6.0777   -0.4105    8.0415 C   0  0  0  0  0  0  0  0  0  0  0  0
    6.7580   -0.2040    6.7744 C   0  0  0  0  0  0  0  0  0  0  0  0
    6.8504   -1.4628    5.5769 S   0  0  0  0  0  0  0  0  0  0  0  0
    7.7209   -0.4583    4.4683 C   0  0  0  0  0  0  0  0  0  0  0  0
    8.1927   -0.9921    3.1612 C   0  0  0  0  0  0  0  0  0  0  0  0
    9.3615   -1.9612    3.3534 C   0  0  0  0  0  0  0  0  0  0  0  0
    7.9225    0.7757    5.0097 C   0  0  0  0  0  0  0  0  0  0  0  0
    8.7525    2.0495    4.2141 Cl  0  0  0  0  0  0  0  0  0  0  0  0
    7.3741    0.9265    6.3124 C   0  0  0  0  0  0  0  0  0  0  0  0
    7.5662    2.3638    7.2248 Cl  0  0  0  0  0  0  0  0  0  0  0  0
    5.0864    0.4569    8.4822 C   0  0  0  0  0  0  0  0  0  0  0  0
    4.4092    0.2976    9.7174 C   0  0  0  0  0  0  0  0  0  0  0  0
    4.7448   -0.7741   10.5666 C   0  0  0  0  0  0  0  0  0  0  0  0
    4.1210   -0.9240   11.8686 C   0  0  0  0  0  0  0  0  0  0  0  0
    3.4241   -2.4314   12.3826 S   0  0  0  0  0  0  0  0  0  0  0  0
    2.9636   -1.7843   13.9210 C   0  0  0  0  0  0  0  0  0  0  0  0
    2.2988   -2.6395   14.9422 C   0  0  0  0  0  0  0  0  0  0  0  0
    3.2863   -3.6389   15.5479 C   0  0  0  0  0  0  0  0  0  0  0  0
    3.3441   -0.4793   14.0193 C   0  0  0  0  0  0  0  0  0  0  0  0
    3.9944    0.0143   12.8564 C   0  0  0  0  0  0  0  0  0  0  0  0
    4.6257    1.6076   12.7600 Cl  0  0  0  0  0  0  0  0  0  0  0  0
    3.0737    0.4998   15.4030 Cl  0  0  0  0  0  0  0  0  0  0  0  0
    5.6818   -1.6830   10.0915 C   0  0  0  0  0  0  0  0  0  0  0  0
    6.1888   -3.1388   10.9035 S   0  0  0  0  0  0  0  0  0  0  0  0
    3.3578    1.2353    9.8691 C   0  0  0  0  0  0  0  0  0  0  0  0
    3.2248    2.0679    8.7954 C   0  0  0  0  0  0  0  0  0  0  0  0
    4.4228    1.7695    7.5570 S   0  0  0  0  0  0  0  0  0  0  0  0
    2.2140    3.0336    8.5176 C   0  0  0  0  0  0  0  0  0  0  0  0
    2.1645    3.5092    7.2360 O   0  0  0  0  0  0  0  0  0  0  0  0
    1.0915    4.2837    7.1700 C   0  0  0  0  0  0  0  0  0  0  0  0
    0.4264    4.3498    8.4018 C   0  0  0  0  0  0  0  0  0  0  0  0
    1.1641    3.5366    9.2757 C   0  0  0  0  0  0  0  0  0  0  0  0
   -0.7947    5.1444    8.2592 C   0  0  0  0  0  0  0  0  0  0  0  0
   -1.8839    5.5217    9.4059 S   0  0  0  0  0  0  0  0  0  0  0  0
   -0.8209    5.4955    6.8392 C   0  0  0  0  0  0  0  0  0  0  0  0
    0.3236    4.9904    6.2082 C   0  0  0  0  0  0  0  0  0  0  0  0
    0.3047    5.2177    4.9020 O   0  0  0  0  0  0  0  0  0  0  0  0
   -0.8763    5.8640    4.6476 C   0  0  0  0  0  0  0  0  0  0  0  0
   -1.5967    6.0645    5.8166 C   0  0  0  0  0  0  0  0  0  0  0  0
   -1.1985    6.0727    3.2736 C   0  0  0  0  0  0  0  0  0  0  0  0
   -0.3672    5.8176    2.2214 C   0  0  0  0  0  0  0  0  0  0  0  0
   -1.0087    5.9049    0.9641 C   0  0  0  0  0  0  0  0  0  0  0  0
   -0.4708    5.5694   -0.2910 C   0  0  0  0  0  0  0  0  0  0  0  0
    0.9306    5.2028   -0.4231 C   0  0  0  0  0  0  0  0  0  0  0  0
    2.1879    6.2805    0.1093 S   0  0  0  0  0  0  0  0  0  0  0  0
    3.4390    5.1749   -0.3478 C   0  0  0  0  0  0  0  0  0  0  0  0
    4.8718    5.4864   -0.0904 C   0  0  0  0  0  0  0  0  0  0  0  0
    5.2248    5.2565    1.3812 C   0  0  0  0  0  0  0  0  0  0  0  0
    2.8969    4.0407   -0.8734 C   0  0  0  0  0  0  0  0  0  0  0  0
    3.8204    2.7055   -1.4285 Cl  0  0  0  0  0  0  0  0  0  0  0  0
    1.4762    4.0539   -0.9233 C   0  0  0  0  0  0  0  0  0  0  0  0
    0.5647    2.7110   -1.4736 Cl  0  0  0  0  0  0  0  0  0  0  0  0
   -1.3456    5.5607   -1.3674 C   0  0  0  0  0  0  0  0  0  0  0  0
   -2.7182    5.8929   -1.2392 C   0  0  0  0  0  0  0  0  0  0  0  0
   -3.2547    6.2334    0.0159 C   0  0  0  0  0  0  0  0  0  0  0  0
   -4.6783    6.4859    0.1720 C   0  0  0  0  0  0  0  0  0  0  0  0
   -5.2652    7.9321    0.9371 S   0  0  0  0  0  0  0  0  0  0  0  0
   -6.9188    7.4758    0.7097 C   0  0  0  0  0  0  0  0  0  0  0  0
   -8.0338    8.3723    1.1217 C   0  0  0  0  0  0  0  0  0  0  0  0
   -8.4036    9.3397   -0.0055 C   0  0  0  0  0  0  0  0  0  0  0  0
   -6.9944    6.2720    0.0748 C   0  0  0  0  0  0  0  0  0  0  0  0
   -5.7281    5.7017   -0.2235 C   0  0  0  0  0  0  0  0  0  0  0  0
   -5.5733    4.1434   -0.9309 Cl  0  0  0  0  0  0  0  0  0  0  0  0
   -8.4676    5.4941   -0.3336 Cl  0  0  0  0  0  0  0  0  0  0  0  0
   -2.3789    6.2410    1.0919 C   0  0  0  0  0  0  0  0  0  0  0  0
   -2.8166    6.4964    2.7624 S   0  0  0  0  0  0  0  0  0  0  0  0
   -3.4060    5.7621   -2.4672 C   0  0  0  0  0  0  0  0  0  0  0  0
   -2.6233    5.2935   -3.4832 C   0  0  0  0  0  0  0  0  0  0  0  0
   -0.9522    5.1115   -3.0007 S   0  0  0  0  0  0  0  0  0  0  0  0
   -3.0911    4.7745   -4.7293 C   0  0  0  0  0  0  0  0  0  0  0  0
   -4.3756    4.3805   -4.9707 C   0  0  0  0  0  0  0  0  0  0  0  0
   -4.5261    3.6591   -6.1762 C   0  0  0  0  0  0  0  0  0  0  0  0
   -5.6718    2.9766   -6.6204 C   0  0  0  0  0  0  0  0  0  0  0  0
   -6.8662    2.9469   -5.7895 C   0  0  0  0  0  0  0  0  0  0  0  0
   -8.4137    3.4921   -6.3583 S   0  0  0  0  0  0  0  0  0  0  0  0
   -9.1675    3.1868   -4.8306 C   0  0  0  0  0  0  0  0  0  0  0  0
  -10.5951    3.5289   -4.5817 C   0  0  0  0  0  0  0  0  0  0  0  0
  -10.7161    4.9104   -3.9332 C   0  0  0  0  0  0  0  0  0  0  0  0
   -8.2612    2.6860   -3.9436 C   0  0  0  0  0  0  0  0  0  0  0  0
   -8.6397    2.2644   -2.3249 Cl  0  0  0  0  0  0  0  0  0  0  0  0
   -6.9565    2.5439   -4.4852 C   0  0  0  0  0  0  0  0  0  0  0  0
   -5.6536    1.8668   -3.5941 Cl  0  0  0  0  0  0  0  0  0  0  0  0
   -5.5657    2.2858   -7.8167 C   0  0  0  0  0  0  0  0  0  0  0  0
   -4.3643    2.2422   -8.5673 C   0  0  0  0  0  0  0  0  0  0  0  0
   -3.2110    2.9084   -8.1130 C   0  0  0  0  0  0  0  0  0  0  0  0
   -1.9682    2.8414   -8.8635 C   0  0  0  0  0  0  0  0  0  0  0  0
   -1.3089    1.3181   -9.3851 S   0  0  0  0  0  0  0  0  0  0  0  0
    0.0279    2.0750  -10.1819 C   0  0  0  0  0  0  0  0  0  0  0  0
    1.0102    1.2650  -10.9534 C   0  0  0  0  0  0  0  0  0  0  0  0
    0.3758    0.7057  -12.2292 C   0  0  0  0  0  0  0  0  0  0  0  0
   -0.0407    3.4279  -10.0343 C   0  0  0  0  0  0  0  0  0  0  0  0
   -1.1647    3.8658   -9.2815 C   0  0  0  0  0  0  0  0  0  0  0  0
   -1.5045    5.5250   -9.0238 Cl  0  0  0  0  0  0  0  0  0  0  0  0
    1.1035    4.5253  -10.6912 Cl  0  0  0  0  0  0  0  0  0  0  0  0
   -3.3148    3.5917   -6.9086 C   0  0  0  0  0  0  0  0  0  0  0  0
   -2.0132    4.3558   -6.0408 S   0  0  0  0  0  0  0  0  0  0  0  0
   -4.5008    1.4334   -9.7192 C   0  0  0  0  0  0  0  0  0  0  0  0
   -5.7249    0.8455   -9.8367 C   0  0  0  0  0  0  0  0  0  0  0  0
   -6.8108    1.3050   -8.5415 S   0  0  0  0  0  0  0  0  0  0  0  0
   -6.1044   -0.0956  -10.8378 C   0  0  0  0  0  0  0  0  0  0  0  0
   -7.3085   -0.6979  -11.0445 C   0  0  0  0  0  0  0  0  0  0  0  0
   -7.2921   -1.6391  -12.1062 C   0  0  0  0  0  0  0  0  0  0  0  0
   -8.3355   -2.4617  -12.5606 C   0  0  0  0  0  0  0  0  0  0  0  0
   -9.6515   -2.4315  -11.9429 C   0  0  0  0  0  0  0  0  0  0  0  0
   -9.8497   -2.6751  -10.2318 S   0  0  0  0  0  0  0  0  0  0  0  0
  -11.5722   -2.5488  -10.3328 C   0  0  0  0  0  0  0  0  0  0  0  0
  -12.4319   -2.7329   -9.1315 C   0  0  0  0  0  0  0  0  0  0  0  0
  -12.7302   -4.2158   -8.8967 C   0  0  0  0  0  0  0  0  0  0  0  0
  -11.9557   -2.3337  -11.6227 C   0  0  0  0  0  0  0  0  0  0  0  0
  -13.5884   -2.1516  -12.1171 Cl  0  0  0  0  0  0  0  0  0  0  0  0
  -10.8708   -2.2639  -12.5378 C   0  0  0  0  0  0  0  0  0  0  0  0
  -11.0927   -1.9174  -14.2010 Cl  0  0  0  0  0  0  0  0  0  0  0  0
   -8.0432   -3.3364  -13.6019 C   0  0  0  0  0  0  0  0  0  0  0  0
   -6.7654   -3.4205  -14.2059 C   0  0  0  0  0  0  0  0  0  0  0  0
   -5.7288   -2.5833  -13.7685 C   0  0  0  0  0  0  0  0  0  0  0  0
   -4.3838   -2.6509  -14.3192 C   0  0  0  0  0  0  0  0  0  0  0  0
   -3.4915   -4.1442  -14.3320 S   0  0  0  0  0  0  0  0  0  0  0  0
   -2.0720   -3.3838  -14.9650 C   0  0  0  0  0  0  0  0  0  0  0  0
   -0.8089   -4.1445  -15.1709 C   0  0  0  0  0  0  0  0  0  0  0  0
    0.0634   -4.0952  -13.9139 C   0  0  0  0  0  0  0  0  0  0  0  0
   -2.2923   -2.0519  -15.1500 C   0  0  0  0  0  0  0  0  0  0  0  0
   -3.6015   -1.6332  -14.7906 C   0  0  0  0  0  0  0  0  0  0  0  0
   -4.1410   -0.0222  -15.0151 Cl  0  0  0  0  0  0  0  0  0  0  0  0
   -1.1116   -0.9640  -15.7549 Cl  0  0  0  0  0  0  0  0  0  0  0  0
   -6.0205   -1.7122  -12.7263 C   0  0  0  0  0  0  0  0  0  0  0  0
   -4.8808   -0.6463  -11.9638 S   0  0  0  0  0  0  0  0  0  0  0  0
   -6.7295   -4.4156  -15.2252 C   0  0  0  0  0  0  0  0  0  0  0  0
   -7.9044   -5.0636  -15.3634 C   0  0  0  0  0  0  0  0  0  0  0  0
   -9.1345   -4.5078  -14.2844 S   0  0  0  0  0  0  0  0  0  0  0  0
   11.7882  -11.8355    9.6097 H   0  0  0  0  0  0  0  0  0  0  0  0
   11.9358   -9.9354    7.8336 H   0  0  0  0  0  0  0  0  0  0  0  0
   12.9410   -7.3187    2.9622 H   0  0  0  0  0  0  0  0  0  0  0  0
   11.9270   -8.7653    3.1323 H   0  0  0  0  0  0  0  0  0  0  0  0
    9.8916   -7.3767    2.7192 H   0  0  0  0  0  0  0  0  0  0  0  0
   10.9073   -5.9420    2.5456 H   0  0  0  0  0  0  0  0  0  0  0  0
   11.0294   -7.2573    1.3722 H   0  0  0  0  0  0  0  0  0  0  0  0
    6.4001   -8.6848   16.2549 H   0  0  0  0  0  0  0  0  0  0  0  0
    7.5995   -7.3774   16.2472 H   0  0  0  0  0  0  0  0  0  0  0  0
    4.7793   -7.1944   15.0797 H   0  0  0  0  0  0  0  0  0  0  0  0
    5.3142   -6.4679   16.5983 H   0  0  0  0  0  0  0  0  0  0  0  0
    5.9788   -5.8966   15.0642 H   0  0  0  0  0  0  0  0  0  0  0  0
    7.3424   -5.7237   11.3655 H   0  0  0  0  0  0  0  0  0  0  0  0
    7.8822   -2.6479    7.7325 H   0  0  0  0  0  0  0  0  0  0  0  0
    8.5052   -0.1541    2.5363 H   0  0  0  0  0  0  0  0  0  0  0  0
    7.3721   -1.5120    2.6622 H   0  0  0  0  0  0  0  0  0  0  0  0
   10.1937   -1.4584    3.8397 H   0  0  0  0  0  0  0  0  0  0  0  0
    9.6968   -2.3363    2.3903 H   0  0  0  0  0  0  0  0  0  0  0  0
    9.0564   -2.8035    3.9703 H   0  0  0  0  0  0  0  0  0  0  0  0
    1.4744   -3.1849   14.4783 H   0  0  0  0  0  0  0  0  0  0  0  0
    1.8942   -1.9959   15.7248 H   0  0  0  0  0  0  0  0  0  0  0  0
    4.1083   -3.1140   16.0279 H   0  0  0  0  0  0  0  0  0  0  0  0
    2.7859   -4.2554   16.2894 H   0  0  0  0  0  0  0  0  0  0  0  0
    3.6912   -4.2839   14.7720 H   0  0  0  0  0  0  0  0  0  0  0  0
    2.6942    1.2561   10.7128 H   0  0  0  0  0  0  0  0  0  0  0  0
    0.9719    3.3260   10.3071 H   0  0  0  0  0  0  0  0  0  0  0  0
   -2.5523    6.5417    5.8893 H   0  0  0  0  0  0  0  0  0  0  0  0
    0.6600    5.5332    2.3538 H   0  0  0  0  0  0  0  0  0  0  0  0
    5.0710    6.5275   -0.3518 H   0  0  0  0  0  0  0  0  0  0  0  0
    5.4872    4.8430   -0.7215 H   0  0  0  0  0  0  0  0  0  0  0  0
    4.6191    5.8966    2.0186 H   0  0  0  0  0  0  0  0  0  0  0  0
    6.2731    5.4842    1.5537 H   0  0  0  0  0  0  0  0  0  0  0  0
    5.0442    4.2203    1.6563 H   0  0  0  0  0  0  0  0  0  0  0  0
   -8.9017    7.7603    1.3751 H   0  0  0  0  0  0  0  0  0  0  0  0
   -7.7339    8.9389    2.0044 H   0  0  0  0  0  0  0  0  0  0  0  0
   -7.5487    9.9585   -0.2673 H   0  0  0  0  0  0  0  0  0  0  0  0
   -9.2188    9.9853    0.3097 H   0  0  0  0  0  0  0  0  0  0  0  0
   -8.7174    8.7876   -0.8878 H   0  0  0  0  0  0  0  0  0  0  0  0
   -4.4464    5.9934   -2.5909 H   0  0  0  0  0  0  0  0  0  0  0  0
   -5.1813    4.5578   -4.2841 H   0  0  0  0  0  0  0  0  0  0  0  0
  -11.0267    2.7782   -3.9162 H   0  0  0  0  0  0  0  0  0  0  0  0
  -11.1406    3.5167   -5.5262 H   0  0  0  0  0  0  0  0  0  0  0  0
  -10.1808    4.9301   -2.9874 H   0  0  0  0  0  0  0  0  0  0  0  0
  -10.2970    5.6724   -4.5860 H   0  0  0  0  0  0  0  0  0  0  0  0
  -11.7604    5.1455   -3.7467 H   0  0  0  0  0  0  0  0  0  0  0  0
    1.8603    1.8996  -11.2086 H   0  0  0  0  0  0  0  0  0  0  0  0
    1.3660    0.4374  -10.3358 H   0  0  0  0  0  0  0  0  0  0  0  0
   -0.4695    0.0667  -11.9832 H   0  0  0  0  0  0  0  0  0  0  0  0
    0.0245    1.5153  -12.8639 H   0  0  0  0  0  0  0  0  0  0  0  0
    1.1054    0.1221  -12.7844 H   0  0  0  0  0  0  0  0  0  0  0  0
   -3.7195    1.2739  -10.4393 H   0  0  0  0  0  0  0  0  0  0  0  0
   -8.1760   -0.4765  -10.4496 H   0  0  0  0  0  0  0  0  0  0  0  0
  -11.9262   -2.3208   -8.2567 H   0  0  0  0  0  0  0  0  0  0  0  0
  -13.3676   -2.1918   -9.2842 H   0  0  0  0  0  0  0  0  0  0  0  0
  -13.2422   -4.6377   -9.7578 H   0  0  0  0  0  0  0  0  0  0  0  0
  -11.8059   -4.7660   -8.7376 H   0  0  0  0  0  0  0  0  0  0  0  0
  -13.3632   -4.3352   -8.0216 H   0  0  0  0  0  0  0  0  0  0  0  0
   -0.2649   -3.7037  -16.0086 H   0  0  0  0  0  0  0  0  0  0  0  0
   -1.0446   -5.1821  -15.4119 H   0  0  0  0  0  0  0  0  0  0  0  0
   -0.4643   -4.5344  -13.0706 H   0  0  0  0  0  0  0  0  0  0  0  0
    0.9843   -4.6484  -14.0766 H   0  0  0  0  0  0  0  0  0  0  0  0
    0.3121   -3.0656  -13.6699 H   0  0  0  0  0  0  0  0  0  0  0  0
   -5.8579   -4.6254  -15.8174 H   0  0  0  0  0  0  0  0  0  0  0  0
   -8.1445   -5.8516  -16.0500 H   0  0  0  0  0  0  0  0  0  0  0  0
  1  2  2  0  0  0  0
  2  3  1  0  0  0  0
  3  4  2  0  0  0  0
  4  5  1  0  0  0  0
  5  6  1  0  0  0  0
  6  7  1  0  0  0  0
  7  8  1  0  0  0  0
  8  9  1  0  0  0  0
  7 10  2  0  0  0  0
 10 11  1  0  0  0  0
 10 12  1  0  0  0  0
 12 13  1  0  0  0  0
  4 14  1  0  0  0  0
 14 15  2  0  0  0  0
 15 16  1  0  0  0  0
 16 17  1  0  0  0  0
 17 18  1  0  0  0  0
 18 19  1  0  0  0  0
 19 20  1  0  0  0  0
 20 21  1  0  0  0  0
 19 22  2  0  0  0  0
 22 23  1  0  0  0  0
 23 24  1  0  0  0  0
 22 25  1  0  0  0  0
 16 26  2  0  0  0  0
 26 27  1  0  0  0  0
 15 28  1  0  0  0  0
 28 29  2  0  0  0  0
 29 30  1  0  0  0  0
 29 31  1  0  0  0  0
 31 32  2  0  0  0  0
 32 33  1  0  0  0  0
 33 34  2  0  0  0  0
 34 35  1  0  0  0  0
 35 36  1  0  0  0  0
 36 37  1  0  0  0  0
 37 38  1  0  0  0  0
 38 39  1  0  0  0  0
 37 40  2  0  0  0  0
 40 41  1  0  0  0  0
 40 42  1  0  0  0  0
 42 43  1  0  0  0  0
 34 44  1  0  0  0  0
 44 45  2  0  0  0  0
 45 46  1  0  0  0  0
 46 47  1  0  0  0  0
 47 48  1  0  0  0  0
 48 49  1  0  0  0  0
 49 50  1  0  0  0  0
 50 51  1  0  0  0  0
 49 52  2  0  0  0  0
 52 53  1  0  0  0  0
 53 54  1  0  0  0  0
 52 55  1  0  0  0  0
 46 56  2  0  0  0  0
 56 57  1  0  0  0  0
 45 58  1  0  0  0  0
 58 59  2  0  0  0  0
 59 60  1  0  0  0  0
 59 61  1  0  0  0  0
 61 62  1  0  0  0  0
 62 63  1  0  0  0  0
 63 64  2  0  0  0  0
 64 65  1  0  0  0  0
 64 66  1  0  0  0  0
 66 67  2  0  0  0  0
 66 68  1  0  0  0  0
 68 69  2  0  0  0  0
 69 70  1  0  0  0  0
 70 71  1  0  0  0  0
 71 72  2  0  0  0  0
 71 73  1  0  0  0  0
 73 74  2  0  0  0  0
 74 75  1  0  0  0  0
 75 76  2  0  0  0  0
 76 77  1  0  0  0  0
 77 78  1  0  0  0  0
 78 79  1  0  0  0  0
 79 80  1  0  0  0  0
 80 81  1  0  0  0  0
 79 82  2  0  0  0  0
 82 83  1  0  0  0  0
 82 84  1  0  0  0  0
 84 85  1  0  0  0  0
 76 86  1  0  0  0  0
 86 87  2  0  0  0  0
 87 88  1  0  0  0  0
 88 89  1  0  0  0  0
 89 90  1  0  0  0  0
 90 91  1  0  0  0  0
 91 92  1  0  0  0  0
 92 93  1  0  0  0  0
 91 94  2  0  0  0  0
 94 95  1  0  0  0  0
 95 96  1  0  0  0  0
 94 97  1  0  0  0  0
 88 98  2  0  0  0  0
 98 99  1  0  0  0  0
 87100  1  0  0  0  0
100101  2  0  0  0  0
101102  1  0  0  0  0
101103  1  0  0  0  0
103104  2  0  0  0  0
104105  1  0  0  0  0
105106  2  0  0  0  0
106107  1  0  0  0  0
107108  1  0  0  0  0
108109  1  0  0  0  0
109110  1  0  0  0  0
110111  1  0  0  0  0
109112  2  0  0  0  0
112113  1  0  0  0  0
112114  1  0  0  0  0
114115  1  0  0  0  0
106116  1  0  0  0  0
116117  2  0  0  0  0
117118  1  0  0  0  0
118119  1  0  0  0  0
119120  1  0  0  0  0
120121  1  0  0  0  0
121122  1  0  0  0  0
122123  1  0  0  0  0
121124  2  0  0  0  0
124125  1  0  0  0  0
125126  1  0  0  0  0
124127  1  0  0  0  0
118128  2  0  0  0  0
128129  1  0  0  0  0
117130  1  0  0  0  0
130131  2  0  0  0  0
131132  1  0  0  0  0
131133  1  0  0  0  0
133134  2  0  0  0  0
134135  1  0  0  0  0
135136  2  0  0  0  0
136137  1  0  0  0  0
137138  1  0  0  0  0
138139  1  0  0  0  0
139140  1  0  0  0  0
140141  1  0  0  0  0
139142  2  0  0  0  0
142143  1  0  0  0  0
142144  1  0  0  0  0
144145  1  0  0  0  0
136146  1  0  0  0  0
146147  2  0  0  0  0
147148  1  0  0  0  0
148149  1  0  0  0  0
149150  1  0  0  0  0
150151  1  0  0  0  0
151152  1  0  0  0  0
152153  1  0  0  0  0
151154  2  0  0  0  0
154155  1  0  0  0  0
155156  1  0  0  0  0
154157  1  0  0  0  0
148158  2  0  0  0  0
158159  1  0  0  0  0
147160  1  0  0  0  0
160161  2  0  0  0  0
161162  1  0  0  0  0
 27  1  1  0  0  0  0
 57 31  1  0  0  0  0
 65 61  2  0  0  0  0
 72 68  1  0  0  0  0
 99 73  1  0  0  0  0
129103  1  0  0  0  0
159133  1  0  0  0  0
 26  3  1  0  0  0  0
 56 33  1  0  0  0  0
 69 63  1  0  0  0  0
 98 75  1  0  0  0  0
128105  1  0  0  0  0
158135  1  0  0  0  0
 12  5  2  0  0  0  0
 30 14  1  0  0  0  0
 42 35  2  0  0  0  0
 60 44  1  0  0  0  0
 84 77  2  0  0  0  0
102 86  1  0  0  0  0
114107  2  0  0  0  0
132116  1  0  0  0  0
144137  2  0  0  0  0
162146  1  0  0  0  0
 23 17  2  0  0  0  0
 53 47  2  0  0  0  0
 95 89  2  0  0  0  0
125119  2  0  0  0  0
155149  2  0  0  0  0
  1163  1  0  0  0  0
  2164  1  0  0  0  0
  8165  1  0  0  0  0
  8166  1  0  0  0  0
  9167  1  0  0  0  0
  9168  1  0  0  0  0
  9169  1  0  0  0  0
 20170  1  0  0  0  0
 20171  1  0  0  0  0
 21172  1  0  0  0  0
 21173  1  0  0  0  0
 21174  1  0  0  0  0
 28175  1  0  0  0  0
 32176  1  0  0  0  0
 38177  1  0  0  0  0
 38178  1  0  0  0  0
 39179  1  0  0  0  0
 39180  1  0  0  0  0
 39181  1  0  0  0  0
 50182  1  0  0  0  0
 50183  1  0  0  0  0
 51184  1  0  0  0  0
 51185  1  0  0  0  0
 51186  1  0  0  0  0
 58187  1  0  0  0  0
 65188  1  0  0  0  0
 72189  1  0  0  0  0
 74190  1  0  0  0  0
 80191  1  0  0  0  0
 80192  1  0  0  0  0
 81193  1  0  0  0  0
 81194  1  0  0  0  0
 81195  1  0  0  0  0
 92196  1  0  0  0  0
 92197  1  0  0  0  0
 93198  1  0  0  0  0
 93199  1  0  0  0  0
 93200  1  0  0  0  0
100201  1  0  0  0  0
104202  1  0  0  0  0
110203  1  0  0  0  0
110204  1  0  0  0  0
111205  1  0  0  0  0
111206  1  0  0  0  0
111207  1  0  0  0  0
122208  1  0  0  0  0
122209  1  0  0  0  0
123210  1  0  0  0  0
123211  1  0  0  0  0
123212  1  0  0  0  0
130213  1  0  0  0  0
134214  1  0  0  0  0
140215  1  0  0  0  0
140216  1  0  0  0  0
141217  1  0  0  0  0
141218  1  0  0  0  0
141219  1  0  0  0  0
152220  1  0  0  0  0
152221  1  0  0  0  0
153222  1  0  0  0  0
153223  1  0  0  0  0
153224  1  0  0  0  0
160225  1  0  0  0  0
161226  1  0  0  0  0
M  END
