106

C          9.56120        2.99330        6.52670
S          8.31360        1.79440        6.38300
C          9.09330        4.27050        6.49770
C          7.69310        4.30310        6.35640
C          6.63670        5.29110        6.26650
S          6.78290        6.91880        6.30610
C          7.13190        3.02260        6.28110
C          5.72070        3.15440        6.14390
S          4.33610        2.16610        5.99620
C          5.40460        4.51900        6.13420
C          4.03790        4.76050        6.00860
C          3.30240        3.59020        5.92140
C          1.89570        3.47870        5.79620
C          1.21620        2.31020        5.71360
C         -0.19000        2.18870        5.60410
S         -1.24290        3.60200        5.56830
C         -0.91320        1.01130        5.52220
C         -2.28550        1.23540        5.44050
C         -3.50260        0.45170        5.31010
S         -3.64470       -1.16700        5.12530
C         -2.61990        2.60090        5.45360
C         -4.02980        2.72010        5.32760
S         -5.22510        3.92890        5.12720
C         -4.57490        1.42940        5.27200
C         -5.95360        1.43080        5.06310
C         -6.46340        2.70100        4.91140
C         -7.78420        3.02190        4.41230
C         -8.30570        2.34870        3.37110
C         -7.50250        1.38840        2.64300
S         -8.02380       -0.27610        2.41220
C         -6.18800        1.56460        2.27700
C         -5.57650        0.37270        1.88700
C         -4.23280       -0.09100        1.59390
S         -2.86240        0.80100        1.60650
C         -6.44850       -0.72410        1.91940
C         -5.70300       -1.89390        1.60280
S         -5.93910       -3.57750        1.43930
C         -4.36370       -1.52650        1.40710
C         -3.53780       -2.61340        1.12060
C         -4.23060       -3.80750        1.09580
C         -3.68950       -5.07920        0.75830
C         -4.36470       -6.24150        0.70240
C         -3.79150       -7.46790        0.20630
C         -4.02280       -8.73970        0.68810
C         -4.88360       -9.20540        1.80570
N         -3.23420       -9.60230       -0.01460
C         -2.50680       -8.93610       -0.95430
C         -1.58100       -9.64510       -1.87460
C         -2.82920       -7.59750       -0.85740
C         -2.38410       -6.52520       -1.70620
S         -0.72620       -6.43940       -2.28740
C         -3.12530       -5.44260       -2.11840
C         -2.37010       -4.53020       -2.86020
C         -2.56130       -3.22710       -3.47010
S         -3.91910       -2.31680       -3.45350
C         -1.04190       -4.93630       -3.04330
C         -0.36440       -3.93170       -3.78600
S          1.18660       -3.60540       -4.41790
C         -1.26940       -2.88920       -4.04980
C         -0.70100       -1.83390       -4.75740
C          0.63620       -2.05160       -5.04440
C          1.56180       -1.22630       -5.72930
C          1.28010       -0.00590       -6.24830
C          2.21230        0.81850       -6.92330
S          3.88650        0.32350       -7.16180
C          1.96840        2.07040       -7.46430
C          3.10090        2.62260       -8.05730
C          3.47110        3.84730       -8.75560
S          2.50550        5.12000       -9.10090
C          4.22570        1.78890       -7.97200
C          5.31850        2.44500       -8.59810
S          6.97000        2.18080       -8.92990
C          4.87760        3.68920       -9.07570
C          5.88760        4.41930       -9.70970
C          7.09000        3.74850       -9.72030
C          8.35950        4.14210      -10.26340
C          8.60350        5.28810      -10.89730
H         10.57580        2.66240        6.62500
H          9.71680        5.14250        6.57340
H          3.59010        5.73720        5.98120
H          1.35150        4.41460        5.77160
H          1.76350        1.37580        5.73400
H         -0.45360        0.03970        5.51970
H         -6.55760        0.54330        5.01330
H         -8.33350        3.82280        4.88600
H         -9.33150        2.50330        3.06870
H         -5.69140        2.51760        2.30480
H         -2.48180       -2.54300        0.93280
H         -2.64060       -5.06090        0.49530
H         -5.39220       -6.27860        1.04410
H         -4.30100       -9.32900        2.72010
H         -5.34260      -10.16300        1.56310
H         -5.66680       -8.47900        2.00260
H         -3.19390      -10.59680        0.13990
H         -0.57380       -9.68550       -1.45720
H         -1.92130      -10.66460       -2.04740
H         -1.52480       -9.12680       -2.82880
H         -4.16780       -5.32230       -1.89140
H         -1.23500       -0.94820       -5.04690
H          2.56610       -1.61760       -5.83120
H          0.28420        0.40390       -6.15770
H          1.00730        2.54950       -7.42060
H          5.74510        5.39340      -10.13900
H          9.15720        3.42310      -10.12670
H          9.58300        5.51600      -11.27800
H          7.84060        6.03000      -11.05590
