125

C          9.46450        4.57000        2.26290
S          7.95060        4.26860        3.02960
C          7.16500        4.24730        1.49390
C          5.79380        4.04370        1.17820
C          5.42500        4.08730       -0.15710
Ge         7.03780        4.41620       -1.24030
C          6.99760        6.16700       -2.21970
C          8.32190        6.48600       -2.89510
C          7.51950        2.85800       -2.40940
C          6.52410        2.65360       -3.54060
C          8.04640        4.46500        0.45030
C          9.36280        4.64780        0.90800
C          4.05930        3.86660       -0.33490
C          3.37940        3.65240        0.84770
S          4.45710        3.72980        2.21920
C          1.99670        3.36540        1.01580
S          1.32780        3.05030        2.59690
C         -0.22230        2.74950        1.90490
C         -1.41700        2.29770        2.52000
C         -2.50360        2.02350        1.70390
Ge        -2.02560        2.47090       -0.15350
C         -2.99720        4.10300       -0.79990
C         -2.41150        4.65480       -2.09040
C         -2.08730        0.95080       -1.45810
C         -3.51030        0.62470       -1.87990
C         -0.22330        2.90130        0.52530
C          1.03250        3.25300        0.03310
C         -3.59450        1.53790        2.42510
C         -3.35540        1.43520        3.77650
S         -1.74300        1.97040        4.18020
C         -4.26950        0.98540        4.78170
S         -4.45550        1.89600        6.24440
C         -5.79990        0.96970        6.73550
C         -6.11020       -0.02120        5.82790
C         -5.19540       -0.05180        4.71850
C         -5.30830       -1.09360        3.74680
C         -6.41060       -1.91340        3.81160
C         -7.36030       -1.82330        4.84060
C         -7.20460       -0.93250        5.86790
O         -8.09780       -0.93000        6.89360
C         -4.25490       -1.36670        2.79000
S         -4.63330       -1.86160        1.16110
C         -2.95830       -2.05950        0.80810
C         -2.32880       -2.50270       -0.38340
C         -0.94960       -2.64500       -0.37540
Ge        -0.27310       -2.07820        1.38890
C          0.58680       -3.56020        2.42950
C         -0.29730       -4.79450        2.48940
C          0.83450       -0.41060        1.31000
C          2.20760       -0.62190        0.69470
C         -2.15240       -1.76670        1.89480
C         -2.89940       -1.37760        3.01070
C         -0.46950       -3.11770       -1.59640
C         -1.45930       -3.36140       -2.52590
S         -3.02800       -2.93200       -1.89420
C         -1.26210       -3.77970       -3.87790
S          0.18850       -3.21560       -4.65960
C         -0.26100       -3.88120       -6.15880
C         -1.47450       -4.52310       -6.08690
C         -2.04760       -4.51150       -4.76730
C         -3.26600       -5.22820       -4.54820
C         -3.91610       -5.74970       -5.64130
C         -3.39020       -5.69000       -6.94300
C         -2.16760       -5.12620       -7.17400
O         -1.56880       -5.09290       -8.39430
C         -3.81140       -5.46730       -3.22580
S         -5.49150       -5.19920       -2.91050
C         -5.34720       -5.67220       -1.28040
C         -4.06370       -6.05810       -0.97490
C         -3.17220       -5.95880       -2.09610
C         -1.82400       -6.36620       -1.95450
C         -1.39500       -6.82520       -0.74800
C         -2.25830       -6.90060        0.36900
C         -3.56720       -6.52440        0.27540
O         -4.44100       -6.57910        1.31630
H         10.34150        4.67100        2.87190
H          6.19670        6.13090       -2.95800
H          6.74330        6.94760       -1.50320
H          8.57360        5.72380       -3.62980
H          8.27240        7.44730       -3.40420
H          9.12350        6.52860       -2.16070
H          7.56210        1.96810       -1.78190
H          8.51960        3.02050       -2.81070
H          6.80480        1.79580       -4.14960
H          6.48540        3.53040       -4.18410
H          5.52700        2.47880       -3.14220
H         10.20390        4.82830        0.26110
H          3.57480        3.85970       -1.29520
H         -2.94790        4.85640       -0.01380
H         -4.04770        3.84870       -0.94010
H         -2.95330        5.54390       -2.40930
H         -2.46900        3.91610       -2.88740
H         -1.36650        4.92270       -1.94910
H         -1.48820        1.22150       -2.32780
H         -1.62150        0.07830       -1.00040
H         -4.10300        0.31910       -1.02030
H         -3.98810        1.49080       -2.33400
H         -3.51930       -0.18840       -2.60320
H          1.24240        3.40820       -1.01030
H         -4.54230        1.27980        1.98590
H         -6.28870        1.22420        7.65640
H         -6.52840       -2.68900        3.06930
H         -8.20200       -2.49640        4.85830
H         -7.86870       -0.24500        7.53090
H          1.53970       -3.80350        1.96000
H          0.80240       -3.19630        3.43430
H         -1.24270       -4.56170        2.97670
H          0.19120       -5.59400        3.04500
H         -0.51420       -5.14930        1.48390
H          0.93420       -0.02110        2.32280
H          0.27900        0.32680        0.73090
H          2.78930       -1.32990        1.28140
H          2.75400        0.31940        0.65560
H          2.11700       -1.00730       -0.31870
H         -2.46420       -1.13810        3.96540
H          0.56930       -3.31240       -1.80220
H          0.36420       -3.76730       -7.02020
H         -4.85230       -6.26640       -5.48970
H         -3.94650       -6.13440       -7.75710
H         -2.13750       -5.52510       -9.04330
H         -6.19640       -5.64920       -0.62910
H         -1.16180       -6.32170       -2.80450
H         -0.37120       -7.14610       -0.62380
H         -1.87270       -7.27310        1.30880
H         -3.98630       -6.90740        2.10170
