92

C          2.41540        0.49170        1.58450
S          3.56000       -0.28590        0.58460
C          4.48670       -0.79610        1.92230
C          3.94000       -0.37710        3.11250
C          2.72340        0.36370        2.91990
C          2.00380        0.85730        4.05270
C          2.54470        0.66210        5.29310
C          3.74590       -0.05180        5.48520
C          4.43700       -0.58080        4.43190
O          5.58570       -1.29260        4.56600
C          0.74480        1.57450        3.87270
S          0.68210        3.24190        4.32700
C         -0.93550        3.40240        3.82600
C         -1.43430        2.22190        3.33120
C         -0.47170        1.15120        3.36310
C         -0.88600       -0.15840        2.95790
C         -2.15510       -0.31280        2.46670
C         -3.06660        0.75580        2.35590
C         -2.74700        2.00430        2.81460
O         -3.59750        3.05270        2.81600
C         -0.02290       -1.33370        3.20980
S         -0.12270       -1.90880        5.01240
C         -0.62760       -3.25450        4.03710
C         -0.50230       -2.70290        2.81220
C         -0.65100       -3.28660        1.49400
O         -1.15590       -4.36090        1.26010
O         -0.12270       -2.48830        0.53820
C         -0.15310       -2.99740       -0.78800
C          1.04330       -2.52450       -1.54440
C          1.27360       -2.83310       -2.81420
C          2.39370       -2.27820       -3.59930
S          4.04120       -3.19000       -3.46200
C          4.33950       -1.56440       -2.92100
C          3.09800       -1.05930       -3.06450
C          2.51600        0.22130       -2.70700
O          3.09370        1.12250       -2.14590
O          1.21050        0.26560       -3.05620
C          0.46280        1.35170       -2.53110
C          0.02640        1.04920       -1.12760
C         -0.65510        1.85430       -0.32510
C         -1.19020        3.18190       -0.68820
S         -0.59050        4.60030        0.38470
C         -2.30160        4.48110        0.66780
C         -2.57530        3.44320       -0.15020
C         -3.74090        2.60610       -0.35970
O         -4.75670        2.63260        0.30880
O         -3.52340        1.74210       -1.35670
C         -4.51540        0.73230       -1.58390
C         -3.89880       -0.30870       -2.45560
C         -3.67640       -1.56370       -2.05680
C         -3.06600       -2.60740       -2.83120
S         -3.47310       -4.25040       -2.44810
C         -2.51920       -4.87140       -3.70800
C         -1.87610       -3.87210       -4.40420
C         -2.17120       -2.56020       -3.90080
C         -1.50810       -1.44650       -4.46570
C         -0.65360       -1.63370       -5.50930
C         -0.40490       -2.91470       -6.04820
C         -0.99000       -4.02630       -5.50950
O         -0.76640       -5.28870       -5.95620
H          1.58550        1.00590        1.14470
H          5.38330       -1.36430        1.78300
H          2.02640        1.03960        6.16150
H          4.11250       -0.19000        6.49310
H          5.81900       -1.35790        5.50040
H         -1.44630        4.33910        3.91320
H         -2.48720       -1.29510        2.16430
H         -4.05080        0.57140        1.95070
H         -4.34930        2.87620        2.22120
H          1.02510       -1.16210        2.98170
H         -0.90700       -4.23040        4.38300
H         -1.06920       -2.63960       -1.27760
H         -0.20250       -4.09420       -0.74680
H          1.71480       -1.87990       -0.99360
H          0.61380       -3.50890       -3.33880
H          2.14290       -2.21480       -4.65770
H          5.27460       -1.15500       -2.59330
H          1.07980        2.25980       -2.55270
H         -0.39440        1.47420       -3.19900
H          0.31160        0.06940       -0.77260
H         -0.89910        1.52750        0.67580
H         -1.04510        3.43760       -1.73520
H         -2.89370        5.09440        1.31770
H         -4.83500        0.32160       -0.62060
H         -5.38220        1.19940       -2.06900
H         -3.61980        0.02520       -3.44180
H         -4.02910       -1.87190       -1.07910
H         -2.47000       -5.92540       -3.89110
H         -1.66010       -0.46590       -4.05010
H         -0.14150       -0.78830       -5.94330
H          0.26800       -3.01450       -6.88950
H         -0.15860       -5.26960       -6.70580
