
  xtb     02282215593D
 energy: -369.011602174235 gnorm: 0.000238640556 xtb: 6.4.1 (unknown)
226252  0     0  0            999 V2000
   -3.0090   -2.3965    1.7249 C   0  0  0  0  0  0  0  0  0  0  0  0
   -3.3304   -3.6214    1.2648 C   0  0  0  0  0  0  0  0  0  0  0  0
   -4.3619   -4.2566    2.0212 C   0  0  0  0  0  0  0  0  0  0  0  0
   -4.9056   -5.5491    1.8633 C   0  0  0  0  0  0  0  0  0  0  0  0
   -4.5750   -6.3879    0.7309 C   0  0  0  0  0  0  0  0  0  0  0  0
   -4.5109   -7.7537    0.6579 C   0  0  0  0  0  0  0  0  0  0  0  0
   -4.1674   -8.2349   -0.6190 C   0  0  0  0  0  0  0  0  0  0  0  0
   -3.9739   -7.2493   -1.5402 C   0  0  0  0  0  0  0  0  0  0  0  0
   -3.5577   -7.3833   -2.9678 C   0  0  0  0  0  0  0  0  0  0  0  0
   -3.8112   -6.1205   -3.7823 C   0  0  0  0  0  0  0  0  0  0  0  0
   -4.2180   -5.6954   -0.8282 S   0  0  0  0  0  0  0  0  0  0  0  0
   -5.7718   -5.9754    2.8724 C   0  0  0  0  0  0  0  0  0  0  0  0
   -6.1538   -5.1672    3.9697 C   0  0  0  0  0  0  0  0  0  0  0  0
   -5.6883   -3.8441    4.0662 C   0  0  0  0  0  0  0  0  0  0  0  0
   -6.1102   -2.9437    5.1209 C   0  0  0  0  0  0  0  0  0  0  0  0
   -6.2545   -3.1793    6.4585 C   0  0  0  0  0  0  0  0  0  0  0  0
   -6.6729   -2.0443    7.1818 C   0  0  0  0  0  0  0  0  0  0  0  0
   -6.8590   -0.9449    6.4011 C   0  0  0  0  0  0  0  0  0  0  0  0
   -7.2393    0.4368    6.8084 C   0  0  0  0  0  0  0  0  0  0  0  0
   -6.0036    1.3358    6.8942 C   0  0  0  0  0  0  0  0  0  0  0  0
   -6.5035   -1.2900    4.7432 S   0  0  0  0  0  0  0  0  0  0  0  0
   -4.7853   -3.4352    3.0894 C   0  0  0  0  0  0  0  0  0  0  0  0
   -3.9450   -1.9048    3.0890 S   0  0  0  0  0  0  0  0  0  0  0  0
   -7.0391   -5.8472    4.8509 C   0  0  0  0  0  0  0  0  0  0  0  0
   -7.3718   -7.0988    4.4479 C   0  0  0  0  0  0  0  0  0  0  0  0
   -6.5369   -7.5406    2.9664 S   0  0  0  0  0  0  0  0  0  0  0  0
   -8.1874   -8.0621    5.1495 C   0  0  0  0  0  0  0  0  0  0  0  0
   -7.7302   -8.4879    6.7675 S   0  0  0  0  0  0  0  0  0  0  0  0
   -8.9176   -9.7029    6.8732 C   0  0  0  0  0  0  0  0  0  0  0  0
   -9.6602   -9.7912    5.7194 C   0  0  0  0  0  0  0  0  0  0  0  0
   -9.2692   -8.8256    4.7316 C   0  0  0  0  0  0  0  0  0  0  0  0
  -10.0119   -8.7414    3.5127 C   0  0  0  0  0  0  0  0  0  0  0  0
  -10.9708   -9.6833    3.2617 C   0  0  0  0  0  0  0  0  0  0  0  0
  -11.3045  -10.6774    4.2031 C   0  0  0  0  0  0  0  0  0  0  0  0
  -10.6988  -10.7221    5.4274 C   0  0  0  0  0  0  0  0  0  0  0  0
  -11.0243  -11.6173    6.3959 O   0  0  0  0  0  0  0  0  0  0  0  0
   -9.7371   -7.6228    2.6280 C   0  0  0  0  0  0  0  0  0  0  0  0
   -9.6997   -6.3211    3.0083 C   0  0  0  0  0  0  0  0  0  0  0  0
   -9.1302   -5.4550    2.0399 C   0  0  0  0  0  0  0  0  0  0  0  0
   -8.8362   -4.0829    2.1647 C   0  0  0  0  0  0  0  0  0  0  0  0
   -9.3002   -3.2379    3.2455 C   0  0  0  0  0  0  0  0  0  0  0  0
   -9.6111   -1.9080    3.1543 C   0  0  0  0  0  0  0  0  0  0  0  0
  -10.0258   -1.3314    4.3705 C   0  0  0  0  0  0  0  0  0  0  0  0
  -10.0341   -2.2076    5.4099 C   0  0  0  0  0  0  0  0  0  0  0  0
  -10.3863   -2.0011    6.8449 C   0  0  0  0  0  0  0  0  0  0  0  0
  -11.0799   -0.6695    7.1056 C   0  0  0  0  0  0  0  0  0  0  0  0
   -9.5357   -3.7824    4.8837 S   0  0  0  0  0  0  0  0  0  0  0  0
   -8.0258   -3.5517    1.1630 C   0  0  0  0  0  0  0  0  0  0  0  0
   -7.6229   -4.2719    0.0149 C   0  0  0  0  0  0  0  0  0  0  0  0
   -8.0640   -5.5956   -0.1873 C   0  0  0  0  0  0  0  0  0  0  0  0
   -7.7564   -6.3051   -1.4077 C   0  0  0  0  0  0  0  0  0  0  0  0
   -7.7033   -5.7943   -2.6773 C   0  0  0  0  0  0  0  0  0  0  0  0
   -7.3924   -6.7582   -3.6543 C   0  0  0  0  0  0  0  0  0  0  0  0
   -7.1973   -8.0038   -3.1390 C   0  0  0  0  0  0  0  0  0  0  0  0
   -6.9046   -9.2723   -3.8639 C   0  0  0  0  0  0  0  0  0  0  0  0
   -8.1780  -10.1001   -4.0518 C   0  0  0  0  0  0  0  0  0  0  0  0
   -7.4184   -8.0116   -1.4222 S   0  0  0  0  0  0  0  0  0  0  0  0
   -8.7577   -6.1672    0.8731 C   0  0  0  0  0  0  0  0  0  0  0  0
   -9.2079   -7.8494    0.9822 S   0  0  0  0  0  0  0  0  0  0  0  0
   -6.6639   -3.5599   -0.7451 C   0  0  0  0  0  0  0  0  0  0  0  0
   -6.3127   -2.3642   -0.1962 C   0  0  0  0  0  0  0  0  0  0  0  0
   -7.2466   -1.9940    1.2358 S   0  0  0  0  0  0  0  0  0  0  0  0
   -5.2361   -1.5196   -0.5817 C   0  0  0  0  0  0  0  0  0  0  0  0
   -4.7656   -0.4307    0.0858 C   0  0  0  0  0  0  0  0  0  0  0  0
   -3.5603    0.0879   -0.4470 C   0  0  0  0  0  0  0  0  0  0  0  0
   -2.7531    1.1078    0.0936 C   0  0  0  0  0  0  0  0  0  0  0  0
   -3.1174    1.8280    1.2969 C   0  0  0  0  0  0  0  0  0  0  0  0
   -2.3005    2.1968    2.3291 C   0  0  0  0  0  0  0  0  0  0  0  0
   -2.9710    2.8974    3.3502 C   0  0  0  0  0  0  0  0  0  0  0  0
   -4.2969    3.0784    3.1037 C   0  0  0  0  0  0  0  0  0  0  0  0
   -5.3064    3.8058    3.9230 C   0  0  0  0  0  0  0  0  0  0  0  0
   -5.6423    5.1658    3.3073 C   0  0  0  0  0  0  0  0  0  0  0  0
   -4.7462    2.3712    1.5884 S   0  0  0  0  0  0  0  0  0  0  0  0
   -1.5528    1.3545   -0.5650 C   0  0  0  0  0  0  0  0  0  0  0  0
   -1.1362    0.6437   -1.7171 C   0  0  0  0  0  0  0  0  0  0  0  0
   -1.9272   -0.4013   -2.2395 C   0  0  0  0  0  0  0  0  0  0  0  0
   -1.5114   -1.2148   -3.3631 C   0  0  0  0  0  0  0  0  0  0  0  0
   -2.2977   -1.7940   -4.3208 C   0  0  0  0  0  0  0  0  0  0  0  0
   -1.5774   -2.5768   -5.2438 C   0  0  0  0  0  0  0  0  0  0  0  0
   -0.2393   -2.6138   -4.9991 C   0  0  0  0  0  0  0  0  0  0  0  0
    0.8301   -3.3022   -5.7773 C   0  0  0  0  0  0  0  0  0  0  0  0
    1.7524   -4.1335   -4.8874 C   0  0  0  0  0  0  0  0  0  0  0  0
    0.1567   -1.6657   -3.6042 S   0  0  0  0  0  0  0  0  0  0  0  0
   -3.1280   -0.6446   -1.5803 C   0  0  0  0  0  0  0  0  0  0  0  0
   -4.2343   -1.9413   -1.9516 S   0  0  0  0  0  0  0  0  0  0  0  0
    0.1005    1.1224   -2.2066 C   0  0  0  0  0  0  0  0  0  0  0  0
    0.6412    2.1293   -1.4604 C   0  0  0  0  0  0  0  0  0  0  0  0
   -0.3834    2.5682   -0.1139 S   0  0  0  0  0  0  0  0  0  0  0  0
    1.9196    2.7280   -1.6679 C   0  0  0  0  0  0  0  0  0  0  0  0
    2.8475    2.3292   -2.5856 C   0  0  0  0  0  0  0  0  0  0  0  0
    4.0634    3.0475   -2.5214 C   0  0  0  0  0  0  0  0  0  0  0  0
    5.2312    2.8361   -3.2818 C   0  0  0  0  0  0  0  0  0  0  0  0
    5.3442    1.7699   -4.2569 C   0  0  0  0  0  0  0  0  0  0  0  0
    5.9907    1.7934   -5.4612 C   0  0  0  0  0  0  0  0  0  0  0  0
    5.9423    0.5649   -6.1494 C   0  0  0  0  0  0  0  0  0  0  0  0
    5.2708   -0.4088   -5.4769 C   0  0  0  0  0  0  0  0  0  0  0  0
    5.0225   -1.8221   -5.8788 C   0  0  0  0  0  0  0  0  0  0  0  0
    5.7332   -2.8062   -4.9488 C   0  0  0  0  0  0  0  0  0  0  0  0
    4.6763    0.1857   -3.9624 S   0  0  0  0  0  0  0  0  0  0  0  0
    6.2927    3.6963   -3.0229 C   0  0  0  0  0  0  0  0  0  0  0  0
    6.2516    4.7202   -2.0444 C   0  0  0  0  0  0  0  0  0  0  0  0
    5.0924    4.9115   -1.2663 C   0  0  0  0  0  0  0  0  0  0  0  0
    5.0053    5.9068   -0.2173 C   0  0  0  0  0  0  0  0  0  0  0  0
    3.9274    6.6787    0.1168 C   0  0  0  0  0  0  0  0  0  0  0  0
    4.1584    7.5122    1.2282 C   0  0  0  0  0  0  0  0  0  0  0  0
    5.4045    7.3782    1.7581 C   0  0  0  0  0  0  0  0  0  0  0  0
    5.9875    8.0591    2.9481 C   0  0  0  0  0  0  0  0  0  0  0  0
    6.0787    7.1075    4.1429 C   0  0  0  0  0  0  0  0  0  0  0  0
    6.3290    6.2089    0.8756 S   0  0  0  0  0  0  0  0  0  0  0  0
    4.0212    4.0657   -1.5385 C   0  0  0  0  0  0  0  0  0  0  0  0
    2.4949    4.0597   -0.6929 S   0  0  0  0  0  0  0  0  0  0  0  0
    7.4701    5.4423   -1.9890 C   0  0  0  0  0  0  0  0  0  0  0  0
    8.4224    4.9820   -2.8470 C   0  0  0  0  0  0  0  0  0  0  0  0
    7.8504    3.6306   -3.8035 S   0  0  0  0  0  0  0  0  0  0  0  0
    9.7486    5.4694   -3.0323 C   0  0  0  0  0  0  0  0  0  0  0  0
   10.7068    4.9693   -3.8610 C   0  0  0  0  0  0  0  0  0  0  0  0
   11.9329    5.6792   -3.8099 C   0  0  0  0  0  0  0  0  0  0  0  0
   13.1050    5.4325   -4.5480 C   0  0  0  0  0  0  0  0  0  0  0  0
   13.1430    4.3971   -5.5612 C   0  0  0  0  0  0  0  0  0  0  0  0
   12.1964    4.1094   -6.5040 C   0  0  0  0  0  0  0  0  0  0  0  0
   12.5490    3.0285   -7.3358 C   0  0  0  0  0  0  0  0  0  0  0  0
   13.7589    2.4845   -7.0325 C   0  0  0  0  0  0  0  0  0  0  0  0
   14.4306    1.3101   -7.6565 C   0  0  0  0  0  0  0  0  0  0  0  0
   14.3283    0.0734   -6.7610 C   0  0  0  0  0  0  0  0  0  0  0  0
   14.4977    3.3129   -5.7017 S   0  0  0  0  0  0  0  0  0  0  0  0
   14.1977    6.2441   -4.2613 C   0  0  0  0  0  0  0  0  0  0  0  0
   14.1551    7.3051   -3.3270 C   0  0  0  0  0  0  0  0  0  0  0  0
   12.9705    7.5789   -2.6193 C   0  0  0  0  0  0  0  0  0  0  0  0
   12.8509    8.6816   -1.6850 C   0  0  0  0  0  0  0  0  0  0  0  0
   12.2070    8.6988   -0.4804 C   0  0  0  0  0  0  0  0  0  0  0  0
   12.2412    9.9565    0.1543 C   0  0  0  0  0  0  0  0  0  0  0  0
   12.8918   10.9105   -0.5647 C   0  0  0  0  0  0  0  0  0  0  0  0
   13.1526   12.3326   -0.2050 C   0  0  0  0  0  0  0  0  0  0  0  0
   14.6265   12.5584    0.1377 C   0  0  0  0  0  0  0  0  0  0  0  0
   13.4965   10.2579   -2.0520 S   0  0  0  0  0  0  0  0  0  0  0  0
   11.8913    6.7373   -2.8713 C   0  0  0  0  0  0  0  0  0  0  0  0
   10.3197    6.8533   -2.1215 S   0  0  0  0  0  0  0  0  0  0  0  0
   15.4150    7.9671   -3.2331 C   0  0  0  0  0  0  0  0  0  0  0  0
   16.3431    7.4543   -4.0652 C   0  0  0  0  0  0  0  0  0  0  0  0
   15.7654    6.1315   -5.0161 S   0  0  0  0  0  0  0  0  0  0  0  0
   -2.2618   -1.7266    1.3459 H   0  0  0  0  0  0  0  0  0  0  0  0
   -2.8257   -4.0745    0.4326 H   0  0  0  0  0  0  0  0  0  0  0  0
   -4.6660   -8.4020    1.5005 H   0  0  0  0  0  0  0  0  0  0  0  0
   -4.0662   -9.2818   -0.8452 H   0  0  0  0  0  0  0  0  0  0  0  0
   -4.0945   -8.2260   -3.4118 H   0  0  0  0  0  0  0  0  0  0  0  0
   -2.4892   -7.6255   -3.0011 H   0  0  0  0  0  0  0  0  0  0  0  0
   -4.8689   -5.8679   -3.7656 H   0  0  0  0  0  0  0  0  0  0  0  0
   -3.5053   -6.2701   -4.8151 H   0  0  0  0  0  0  0  0  0  0  0  0
   -3.2514   -5.2809   -3.3748 H   0  0  0  0  0  0  0  0  0  0  0  0
   -6.0234   -4.1225    6.9204 H   0  0  0  0  0  0  0  0  0  0  0  0
   -6.8248   -2.0458    8.2476 H   0  0  0  0  0  0  0  0  0  0  0  0
   -7.9348    0.8533    6.0762 H   0  0  0  0  0  0  0  0  0  0  0  0
   -7.7374    0.4022    7.7800 H   0  0  0  0  0  0  0  0  0  0  0  0
   -5.4915    1.3600    5.9350 H   0  0  0  0  0  0  0  0  0  0  0  0
   -5.3125    0.9556    7.6429 H   0  0  0  0  0  0  0  0  0  0  0  0
   -6.2897    2.3491    7.1660 H   0  0  0  0  0  0  0  0  0  0  0  0
   -7.4485   -5.4043    5.7389 H   0  0  0  0  0  0  0  0  0  0  0  0
   -9.0111  -10.3008    7.7564 H   0  0  0  0  0  0  0  0  0  0  0  0
  -11.5178   -9.6443    2.3316 H   0  0  0  0  0  0  0  0  0  0  0  0
  -12.0806  -11.3904    3.9593 H   0  0  0  0  0  0  0  0  0  0  0  0
  -11.7323  -12.1927    6.0806 H   0  0  0  0  0  0  0  0  0  0  0  0
  -10.0301   -6.0049    3.9796 H   0  0  0  0  0  0  0  0  0  0  0  0
   -9.5802   -1.3578    2.2315 H   0  0  0  0  0  0  0  0  0  0  0  0
  -10.3094   -0.2984    4.4557 H   0  0  0  0  0  0  0  0  0  0  0  0
   -9.4703   -2.0588    7.4426 H   0  0  0  0  0  0  0  0  0  0  0  0
  -11.0333   -2.8213    7.1700 H   0  0  0  0  0  0  0  0  0  0  0  0
  -11.3515   -0.5930    8.1558 H   0  0  0  0  0  0  0  0  0  0  0  0
  -10.4227    0.1606    6.8604 H   0  0  0  0  0  0  0  0  0  0  0  0
  -11.9847   -0.5870    6.5082 H   0  0  0  0  0  0  0  0  0  0  0  0
   -7.9228   -4.7669   -2.9069 H   0  0  0  0  0  0  0  0  0  0  0  0
   -7.3193   -6.5357   -4.7049 H   0  0  0  0  0  0  0  0  0  0  0  0
   -6.4740   -9.0350   -4.8396 H   0  0  0  0  0  0  0  0  0  0  0  0
   -6.1789   -9.8603   -3.2971 H   0  0  0  0  0  0  0  0  0  0  0  0
   -8.9140   -9.5364   -4.6206 H   0  0  0  0  0  0  0  0  0  0  0  0
   -8.6069  -10.3497   -3.0842 H   0  0  0  0  0  0  0  0  0  0  0  0
   -7.9561  -11.0216   -4.5845 H   0  0  0  0  0  0  0  0  0  0  0  0
   -6.1868   -3.9464   -1.6262 H   0  0  0  0  0  0  0  0  0  0  0  0
   -5.2528   -0.0510    0.9650 H   0  0  0  0  0  0  0  0  0  0  0  0
   -1.2566    1.9440    2.3750 H   0  0  0  0  0  0  0  0  0  0  0  0
   -2.4839    3.2510    4.2418 H   0  0  0  0  0  0  0  0  0  0  0  0
   -4.9065    3.9467    4.9296 H   0  0  0  0  0  0  0  0  0  0  0  0
   -6.2198    3.2101    3.9949 H   0  0  0  0  0  0  0  0  0  0  0  0
   -4.7466    5.7785    3.2331 H   0  0  0  0  0  0  0  0  0  0  0  0
   -6.3726    5.6887    3.9199 H   0  0  0  0  0  0  0  0  0  0  0  0
   -6.0542    5.0348    2.3092 H   0  0  0  0  0  0  0  0  0  0  0  0
   -3.3583   -1.6355   -4.3891 H   0  0  0  0  0  0  0  0  0  0  0  0
   -2.0408   -3.0933   -6.0660 H   0  0  0  0  0  0  0  0  0  0  0  0
    1.4261   -2.5525   -6.3092 H   0  0  0  0  0  0  0  0  0  0  0  0
    0.3563   -3.9408   -6.5264 H   0  0  0  0  0  0  0  0  0  0  0  0
    2.5112   -4.6296   -5.4879 H   0  0  0  0  0  0  0  0  0  0  0  0
    2.2468   -3.4971   -4.1566 H   0  0  0  0  0  0  0  0  0  0  0  0
    1.1818   -4.8902   -4.3540 H   0  0  0  0  0  0  0  0  0  0  0  0
    0.5752    0.7445   -3.0908 H   0  0  0  0  0  0  0  0  0  0  0  0
    2.6638    1.5351   -3.2828 H   0  0  0  0  0  0  0  0  0  0  0  0
    6.4563    2.6748   -5.8631 H   0  0  0  0  0  0  0  0  0  0  0  0
    6.3889    0.4124   -7.1162 H   0  0  0  0  0  0  0  0  0  0  0  0
    3.9485   -2.0249   -5.8547 H   0  0  0  0  0  0  0  0  0  0  0  0
    5.3733   -1.9604   -6.9038 H   0  0  0  0  0  0  0  0  0  0  0  0
    6.8064   -2.6297   -4.9597 H   0  0  0  0  0  0  0  0  0  0  0  0
    5.3738   -2.6859   -3.9293 H   0  0  0  0  0  0  0  0  0  0  0  0
    5.5453   -3.8292   -5.2655 H   0  0  0  0  0  0  0  0  0  0  0  0
    3.0067    6.6781   -0.4378 H   0  0  0  0  0  0  0  0  0  0  0  0
    3.4221    8.1920    1.6194 H   0  0  0  0  0  0  0  0  0  0  0  0
    5.3584    8.9139    3.2058 H   0  0  0  0  0  0  0  0  0  0  0  0
    6.9875    8.4288    2.7077 H   0  0  0  0  0  0  0  0  0  0  0  0
    5.0913    6.7337    4.4044 H   0  0  0  0  0  0  0  0  0  0  0  0
    6.7158    6.2598    3.9006 H   0  0  0  0  0  0  0  0  0  0  0  0
    6.4962    7.6222    5.0047 H   0  0  0  0  0  0  0  0  0  0  0  0
    7.6462    6.2818   -1.3414 H   0  0  0  0  0  0  0  0  0  0  0  0
   10.5445    4.0997   -4.4717 H   0  0  0  0  0  0  0  0  0  0  0  0
   11.2939    4.6819   -6.6240 H   0  0  0  0  0  0  0  0  0  0  0  0
   11.9258    2.6707   -8.1366 H   0  0  0  0  0  0  0  0  0  0  0  0
   13.9589    1.1061   -8.6203 H   0  0  0  0  0  0  0  0  0  0  0  0
   15.4845    1.5391   -7.8314 H   0  0  0  0  0  0  0  0  0  0  0  0
   13.2855   -0.1795   -6.5833 H   0  0  0  0  0  0  0  0  0  0  0  0
   14.8178   -0.7756   -7.2317 H   0  0  0  0  0  0  0  0  0  0  0  0
   14.8055    0.2639   -5.8024 H   0  0  0  0  0  0  0  0  0  0  0  0
   11.7515    7.8288   -0.0432 H   0  0  0  0  0  0  0  0  0  0  0  0
   11.7924   10.1465    1.1133 H   0  0  0  0  0  0  0  0  0  0  0  0
   12.8770   12.9809   -1.0408 H   0  0  0  0  0  0  0  0  0  0  0  0
   12.5299   12.5965    0.6525 H   0  0  0  0  0  0  0  0  0  0  0  0
   14.9207   11.9299    0.9754 H   0  0  0  0  0  0  0  0  0  0  0  0
   14.7975   13.5981    0.4053 H   0  0  0  0  0  0  0  0  0  0  0  0
   15.2529   12.3113   -0.7166 H   0  0  0  0  0  0  0  0  0  0  0  0
   15.6111    8.7824   -2.5618 H   0  0  0  0  0  0  0  0  0  0  0  0
   17.3622    7.7656   -4.1870 H   0  0  0  0  0  0  0  0  0  0  0  0
  1  2  2  0  0  0  0
  2  3  1  0  0  0  0
  3  4  2  0  0  0  0
  4  5  1  0  0  0  0
  5  6  2  0  0  0  0
  6  7  1  0  0  0  0
  7  8  2  0  0  0  0
  8  9  1  0  0  0  0
  9 10  1  0  0  0  0
  8 11  1  0  0  0  0
  4 12  1  0  0  0  0
 12 13  2  0  0  0  0
 13 14  1  0  0  0  0
 14 15  1  0  0  0  0
 15 16  2  0  0  0  0
 16 17  1  0  0  0  0
 17 18  2  0  0  0  0
 18 19  1  0  0  0  0
 19 20  1  0  0  0  0
 18 21  1  0  0  0  0
 14 22  2  0  0  0  0
 22 23  1  0  0  0  0
 13 24  1  0  0  0  0
 24 25  2  0  0  0  0
 25 26  1  0  0  0  0
 25 27  1  0  0  0  0
 27 28  1  0  0  0  0
 28 29  1  0  0  0  0
 29 30  2  0  0  0  0
 30 31  1  0  0  0  0
 31 32  1  0  0  0  0
 32 33  2  0  0  0  0
 33 34  1  0  0  0  0
 34 35  2  0  0  0  0
 35 36  1  0  0  0  0
 32 37  1  0  0  0  0
 37 38  2  0  0  0  0
 38 39  1  0  0  0  0
 39 40  2  0  0  0  0
 40 41  1  0  0  0  0
 41 42  2  0  0  0  0
 42 43  1  0  0  0  0
 43 44  2  0  0  0  0
 44 45  1  0  0  0  0
 45 46  1  0  0  0  0
 44 47  1  0  0  0  0
 40 48  1  0  0  0  0
 48 49  2  0  0  0  0
 49 50  1  0  0  0  0
 50 51  1  0  0  0  0
 51 52  2  0  0  0  0
 52 53  1  0  0  0  0
 53 54  2  0  0  0  0
 54 55  1  0  0  0  0
 55 56  1  0  0  0  0
 54 57  1  0  0  0  0
 50 58  2  0  0  0  0
 58 59  1  0  0  0  0
 49 60  1  0  0  0  0
 60 61  2  0  0  0  0
 61 62  1  0  0  0  0
 61 63  1  0  0  0  0
 63 64  2  0  0  0  0
 64 65  1  0  0  0  0
 65 66  2  0  0  0  0
 66 67  1  0  0  0  0
 67 68  2  0  0  0  0
 68 69  1  0  0  0  0
 69 70  2  0  0  0  0
 70 71  1  0  0  0  0
 71 72  1  0  0  0  0
 70 73  1  0  0  0  0
 66 74  1  0  0  0  0
 74 75  2  0  0  0  0
 75 76  1  0  0  0  0
 76 77  1  0  0  0  0
 77 78  2  0  0  0  0
 78 79  1  0  0  0  0
 79 80  2  0  0  0  0
 80 81  1  0  0  0  0
 81 82  1  0  0  0  0
 80 83  1  0  0  0  0
 76 84  2  0  0  0  0
 84 85  1  0  0  0  0
 75 86  1  0  0  0  0
 86 87  2  0  0  0  0
 87 88  1  0  0  0  0
 87 89  1  0  0  0  0
 89 90  2  0  0  0  0
 90 91  1  0  0  0  0
 91 92  2  0  0  0  0
 92 93  1  0  0  0  0
 93 94  2  0  0  0  0
 94 95  1  0  0  0  0
 95 96  2  0  0  0  0
 96 97  1  0  0  0  0
 97 98  1  0  0  0  0
 96 99  1  0  0  0  0
 92100  1  0  0  0  0
100101  2  0  0  0  0
101102  1  0  0  0  0
102103  1  0  0  0  0
103104  2  0  0  0  0
104105  1  0  0  0  0
105106  2  0  0  0  0
106107  1  0  0  0  0
107108  1  0  0  0  0
106109  1  0  0  0  0
102110  2  0  0  0  0
110111  1  0  0  0  0
101112  1  0  0  0  0
112113  2  0  0  0  0
113114  1  0  0  0  0
113115  1  0  0  0  0
115116  2  0  0  0  0
116117  1  0  0  0  0
117118  2  0  0  0  0
118119  1  0  0  0  0
119120  2  0  0  0  0
120121  1  0  0  0  0
121122  2  0  0  0  0
122123  1  0  0  0  0
123124  1  0  0  0  0
122125  1  0  0  0  0
118126  1  0  0  0  0
126127  2  0  0  0  0
127128  1  0  0  0  0
128129  1  0  0  0  0
129130  2  0  0  0  0
130131  1  0  0  0  0
131132  2  0  0  0  0
132133  1  0  0  0  0
133134  1  0  0  0  0
132135  1  0  0  0  0
128136  2  0  0  0  0
136137  1  0  0  0  0
127138  1  0  0  0  0
138139  2  0  0  0  0
139140  1  0  0  0  0
 23  1  1  0  0  0  0
 31 27  2  0  0  0  0
 59 37  1  0  0  0  0
 85 63  1  0  0  0  0
111 89  1  0  0  0  0
137115  1  0  0  0  0
 22  3  1  0  0  0  0
 35 30  1  0  0  0  0
 58 39  1  0  0  0  0
 84 65  1  0  0  0  0
110 91  1  0  0  0  0
136117  1  0  0  0  0
 11  5  1  0  0  0  0
 26 12  1  0  0  0  0
 47 41  1  0  0  0  0
 62 48  1  0  0  0  0
 73 67  1  0  0  0  0
 88 74  1  0  0  0  0
 99 93  1  0  0  0  0
114100  1  0  0  0  0
125119  1  0  0  0  0
140126  1  0  0  0  0
 21 15  1  0  0  0  0
 57 51  1  0  0  0  0
 83 77  1  0  0  0  0
109103  1  0  0  0  0
135129  1  0  0  0  0
  1141  1  0  0  0  0
  2142  1  0  0  0  0
  6143  1  0  0  0  0
  7144  1  0  0  0  0
  9145  1  0  0  0  0
  9146  1  0  0  0  0
 10147  1  0  0  0  0
 10148  1  0  0  0  0
 10149  1  0  0  0  0
 16150  1  0  0  0  0
 17151  1  0  0  0  0
 19152  1  0  0  0  0
 19153  1  0  0  0  0
 20154  1  0  0  0  0
 20155  1  0  0  0  0
 20156  1  0  0  0  0
 24157  1  0  0  0  0
 29158  1  0  0  0  0
 33159  1  0  0  0  0
 34160  1  0  0  0  0
 36161  1  0  0  0  0
 38162  1  0  0  0  0
 42163  1  0  0  0  0
 43164  1  0  0  0  0
 45165  1  0  0  0  0
 45166  1  0  0  0  0
 46167  1  0  0  0  0
 46168  1  0  0  0  0
 46169  1  0  0  0  0
 52170  1  0  0  0  0
 53171  1  0  0  0  0
 55172  1  0  0  0  0
 55173  1  0  0  0  0
 56174  1  0  0  0  0
 56175  1  0  0  0  0
 56176  1  0  0  0  0
 60177  1  0  0  0  0
 64178  1  0  0  0  0
 68179  1  0  0  0  0
 69180  1  0  0  0  0
 71181  1  0  0  0  0
 71182  1  0  0  0  0
 72183  1  0  0  0  0
 72184  1  0  0  0  0
 72185  1  0  0  0  0
 78186  1  0  0  0  0
 79187  1  0  0  0  0
 81188  1  0  0  0  0
 81189  1  0  0  0  0
 82190  1  0  0  0  0
 82191  1  0  0  0  0
 82192  1  0  0  0  0
 86193  1  0  0  0  0
 90194  1  0  0  0  0
 94195  1  0  0  0  0
 95196  1  0  0  0  0
 97197  1  0  0  0  0
 97198  1  0  0  0  0
 98199  1  0  0  0  0
 98200  1  0  0  0  0
 98201  1  0  0  0  0
104202  1  0  0  0  0
105203  1  0  0  0  0
107204  1  0  0  0  0
107205  1  0  0  0  0
108206  1  0  0  0  0
108207  1  0  0  0  0
108208  1  0  0  0  0
112209  1  0  0  0  0
116210  1  0  0  0  0
120211  1  0  0  0  0
121212  1  0  0  0  0
123213  1  0  0  0  0
123214  1  0  0  0  0
124215  1  0  0  0  0
124216  1  0  0  0  0
124217  1  0  0  0  0
130218  1  0  0  0  0
131219  1  0  0  0  0
133220  1  0  0  0  0
133221  1  0  0  0  0
134222  1  0  0  0  0
134223  1  0  0  0  0
134224  1  0  0  0  0
138225  1  0  0  0  0
139226  1  0  0  0  0
M  END
