
  xtb     02282217363D
 energy: -201.127009800789 gnorm: 0.000156451808 xtb: 6.4.1 (unknown)
125139  0     0  0            999 V2000
    9.4645    4.5700    2.2629 C   0  0  0  0  0  0  0  0  0  0  0  0
    7.9506    4.2686    3.0296 S   0  0  0  0  0  0  0  0  0  0  0  0
    7.1650    4.2473    1.4939 C   0  0  0  0  0  0  0  0  0  0  0  0
    5.7938    4.0437    1.1782 C   0  0  0  0  0  0  0  0  0  0  0  0
    5.4250    4.0873   -0.1571 C   0  0  0  0  0  0  0  0  0  0  0  0
    7.0378    4.4162   -1.2403 Ge  0  0  0  0  0  4  0  0  0  0  0  0
    6.9976    6.1670   -2.2197 C   0  0  0  0  0  0  0  0  0  0  0  0
    8.3219    6.4860   -2.8951 C   0  0  0  0  0  0  0  0  0  0  0  0
    7.5195    2.8580   -2.4094 C   0  0  0  0  0  0  0  0  0  0  0  0
    6.5241    2.6536   -3.5406 C   0  0  0  0  0  0  0  0  0  0  0  0
    8.0464    4.4650    0.4503 C   0  0  0  0  0  0  0  0  0  0  0  0
    9.3628    4.6478    0.9080 C   0  0  0  0  0  0  0  0  0  0  0  0
    4.0593    3.8666   -0.3349 C   0  0  0  0  0  0  0  0  0  0  0  0
    3.3794    3.6524    0.8477 C   0  0  0  0  0  0  0  0  0  0  0  0
    4.4571    3.7298    2.2192 S   0  0  0  0  0  0  0  0  0  0  0  0
    1.9967    3.3654    1.0158 C   0  0  0  0  0  0  0  0  0  0  0  0
    1.3278    3.0503    2.5969 S   0  0  0  0  0  0  0  0  0  0  0  0
   -0.2223    2.7495    1.9049 C   0  0  0  0  0  0  0  0  0  0  0  0
   -1.4170    2.2977    2.5200 C   0  0  0  0  0  0  0  0  0  0  0  0
   -2.5036    2.0235    1.7039 C   0  0  0  0  0  0  0  0  0  0  0  0
   -2.0256    2.4709   -0.1535 Ge  0  0  0  0  0  4  0  0  0  0  0  0
   -2.9972    4.1030   -0.7999 C   0  0  0  0  0  0  0  0  0  0  0  0
   -2.4115    4.6548   -2.0904 C   0  0  0  0  0  0  0  0  0  0  0  0
   -2.0873    0.9508   -1.4581 C   0  0  0  0  0  0  0  0  0  0  0  0
   -3.5103    0.6247   -1.8799 C   0  0  0  0  0  0  0  0  0  0  0  0
   -0.2233    2.9013    0.5253 C   0  0  0  0  0  0  0  0  0  0  0  0
    1.0325    3.2530    0.0331 C   0  0  0  0  0  0  0  0  0  0  0  0
   -3.5945    1.5379    2.4251 C   0  0  0  0  0  0  0  0  0  0  0  0
   -3.3554    1.4352    3.7765 C   0  0  0  0  0  0  0  0  0  0  0  0
   -1.7430    1.9704    4.1802 S   0  0  0  0  0  0  0  0  0  0  0  0
   -4.2695    0.9854    4.7817 C   0  0  0  0  0  0  0  0  0  0  0  0
   -4.4555    1.8960    6.2444 S   0  0  0  0  0  0  0  0  0  0  0  0
   -5.7999    0.9697    6.7355 C   0  0  0  0  0  0  0  0  0  0  0  0
   -6.1102   -0.0212    5.8279 C   0  0  0  0  0  0  0  0  0  0  0  0
   -5.1954   -0.0518    4.7185 C   0  0  0  0  0  0  0  0  0  0  0  0
   -5.3083   -1.0936    3.7468 C   0  0  0  0  0  0  0  0  0  0  0  0
   -6.4106   -1.9134    3.8116 C   0  0  0  0  0  0  0  0  0  0  0  0
   -7.3603   -1.8233    4.8406 C   0  0  0  0  0  0  0  0  0  0  0  0
   -7.2046   -0.9325    5.8679 C   0  0  0  0  0  0  0  0  0  0  0  0
   -8.0978   -0.9300    6.8936 O   0  0  0  0  0  0  0  0  0  0  0  0
   -4.2549   -1.3667    2.7900 C   0  0  0  0  0  0  0  0  0  0  0  0
   -4.6333   -1.8616    1.1611 S   0  0  0  0  0  0  0  0  0  0  0  0
   -2.9583   -2.0595    0.8081 C   0  0  0  0  0  0  0  0  0  0  0  0
   -2.3288   -2.5027   -0.3834 C   0  0  0  0  0  0  0  0  0  0  0  0
   -0.9496   -2.6450   -0.3754 C   0  0  0  0  0  0  0  0  0  0  0  0
   -0.2731   -2.0782    1.3889 Ge  0  0  0  0  0  4  0  0  0  0  0  0
    0.5868   -3.5602    2.4295 C   0  0  0  0  0  0  0  0  0  0  0  0
   -0.2973   -4.7945    2.4894 C   0  0  0  0  0  0  0  0  0  0  0  0
    0.8345   -0.4106    1.3100 C   0  0  0  0  0  0  0  0  0  0  0  0
    2.2076   -0.6219    0.6947 C   0  0  0  0  0  0  0  0  0  0  0  0
   -2.1524   -1.7667    1.8948 C   0  0  0  0  0  0  0  0  0  0  0  0
   -2.8994   -1.3776    3.0107 C   0  0  0  0  0  0  0  0  0  0  0  0
   -0.4695   -3.1177   -1.5964 C   0  0  0  0  0  0  0  0  0  0  0  0
   -1.4593   -3.3614   -2.5259 C   0  0  0  0  0  0  0  0  0  0  0  0
   -3.0280   -2.9320   -1.8942 S   0  0  0  0  0  0  0  0  0  0  0  0
   -1.2621   -3.7797   -3.8779 C   0  0  0  0  0  0  0  0  0  0  0  0
    0.1885   -3.2156   -4.6596 S   0  0  0  0  0  0  0  0  0  0  0  0
   -0.2610   -3.8812   -6.1588 C   0  0  0  0  0  0  0  0  0  0  0  0
   -1.4745   -4.5231   -6.0869 C   0  0  0  0  0  0  0  0  0  0  0  0
   -2.0476   -4.5115   -4.7673 C   0  0  0  0  0  0  0  0  0  0  0  0
   -3.2660   -5.2282   -4.5482 C   0  0  0  0  0  0  0  0  0  0  0  0
   -3.9161   -5.7497   -5.6413 C   0  0  0  0  0  0  0  0  0  0  0  0
   -3.3902   -5.6900   -6.9430 C   0  0  0  0  0  0  0  0  0  0  0  0
   -2.1676   -5.1262   -7.1740 C   0  0  0  0  0  0  0  0  0  0  0  0
   -1.5688   -5.0929   -8.3943 O   0  0  0  0  0  0  0  0  0  0  0  0
   -3.8114   -5.4673   -3.2258 C   0  0  0  0  0  0  0  0  0  0  0  0
   -5.4915   -5.1992   -2.9105 S   0  0  0  0  0  0  0  0  0  0  0  0
   -5.3472   -5.6722   -1.2804 C   0  0  0  0  0  0  0  0  0  0  0  0
   -4.0637   -6.0581   -0.9749 C   0  0  0  0  0  0  0  0  0  0  0  0
   -3.1722   -5.9588   -2.0961 C   0  0  0  0  0  0  0  0  0  0  0  0
   -1.8240   -6.3662   -1.9545 C   0  0  0  0  0  0  0  0  0  0  0  0
   -1.3950   -6.8252   -0.7480 C   0  0  0  0  0  0  0  0  0  0  0  0
   -2.2583   -6.9006    0.3690 C   0  0  0  0  0  0  0  0  0  0  0  0
   -3.5672   -6.5244    0.2754 C   0  0  0  0  0  0  0  0  0  0  0  0
   -4.4410   -6.5791    1.3163 O   0  0  0  0  0  0  0  0  0  0  0  0
   10.3415    4.6710    2.8719 H   0  0  0  0  0  0  0  0  0  0  0  0
    6.1967    6.1309   -2.9580 H   0  0  0  0  0  0  0  0  0  0  0  0
    6.7433    6.9476   -1.5032 H   0  0  0  0  0  0  0  0  0  0  0  0
    8.5736    5.7238   -3.6298 H   0  0  0  0  0  0  0  0  0  0  0  0
    8.2724    7.4473   -3.4042 H   0  0  0  0  0  0  0  0  0  0  0  0
    9.1235    6.5286   -2.1607 H   0  0  0  0  0  0  0  0  0  0  0  0
    7.5621    1.9681   -1.7819 H   0  0  0  0  0  0  0  0  0  0  0  0
    8.5196    3.0205   -2.8107 H   0  0  0  0  0  0  0  0  0  0  0  0
    6.8048    1.7958   -4.1496 H   0  0  0  0  0  0  0  0  0  0  0  0
    6.4854    3.5304   -4.1841 H   0  0  0  0  0  0  0  0  0  0  0  0
    5.5270    2.4788   -3.1422 H   0  0  0  0  0  0  0  0  0  0  0  0
   10.2039    4.8283    0.2611 H   0  0  0  0  0  0  0  0  0  0  0  0
    3.5748    3.8597   -1.2952 H   0  0  0  0  0  0  0  0  0  0  0  0
   -2.9479    4.8564   -0.0138 H   0  0  0  0  0  0  0  0  0  0  0  0
   -4.0477    3.8487   -0.9401 H   0  0  0  0  0  0  0  0  0  0  0  0
   -2.9533    5.5439   -2.4093 H   0  0  0  0  0  0  0  0  0  0  0  0
   -2.4690    3.9161   -2.8874 H   0  0  0  0  0  0  0  0  0  0  0  0
   -1.3665    4.9227   -1.9491 H   0  0  0  0  0  0  0  0  0  0  0  0
   -1.4882    1.2215   -2.3278 H   0  0  0  0  0  0  0  0  0  0  0  0
   -1.6215    0.0783   -1.0004 H   0  0  0  0  0  0  0  0  0  0  0  0
   -4.1030    0.3191   -1.0203 H   0  0  0  0  0  0  0  0  0  0  0  0
   -3.9881    1.4908   -2.3340 H   0  0  0  0  0  0  0  0  0  0  0  0
   -3.5193   -0.1884   -2.6032 H   0  0  0  0  0  0  0  0  0  0  0  0
    1.2424    3.4082   -1.0103 H   0  0  0  0  0  0  0  0  0  0  0  0
   -4.5423    1.2798    1.9859 H   0  0  0  0  0  0  0  0  0  0  0  0
   -6.2887    1.2242    7.6564 H   0  0  0  0  0  0  0  0  0  0  0  0
   -6.5284   -2.6890    3.0693 H   0  0  0  0  0  0  0  0  0  0  0  0
   -8.2020   -2.4964    4.8583 H   0  0  0  0  0  0  0  0  0  0  0  0
   -7.8687   -0.2450    7.5309 H   0  0  0  0  0  0  0  0  0  0  0  0
    1.5397   -3.8035    1.9600 H   0  0  0  0  0  0  0  0  0  0  0  0
    0.8024   -3.1963    3.4343 H   0  0  0  0  0  0  0  0  0  0  0  0
   -1.2427   -4.5617    2.9767 H   0  0  0  0  0  0  0  0  0  0  0  0
    0.1912   -5.5940    3.0450 H   0  0  0  0  0  0  0  0  0  0  0  0
   -0.5142   -5.1493    1.4839 H   0  0  0  0  0  0  0  0  0  0  0  0
    0.9342   -0.0211    2.3228 H   0  0  0  0  0  0  0  0  0  0  0  0
    0.2790    0.3268    0.7309 H   0  0  0  0  0  0  0  0  0  0  0  0
    2.7893   -1.3299    1.2814 H   0  0  0  0  0  0  0  0  0  0  0  0
    2.7540    0.3194    0.6556 H   0  0  0  0  0  0  0  0  0  0  0  0
    2.1170   -1.0073   -0.3187 H   0  0  0  0  0  0  0  0  0  0  0  0
   -2.4642   -1.1381    3.9654 H   0  0  0  0  0  0  0  0  0  0  0  0
    0.5693   -3.3124   -1.8022 H   0  0  0  0  0  0  0  0  0  0  0  0
    0.3642   -3.7673   -7.0202 H   0  0  0  0  0  0  0  0  0  0  0  0
   -4.8523   -6.2664   -5.4897 H   0  0  0  0  0  0  0  0  0  0  0  0
   -3.9465   -6.1344   -7.7571 H   0  0  0  0  0  0  0  0  0  0  0  0
   -2.1375   -5.5251   -9.0433 H   0  0  0  0  0  0  0  0  0  0  0  0
   -6.1964   -5.6492   -0.6291 H   0  0  0  0  0  0  0  0  0  0  0  0
   -1.1618   -6.3217   -2.8045 H   0  0  0  0  0  0  0  0  0  0  0  0
   -0.3712   -7.1461   -0.6238 H   0  0  0  0  0  0  0  0  0  0  0  0
   -1.8727   -7.2731    1.3088 H   0  0  0  0  0  0  0  0  0  0  0  0
   -3.9863   -6.9074    2.1017 H   0  0  0  0  0  0  0  0  0  0  0  0
  1  2  1  0  0  0  0
  2  3  1  0  0  0  0
  3  4  1  0  0  0  0
  4  5  2  0  0  0  0
  5  6  1  0  0  0  0
  6  7  1  0  0  0  0
  7  8  1  0  0  0  0
  6  9  1  0  0  0  0
  9 10  1  0  0  0  0
  6 11  1  0  0  0  0
 11 12  1  0  0  0  0
  5 13  1  0  0  0  0
 13 14  2  0  0  0  0
 14 15  1  0  0  0  0
 14 16  1  0  0  0  0
 16 17  1  0  0  0  0
 17 18  1  0  0  0  0
 18 19  1  0  0  0  0
 19 20  2  0  0  0  0
 20 21  1  0  0  0  0
 21 22  1  0  0  0  0
 22 23  1  0  0  0  0
 21 24  1  0  0  0  0
 24 25  1  0  0  0  0
 21 26  1  0  0  0  0
 26 27  1  0  0  0  0
 20 28  1  0  0  0  0
 28 29  2  0  0  0  0
 29 30  1  0  0  0  0
 29 31  1  0  0  0  0
 31 32  1  0  0  0  0
 32 33  1  0  0  0  0
 33 34  2  0  0  0  0
 34 35  1  0  0  0  0
 35 36  1  0  0  0  0
 36 37  2  0  0  0  0
 37 38  1  0  0  0  0
 38 39  2  0  0  0  0
 39 40  1  0  0  0  0
 36 41  1  0  0  0  0
 41 42  1  0  0  0  0
 42 43  1  0  0  0  0
 43 44  1  0  0  0  0
 44 45  2  0  0  0  0
 45 46  1  0  0  0  0
 46 47  1  0  0  0  0
 47 48  1  0  0  0  0
 46 49  1  0  0  0  0
 49 50  1  0  0  0  0
 46 51  1  0  0  0  0
 51 52  1  0  0  0  0
 45 53  1  0  0  0  0
 53 54  2  0  0  0  0
 54 55  1  0  0  0  0
 54 56  1  0  0  0  0
 56 57  1  0  0  0  0
 57 58  1  0  0  0  0
 58 59  2  0  0  0  0
 59 60  1  0  0  0  0
 60 61  1  0  0  0  0
 61 62  2  0  0  0  0
 62 63  1  0  0  0  0
 63 64  2  0  0  0  0
 64 65  1  0  0  0  0
 61 66  1  0  0  0  0
 66 67  1  0  0  0  0
 67 68  1  0  0  0  0
 68 69  2  0  0  0  0
 69 70  1  0  0  0  0
 70 71  1  0  0  0  0
 71 72  2  0  0  0  0
 72 73  1  0  0  0  0
 73 74  2  0  0  0  0
 74 75  1  0  0  0  0
 12  1  2  0  0  0  0
 27 16  2  0  0  0  0
 35 31  2  0  0  0  0
 52 41  2  0  0  0  0
 60 56  2  0  0  0  0
 70 66  2  0  0  0  0
 11  3  2  0  0  0  0
 26 18  2  0  0  0  0
 39 34  1  0  0  0  0
 51 43  2  0  0  0  0
 64 59  1  0  0  0  0
 74 69  1  0  0  0  0
 15  4  1  0  0  0  0
 30 19  1  0  0  0  0
 55 44  1  0  0  0  0
  1 76  1  0  0  0  0
  7 77  1  0  0  0  0
  7 78  1  0  0  0  0
  8 79  1  0  0  0  0
  8 80  1  0  0  0  0
  8 81  1  0  0  0  0
  9 82  1  0  0  0  0
  9 83  1  0  0  0  0
 10 84  1  0  0  0  0
 10 85  1  0  0  0  0
 10 86  1  0  0  0  0
 12 87  1  0  0  0  0
 13 88  1  0  0  0  0
 22 89  1  0  0  0  0
 22 90  1  0  0  0  0
 23 91  1  0  0  0  0
 23 92  1  0  0  0  0
 23 93  1  0  0  0  0
 24 94  1  0  0  0  0
 24 95  1  0  0  0  0
 25 96  1  0  0  0  0
 25 97  1  0  0  0  0
 25 98  1  0  0  0  0
 27 99  1  0  0  0  0
 28100  1  0  0  0  0
 33101  1  0  0  0  0
 37102  1  0  0  0  0
 38103  1  0  0  0  0
 40104  1  0  0  0  0
 47105  1  0  0  0  0
 47106  1  0  0  0  0
 48107  1  0  0  0  0
 48108  1  0  0  0  0
 48109  1  0  0  0  0
 49110  1  0  0  0  0
 49111  1  0  0  0  0
 50112  1  0  0  0  0
 50113  1  0  0  0  0
 50114  1  0  0  0  0
 52115  1  0  0  0  0
 53116  1  0  0  0  0
 58117  1  0  0  0  0
 62118  1  0  0  0  0
 63119  1  0  0  0  0
 65120  1  0  0  0  0
 68121  1  0  0  0  0
 71122  1  0  0  0  0
 72123  1  0  0  0  0
 73124  1  0  0  0  0
 75125  1  0  0  0  0
M  END
