
  xtb     02282217233D
 energy: -355.206419899313 gnorm: 0.000454642321 xtb: 6.4.1 (unknown)
185205  0     0  0            999 V2000
    6.6957   -3.6627   13.5333 C   0  0  0  0  0  0  0  0  0  0  0  0
    7.2257   -2.3548   13.3414 C   0  0  0  0  0  0  0  0  0  0  0  0
    7.0985   -1.2783   14.1585 C   0  0  0  0  0  0  0  0  0  0  0  0
    7.9616    0.1147   13.5190 S   0  0  0  0  0  4  0  0  0  0  0  0
    9.5100   -0.3756   14.3394 F   0  0  0  0  0  0  0  0  0  0  0  0
    8.3802   -0.7696   12.0554 C   0  0  0  0  0  0  0  0  0  0  0  0
    7.9653   -2.0580   12.1239 C   0  0  0  0  0  0  0  0  0  0  0  0
    8.1436   -3.0935   11.1576 C   0  0  0  0  0  0  0  0  0  0  0  0
    7.6043   -4.3117   11.3779 C   0  0  0  0  0  0  0  0  0  0  0  0
    6.8554   -4.6107   12.5700 C   0  0  0  0  0  0  0  0  0  0  0  0
    6.3002   -5.9576   12.7275 C   0  0  0  0  0  0  0  0  0  0  0  0
    5.4761   -6.5566   11.8579 C   0  0  0  0  0  0  0  0  0  0  0  0
    4.8746   -5.9520   10.7006 C   0  0  0  0  0  0  0  0  0  0  0  0
    4.2562   -6.6031    9.6745 C   0  0  0  0  0  0  0  0  0  0  0  0
    3.7215   -5.7406    8.6842 C   0  0  0  0  0  0  0  0  0  0  0  0
    3.0358   -6.0744    7.5017 C   0  0  0  0  0  0  0  0  0  0  0  0
    2.7020   -7.4503    7.1797 C   0  0  0  0  0  0  0  0  0  0  0  0
    2.9665   -8.1115    5.5936 S   0  0  0  0  0  0  0  0  0  0  0  0
    2.3305   -9.6586    6.0340 C   0  0  0  0  0  0  0  0  0  0  0  0
    2.2294  -10.7737    5.0519 C   0  0  0  0  0  0  0  0  0  0  0  0
    1.3036  -10.4093    3.8909 C   0  0  0  0  0  0  0  0  0  0  0  0
    1.9370   -9.6441    7.3382 C   0  0  0  0  0  0  0  0  0  0  0  0
    1.3997  -10.7064    7.9581 F   0  0  0  0  0  0  0  0  0  0  0  0
    2.1496   -8.4049    7.9890 C   0  0  0  0  0  0  0  0  0  0  0  0
    1.7887   -8.1893    9.2621 F   0  0  0  0  0  0  0  0  0  0  0  0
    2.6935   -5.0262    6.6554 C   0  0  0  0  0  0  0  0  0  0  0  0
    2.9715   -3.6672    6.9468 C   0  0  0  0  0  0  0  0  0  0  0  0
    3.6005   -3.3282    8.1591 C   0  0  0  0  0  0  0  0  0  0  0  0
    3.8550   -1.9486    8.5308 C   0  0  0  0  0  0  0  0  0  0  0  0
    5.3759   -1.4501    9.2174 S   0  0  0  0  0  0  0  0  0  0  0  0
    4.8730    0.1998    9.3603 C   0  0  0  0  0  0  0  0  0  0  0  0
    5.7675    1.2495    9.9207 C   0  0  0  0  0  0  0  0  0  0  0  0
    7.0863    1.3390    9.1554 C   0  0  0  0  0  0  0  0  0  0  0  0
    3.5977    0.3369    8.9016 C   0  0  0  0  0  0  0  0  0  0  0  0
    3.0205   -0.8686    8.4347 C   0  0  0  0  0  0  0  0  0  0  0  0
    1.7562   -0.9341    7.9957 F   0  0  0  0  0  0  0  0  0  0  0  0
    2.9402    1.5070    8.8927 F   0  0  0  0  0  0  0  0  0  0  0  0
    3.9719   -4.3803    8.9880 C   0  0  0  0  0  0  0  0  0  0  0  0
    4.7935   -4.2120   10.5087 S   0  0  0  0  0  0  0  0  0  0  0  0
    2.5646   -2.8103    5.8954 C   0  0  0  0  0  0  0  0  0  0  0  0
    1.9603   -3.4635    4.8628 C   0  0  0  0  0  0  0  0  0  0  0  0
    1.8744   -5.1910    5.1285 S   0  0  0  0  0  0  0  0  0  0  0  0
    1.4439   -2.9040    3.6585 C   0  0  0  0  0  0  0  0  0  0  0  0
    0.8241   -3.5624    2.6381 C   0  0  0  0  0  0  0  0  0  0  0  0
    0.4439   -2.7183    1.5674 C   0  0  0  0  0  0  0  0  0  0  0  0
   -0.1896   -3.0706    0.3605 C   0  0  0  0  0  0  0  0  0  0  0  0
   -0.4734   -4.4580    0.0408 C   0  0  0  0  0  0  0  0  0  0  0  0
   -2.0143   -4.9658   -0.5840 S   0  0  0  0  0  0  0  0  0  0  0  0
   -1.5350   -6.6264   -0.6667 C   0  0  0  0  0  0  0  0  0  0  0  0
   -2.4680   -7.6953   -1.1196 C   0  0  0  0  0  0  0  0  0  0  0  0
   -3.5808   -7.9333   -0.0973 C   0  0  0  0  0  0  0  0  0  0  0  0
   -0.2513   -6.7606   -0.2315 C   0  0  0  0  0  0  0  0  0  0  0  0
    0.3924   -7.9376   -0.1864 F   0  0  0  0  0  0  0  0  0  0  0  0
    0.3515   -5.5427    0.1649 C   0  0  0  0  0  0  0  0  0  0  0  0
    1.6271   -5.4717    0.5695 F   0  0  0  0  0  0  0  0  0  0  0  0
   -0.5158   -2.0339   -0.5049 C   0  0  0  0  0  0  0  0  0  0  0  0
   -0.1976   -0.6782   -0.2425 C   0  0  0  0  0  0  0  0  0  0  0  0
    0.4779   -0.3321    0.9422 C   0  0  0  0  0  0  0  0  0  0  0  0
    0.8587    1.0405    1.2239 C   0  0  0  0  0  0  0  0  0  0  0  0
    0.5638    1.7696    2.7740 S   0  0  0  0  0  0  0  0  0  0  0  0
    1.2748    3.2737    2.3015 C   0  0  0  0  0  0  0  0  0  0  0  0
    1.3813    4.4209    3.2451 C   0  0  0  0  0  0  0  0  0  0  0  0
    2.2519    4.0690    4.4518 C   0  0  0  0  0  0  0  0  0  0  0  0
    1.7150    3.1952    1.0145 C   0  0  0  0  0  0  0  0  0  0  0  0
    1.4775    1.9415    0.4013 C   0  0  0  0  0  0  0  0  0  0  0  0
    1.8779    1.6619   -0.8470 F   0  0  0  0  0  0  0  0  0  0  0  0
    2.3178    4.2115    0.3785 F   0  0  0  0  0  0  0  0  0  0  0  0
    0.7643   -1.3631    1.8280 C   0  0  0  0  0  0  0  0  0  0  0  0
    1.5737   -1.1851    3.3586 S   0  0  0  0  0  0  0  0  0  0  0  0
   -0.6479    0.1782   -1.2764 C   0  0  0  0  0  0  0  0  0  0  0  0
   -1.2577   -0.4790   -2.3026 C   0  0  0  0  0  0  0  0  0  0  0  0
   -1.3229   -2.2092   -2.0373 S   0  0  0  0  0  0  0  0  0  0  0  0
   -1.7974    0.0807   -3.4972 C   0  0  0  0  0  0  0  0  0  0  0  0
   -2.4926   -0.5654   -4.4766 C   0  0  0  0  0  0  0  0  0  0  0  0
   -2.8641    0.2741   -5.5547 C   0  0  0  0  0  0  0  0  0  0  0  0
   -3.5976   -0.0617   -6.7075 C   0  0  0  0  0  0  0  0  0  0  0  0
   -4.1290   -1.3982   -6.9157 C   0  0  0  0  0  0  0  0  0  0  0  0
   -3.1458   -2.8249   -6.7733 S   0  0  0  0  0  0  0  0  0  0  0  0
   -4.4551   -3.8789   -7.1856 C   0  0  0  0  0  0  0  0  0  0  0  0
   -4.2806   -5.3553   -7.2745 C   0  0  0  0  0  0  0  0  0  0  0  0
   -3.3157   -5.7386   -8.3970 C   0  0  0  0  0  0  0  0  0  0  0  0
   -5.5806   -3.1486   -7.4193 C   0  0  0  0  0  0  0  0  0  0  0  0
   -6.7579   -3.6992   -7.7483 F   0  0  0  0  0  0  0  0  0  0  0  0
   -5.4013   -1.7516   -7.2712 C   0  0  0  0  0  0  0  0  0  0  0  0
   -6.4051   -0.8761   -7.4070 F   0  0  0  0  0  0  0  0  0  0  0  0
   -3.8009    0.9482   -7.6409 C   0  0  0  0  0  0  0  0  0  0  0  0
   -3.2993    2.2595   -7.4683 C   0  0  0  0  0  0  0  0  0  0  0  0
   -2.6524    2.6232   -6.2752 C   0  0  0  0  0  0  0  0  0  0  0  0
   -2.2949    4.0053   -5.9989 C   0  0  0  0  0  0  0  0  0  0  0  0
   -1.4487    5.0136   -7.1329 S   0  0  0  0  0  0  0  0  0  0  0  0
   -1.4896    6.3900   -6.0897 C   0  0  0  0  0  0  0  0  0  0  0  0
   -0.8591    7.6838   -6.4720 C   0  0  0  0  0  0  0  0  0  0  0  0
    0.6669    7.6079   -6.3882 C   0  0  0  0  0  0  0  0  0  0  0  0
   -2.1197    6.0673   -4.9268 C   0  0  0  0  0  0  0  0  0  0  0  0
   -2.5776    4.7290   -4.8728 C   0  0  0  0  0  0  0  0  0  0  0  0
   -3.2768    4.2515   -3.8354 F   0  0  0  0  0  0  0  0  0  0  0  0
   -2.3032    6.9407   -3.9250 F   0  0  0  0  0  0  0  0  0  0  0  0
   -2.4353    1.6101   -5.3491 C   0  0  0  0  0  0  0  0  0  0  0  0
   -1.5807    1.7805   -3.8448 S   0  0  0  0  0  0  0  0  0  0  0  0
   -3.6192    3.0918   -8.5697 C   0  0  0  0  0  0  0  0  0  0  0  0
   -4.3608    2.4851   -9.5319 C   0  0  0  0  0  0  0  0  0  0  0  0
   -4.6576    0.8000   -9.1506 S   0  0  0  0  0  0  0  0  0  0  0  0
   -4.9472    3.1271  -10.6965 C   0  0  0  0  0  0  0  0  0  0  0  0
   -4.9062    2.4968  -11.9787 C   0  0  0  0  0  0  0  0  0  0  0  0
   -4.3216    1.3030  -12.3232 C   0  0  0  0  0  0  0  0  0  0  0  0
   -4.4954    0.9685  -13.9916 S   0  0  0  0  0  4  0  0  0  0  0  0
   -6.9788   -0.8596  -14.8087 F   0  0  0  0  0  0  0  0  0  0  0  0
   -5.3671    2.4146  -14.2682 C   0  0  0  0  0  0  0  0  0  0  0  0
   -5.5097    3.1468  -13.1147 C   0  0  0  0  0  0  0  0  0  0  0  0
   -6.1456    4.4010  -12.9483 C   0  0  0  0  0  0  0  0  0  0  0  0
   -6.1696    4.9705  -11.7156 C   0  0  0  0  0  0  0  0  0  0  0  0
   -5.5765    4.3499  -10.5829 C   0  0  0  0  0  0  0  0  0  0  0  0
   -5.7251    5.0351   -9.2822 C   0  0  0  0  0  0  0  0  0  0  0  0
   -4.8597    5.9397   -8.8224 C   0  0  0  0  0  0  0  0  0  0  0  0
   -4.9069    6.6063   -7.5307 C   0  0  0  0  0  0  0  0  0  0  0  0
   -4.3928    7.9521   -7.4553 C   0  0  0  0  0  0  0  0  0  0  0  0
   -3.8627    8.6845   -8.4625 C   0  0  0  0  0  0  0  0  0  0  0  0
   -3.4408   10.3248   -7.9863 S   0  0  0  0  0  4  0  0  0  0  0  0
   -2.7379   10.5868   -9.7233 F   0  0  0  0  0  0  0  0  0  0  0  0
   -3.8491    9.8917   -6.2737 C   0  0  0  0  0  0  0  0  0  0  0  0
   -4.4081    8.6666   -6.1802 C   0  0  0  0  0  0  0  0  0  0  0  0
   -4.9403    8.0072   -5.0298 C   0  0  0  0  0  0  0  0  0  0  0  0
   -5.3919    6.7412   -5.1382 C   0  0  0  0  0  0  0  0  0  0  0  0
   -5.3813    6.0149   -6.3779 C   0  0  0  0  0  0  0  0  0  0  0  0
   -5.8006    4.6194   -6.3407 C   0  0  0  0  0  0  0  0  0  0  0  0
   -6.7211    4.1093   -5.5312 C   0  0  0  0  0  0  0  0  0  0  0  0
    6.1476   -3.8757   14.4388 H   0  0  0  0  0  0  0  0  0  0  0  0
    6.5946   -1.2112   15.1011 H   0  0  0  0  0  0  0  0  0  0  0  0
    6.6455    0.3565   12.7786 H   0  0  0  0  0  0  0  0  0  0  0  0
    8.9370   -0.2869   11.2786 H   0  0  0  0  0  0  0  0  0  0  0  0
    8.7147   -2.8820   10.2670 H   0  0  0  0  0  0  0  0  0  0  0  0
    7.7388   -5.1080   10.6606 H   0  0  0  0  0  0  0  0  0  0  0  0
    6.6004   -6.4922   13.6188 H   0  0  0  0  0  0  0  0  0  0  0  0
    5.1790   -7.5830   12.0305 H   0  0  0  0  0  0  0  0  0  0  0  0
    4.2095   -7.6751    9.6186 H   0  0  0  0  0  0  0  0  0  0  0  0
    3.2231  -11.0047    4.6596 H   0  0  0  0  0  0  0  0  0  0  0  0
    1.8507  -11.6561    5.5716 H   0  0  0  0  0  0  0  0  0  0  0  0
    0.3034  -10.1906    4.2573 H   0  0  0  0  0  0  0  0  0  0  0  0
    1.2433  -11.2360    3.1886 H   0  0  0  0  0  0  0  0  0  0  0  0
    1.6814   -9.5342    3.3674 H   0  0  0  0  0  0  0  0  0  0  0  0
    5.9792    1.0167   10.9722 H   0  0  0  0  0  0  0  0  0  0  0  0
    5.2424    2.2059    9.8823 H   0  0  0  0  0  0  0  0  0  0  0  0
    6.9077    1.6188    8.1200 H   0  0  0  0  0  0  0  0  0  0  0  0
    7.5924    0.3764    9.1708 H   0  0  0  0  0  0  0  0  0  0  0  0
    7.7317    2.0852    9.6106 H   0  0  0  0  0  0  0  0  0  0  0  0
    2.7180   -1.7470    5.8862 H   0  0  0  0  0  0  0  0  0  0  0  0
    0.6433   -4.6210    2.6701 H   0  0  0  0  0  0  0  0  0  0  0  0
   -1.8952   -8.6132   -1.2653 H   0  0  0  0  0  0  0  0  0  0  0  0
   -2.9127   -7.4076   -2.0750 H   0  0  0  0  0  0  0  0  0  0  0  0
   -4.1575   -7.0233    0.0500 H   0  0  0  0  0  0  0  0  0  0  0  0
   -3.1599   -8.2372    0.8580 H   0  0  0  0  0  0  0  0  0  0  0  0
   -4.2470   -8.7168   -0.4478 H   0  0  0  0  0  0  0  0  0  0  0  0
    0.3832    4.7003    3.5919 H   0  0  0  0  0  0  0  0  0  0  0  0
    1.8090    5.2696    2.7077 H   0  0  0  0  0  0  0  0  0  0  0  0
    1.8291    3.2221    4.9873 H   0  0  0  0  0  0  0  0  0  0  0  0
    2.3096    4.9161    5.1296 H   0  0  0  0  0  0  0  0  0  0  0  0
    3.2584    3.8105    4.1314 H   0  0  0  0  0  0  0  0  0  0  0  0
   -0.5391    1.2471   -1.2671 H   0  0  0  0  0  0  0  0  0  0  0  0
   -2.7255   -1.6130   -4.4185 H   0  0  0  0  0  0  0  0  0  0  0  0
   -3.8951   -5.7331   -6.3240 H   0  0  0  0  0  0  0  0  0  0  0  0
   -5.2591   -5.8050   -7.4536 H   0  0  0  0  0  0  0  0  0  0  0  0
   -2.3387   -5.2935   -8.2222 H   0  0  0  0  0  0  0  0  0  0  0  0
   -3.6909   -5.3896   -9.3559 H   0  0  0  0  0  0  0  0  0  0  0  0
   -3.2047   -6.8186   -8.4403 H   0  0  0  0  0  0  0  0  0  0  0  0
   -1.1500    7.9363   -7.4946 H   0  0  0  0  0  0  0  0  0  0  0  0
   -1.2304    8.4573   -5.7957 H   0  0  0  0  0  0  0  0  0  0  0  0
    1.0424    6.8356   -7.0553 H   0  0  0  0  0  0  0  0  0  0  0  0
    0.9806    7.3746   -5.3738 H   0  0  0  0  0  0  0  0  0  0  0  0
    1.1037    8.5599   -6.6772 H   0  0  0  0  0  0  0  0  0  0  0  0
   -3.2865    4.1069   -8.6518 H   0  0  0  0  0  0  0  0  0  0  0  0
   -3.7899    0.6080  -11.7067 H   0  0  0  0  0  0  0  0  0  0  0  0
   -6.2097   -0.3960  -14.5322 H   0  0  0  0  0  0  0  0  0  0  0  0
   -5.7163    2.6515  -15.2527 H   0  0  0  0  0  0  0  0  0  0  0  0
   -6.5997    4.8809  -13.8011 H   0  0  0  0  0  0  0  0  0  0  0  0
   -6.6526    5.9245  -11.5648 H   0  0  0  0  0  0  0  0  0  0  0  0
   -6.6187    4.7865   -8.7241 H   0  0  0  0  0  0  0  0  0  0  0  0
   -4.0273    6.2240   -9.4555 H   0  0  0  0  0  0  0  0  0  0  0  0
   -3.7565    8.4524   -9.5019 H   0  0  0  0  0  0  0  0  0  0  0  0
   -2.1241   10.2107   -7.7168 H   0  0  0  0  0  0  0  0  0  0  0  0
   -3.7836   10.6136   -5.4818 H   0  0  0  0  0  0  0  0  0  0  0  0
   -4.9421    8.5308   -4.0865 H   0  0  0  0  0  0  0  0  0  0  0  0
   -5.7522    6.2205   -4.2646 H   0  0  0  0  0  0  0  0  0  0  0  0
   -5.2912    3.9658   -7.0358 H   0  0  0  0  0  0  0  0  0  0  0  0
   -6.9504    3.0577   -5.5433 H   0  0  0  0  0  0  0  0  0  0  0  0
   -7.3004    4.7142   -4.8538 H   0  0  0  0  0  0  0  0  0  0  0  0
  1  2  1  0  0  0  0
  2  3  2  0  0  0  0
  3  4  1  0  0  0  0
  4  5  1  0  0  0  0
  4  6  1  0  0  0  0
  6  7  2  0  0  0  0
  7  8  1  0  0  0  0
  8  9  2  0  0  0  0
  9 10  1  0  0  0  0
 10 11  1  0  0  0  0
 11 12  2  0  0  0  0
 12 13  1  0  0  0  0
 13 14  2  0  0  0  0
 14 15  1  0  0  0  0
 15 16  2  0  0  0  0
 16 17  1  0  0  0  0
 17 18  1  0  0  0  0
 18 19  1  0  0  0  0
 19 20  1  0  0  0  0
 20 21  1  0  0  0  0
 19 22  2  0  0  0  0
 22 23  1  0  0  0  0
 22 24  1  0  0  0  0
 24 25  1  0  0  0  0
 16 26  1  0  0  0  0
 26 27  2  0  0  0  0
 27 28  1  0  0  0  0
 28 29  1  0  0  0  0
 29 30  1  0  0  0  0
 30 31  1  0  0  0  0
 31 32  1  0  0  0  0
 32 33  1  0  0  0  0
 31 34  2  0  0  0  0
 34 35  1  0  0  0  0
 35 36  1  0  0  0  0
 34 37  1  0  0  0  0
 28 38  2  0  0  0  0
 38 39  1  0  0  0  0
 27 40  1  0  0  0  0
 40 41  2  0  0  0  0
 41 42  1  0  0  0  0
 41 43  1  0  0  0  0
 43 44  2  0  0  0  0
 44 45  1  0  0  0  0
 45 46  2  0  0  0  0
 46 47  1  0  0  0  0
 47 48  1  0  0  0  0
 48 49  1  0  0  0  0
 49 50  1  0  0  0  0
 50 51  1  0  0  0  0
 49 52  2  0  0  0  0
 52 53  1  0  0  0  0
 52 54  1  0  0  0  0
 54 55  1  0  0  0  0
 46 56  1  0  0  0  0
 56 57  2  0  0  0  0
 57 58  1  0  0  0  0
 58 59  1  0  0  0  0
 59 60  1  0  0  0  0
 60 61  1  0  0  0  0
 61 62  1  0  0  0  0
 62 63  1  0  0  0  0
 61 64  2  0  0  0  0
 64 65  1  0  0  0  0
 65 66  1  0  0  0  0
 64 67  1  0  0  0  0
 58 68  2  0  0  0  0
 68 69  1  0  0  0  0
 57 70  1  0  0  0  0
 70 71  2  0  0  0  0
 71 72  1  0  0  0  0
 71 73  1  0  0  0  0
 73 74  2  0  0  0  0
 74 75  1  0  0  0  0
 75 76  2  0  0  0  0
 76 77  1  0  0  0  0
 77 78  1  0  0  0  0
 78 79  1  0  0  0  0
 79 80  1  0  0  0  0
 80 81  1  0  0  0  0
 79 82  2  0  0  0  0
 82 83  1  0  0  0  0
 82 84  1  0  0  0  0
 84 85  1  0  0  0  0
 76 86  1  0  0  0  0
 86 87  2  0  0  0  0
 87 88  1  0  0  0  0
 88 89  1  0  0  0  0
 89 90  1  0  0  0  0
 90 91  1  0  0  0  0
 91 92  1  0  0  0  0
 92 93  1  0  0  0  0
 91 94  2  0  0  0  0
 94 95  1  0  0  0  0
 95 96  1  0  0  0  0
 94 97  1  0  0  0  0
 88 98  2  0  0  0  0
 98 99  1  0  0  0  0
 87100  1  0  0  0  0
100101  2  0  0  0  0
101102  1  0  0  0  0
101103  1  0  0  0  0
103104  1  0  0  0  0
104105  2  0  0  0  0
105106  1  0  0  0  0
106107  1  0  0  0  0
106108  1  0  0  0  0
108109  2  0  0  0  0
109110  1  0  0  0  0
110111  2  0  0  0  0
111112  1  0  0  0  0
112113  1  0  0  0  0
113114  2  0  0  0  0
114115  1  0  0  0  0
115116  1  0  0  0  0
116117  2  0  0  0  0
117118  1  0  0  0  0
118119  1  0  0  0  0
118120  1  0  0  0  0
120121  2  0  0  0  0
121122  1  0  0  0  0
122123  2  0  0  0  0
123124  1  0  0  0  0
124125  1  0  0  0  0
125126  2  0  0  0  0
 10  1  2  0  0  0  0
 39 13  1  0  0  0  0
 69 43  1  0  0  0  0
 99 73  1  0  0  0  0
112103  2  0  0  0  0
124115  2  0  0  0  0
  7  2  1  0  0  0  0
 38 15  1  0  0  0  0
 68 45  1  0  0  0  0
 98 75  1  0  0  0  0
109104  1  0  0  0  0
121116  1  0  0  0  0
 24 17  2  0  0  0  0
 42 26  1  0  0  0  0
 54 47  2  0  0  0  0
 72 56  1  0  0  0  0
 84 77  2  0  0  0  0
102 86  1  0  0  0  0
 35 29  2  0  0  0  0
 65 59  2  0  0  0  0
 95 89  2  0  0  0  0
  1127  1  0  0  0  0
  3128  1  0  0  0  0
  4129  1  0  0  0  0
  6130  1  0  0  0  0
  8131  1  0  0  0  0
  9132  1  0  0  0  0
 11133  1  0  0  0  0
 12134  1  0  0  0  0
 14135  1  0  0  0  0
 20136  1  0  0  0  0
 20137  1  0  0  0  0
 21138  1  0  0  0  0
 21139  1  0  0  0  0
 21140  1  0  0  0  0
 32141  1  0  0  0  0
 32142  1  0  0  0  0
 33143  1  0  0  0  0
 33144  1  0  0  0  0
 33145  1  0  0  0  0
 40146  1  0  0  0  0
 44147  1  0  0  0  0
 50148  1  0  0  0  0
 50149  1  0  0  0  0
 51150  1  0  0  0  0
 51151  1  0  0  0  0
 51152  1  0  0  0  0
 62153  1  0  0  0  0
 62154  1  0  0  0  0
 63155  1  0  0  0  0
 63156  1  0  0  0  0
 63157  1  0  0  0  0
 70158  1  0  0  0  0
 74159  1  0  0  0  0
 80160  1  0  0  0  0
 80161  1  0  0  0  0
 81162  1  0  0  0  0
 81163  1  0  0  0  0
 81164  1  0  0  0  0
 92165  1  0  0  0  0
 92166  1  0  0  0  0
 93167  1  0  0  0  0
 93168  1  0  0  0  0
 93169  1  0  0  0  0
100170  1  0  0  0  0
105171  1  0  0  0  0
106172  1  0  0  0  0
108173  1  0  0  0  0
110174  1  0  0  0  0
111175  1  0  0  0  0
113176  1  0  0  0  0
114177  1  0  0  0  0
117178  1  0  0  0  0
118179  1  0  0  0  0
120180  1  0  0  0  0
122181  1  0  0  0  0
123182  1  0  0  0  0
125183  1  0  0  0  0
126184  1  0  0  0  0
126185  1  0  0  0  0
M  END
