185

C          6.69570       -3.66270       13.53330
C          7.22570       -2.35480       13.34140
C          7.09850       -1.27830       14.15850
S          7.96160        0.11470       13.51900
F          9.51000       -0.37560       14.33940
C          8.38020       -0.76960       12.05540
C          7.96530       -2.05800       12.12390
C          8.14360       -3.09350       11.15760
C          7.60430       -4.31170       11.37790
C          6.85540       -4.61070       12.57000
C          6.30020       -5.95760       12.72750
C          5.47610       -6.55660       11.85790
C          4.87460       -5.95200       10.70060
C          4.25620       -6.60310        9.67450
C          3.72150       -5.74060        8.68420
C          3.03580       -6.07440        7.50170
C          2.70200       -7.45030        7.17970
S          2.96650       -8.11150        5.59360
C          2.33050       -9.65860        6.03400
C          2.22940      -10.77370        5.05190
C          1.30360      -10.40930        3.89090
C          1.93700       -9.64410        7.33820
F          1.39970      -10.70640        7.95810
C          2.14960       -8.40490        7.98900
F          1.78870       -8.18930        9.26210
C          2.69350       -5.02620        6.65540
C          2.97150       -3.66720        6.94680
C          3.60050       -3.32820        8.15910
C          3.85500       -1.94860        8.53080
S          5.37590       -1.45010        9.21740
C          4.87300        0.19980        9.36030
C          5.76750        1.24950        9.92070
C          7.08630        1.33900        9.15540
C          3.59770        0.33690        8.90160
C          3.02050       -0.86860        8.43470
F          1.75620       -0.93410        7.99570
F          2.94020        1.50700        8.89270
C          3.97190       -4.38030        8.98800
S          4.79350       -4.21200       10.50870
C          2.56460       -2.81030        5.89540
C          1.96030       -3.46350        4.86280
S          1.87440       -5.19100        5.12850
C          1.44390       -2.90400        3.65850
C          0.82410       -3.56240        2.63810
C          0.44390       -2.71830        1.56740
C         -0.18960       -3.07060        0.36050
C         -0.47340       -4.45800        0.04080
S         -2.01430       -4.96580       -0.58400
C         -1.53500       -6.62640       -0.66670
C         -2.46800       -7.69530       -1.11960
C         -3.58080       -7.93330       -0.09730
C         -0.25130       -6.76060       -0.23150
F          0.39240       -7.93760       -0.18640
C          0.35150       -5.54270        0.16490
F          1.62710       -5.47170        0.56950
C         -0.51580       -2.03390       -0.50490
C         -0.19760       -0.67820       -0.24250
C          0.47790       -0.33210        0.94220
C          0.85870        1.04050        1.22390
S          0.56380        1.76960        2.77400
C          1.27480        3.27370        2.30150
C          1.38130        4.42090        3.24510
C          2.25190        4.06900        4.45180
C          1.71500        3.19520        1.01450
C          1.47750        1.94150        0.40130
F          1.87790        1.66190       -0.84700
F          2.31780        4.21150        0.37850
C          0.76430       -1.36310        1.82800
S          1.57370       -1.18510        3.35860
C         -0.64790        0.17820       -1.27640
C         -1.25770       -0.47900       -2.30260
S         -1.32290       -2.20920       -2.03730
C         -1.79740        0.08070       -3.49720
C         -2.49260       -0.56540       -4.47660
C         -2.86410        0.27410       -5.55470
C         -3.59760       -0.06170       -6.70750
C         -4.12900       -1.39820       -6.91570
S         -3.14580       -2.82490       -6.77330
C         -4.45510       -3.87890       -7.18560
C         -4.28060       -5.35530       -7.27450
C         -3.31570       -5.73860       -8.39700
C         -5.58060       -3.14860       -7.41930
F         -6.75790       -3.69920       -7.74830
C         -5.40130       -1.75160       -7.27120
F         -6.40510       -0.87610       -7.40700
C         -3.80090        0.94820       -7.64090
C         -3.29930        2.25950       -7.46830
C         -2.65240        2.62320       -6.27520
C         -2.29490        4.00530       -5.99890
S         -1.44870        5.01360       -7.13290
C         -1.48960        6.39000       -6.08970
C         -0.85910        7.68380       -6.47200
C          0.66690        7.60790       -6.38820
C         -2.11970        6.06730       -4.92680
C         -2.57760        4.72900       -4.87280
F         -3.27680        4.25150       -3.83540
F         -2.30320        6.94070       -3.92500
C         -2.43530        1.61010       -5.34910
S         -1.58070        1.78050       -3.84480
C         -3.61920        3.09180       -8.56970
C         -4.36080        2.48510       -9.53190
S         -4.65760        0.80000       -9.15060
C         -4.94720        3.12710      -10.69650
C         -4.90620        2.49680      -11.97870
C         -4.32160        1.30300      -12.32320
S         -4.49540        0.96850      -13.99160
F         -6.97880       -0.85960      -14.80870
C         -5.36710        2.41460      -14.26820
C         -5.50970        3.14680      -13.11470
C         -6.14560        4.40100      -12.94830
C         -6.16960        4.97050      -11.71560
C         -5.57650        4.34990      -10.58290
C         -5.72510        5.03510       -9.28220
C         -4.85970        5.93970       -8.82240
C         -4.90690        6.60630       -7.53070
C         -4.39280        7.95210       -7.45530
C         -3.86270        8.68450       -8.46250
S         -3.44080       10.32480       -7.98630
F         -2.73790       10.58680       -9.72330
C         -3.84910        9.89170       -6.27370
C         -4.40810        8.66660       -6.18020
C         -4.94030        8.00720       -5.02980
C         -5.39190        6.74120       -5.13820
C         -5.38130        6.01490       -6.37790
C         -5.80060        4.61940       -6.34070
C         -6.72110        4.10930       -5.53120
H          6.14760       -3.87570       14.43880
H          6.59460       -1.21120       15.10110
H          6.64550        0.35650       12.77860
H          8.93700       -0.28690       11.27860
H          8.71470       -2.88200       10.26700
H          7.73880       -5.10800       10.66060
H          6.60040       -6.49220       13.61880
H          5.17900       -7.58300       12.03050
H          4.20950       -7.67510        9.61860
H          3.22310      -11.00470        4.65960
H          1.85070      -11.65610        5.57160
H          0.30340      -10.19060        4.25730
H          1.24330      -11.23600        3.18860
H          1.68140       -9.53420        3.36740
H          5.97920        1.01670       10.97220
H          5.24240        2.20590        9.88230
H          6.90770        1.61880        8.12000
H          7.59240        0.37640        9.17080
H          7.73170        2.08520        9.61060
H          2.71800       -1.74700        5.88620
H          0.64330       -4.62100        2.67010
H         -1.89520       -8.61320       -1.26530
H         -2.91270       -7.40760       -2.07500
H         -4.15750       -7.02330        0.05000
H         -3.15990       -8.23720        0.85800
H         -4.24700       -8.71680       -0.44780
H          0.38320        4.70030        3.59190
H          1.80900        5.26960        2.70770
H          1.82910        3.22210        4.98730
H          2.30960        4.91610        5.12960
H          3.25840        3.81050        4.13140
H         -0.53910        1.24710       -1.26710
H         -2.72550       -1.61300       -4.41850
H         -3.89510       -5.73310       -6.32400
H         -5.25910       -5.80500       -7.45360
H         -2.33870       -5.29350       -8.22220
H         -3.69090       -5.38960       -9.35590
H         -3.20470       -6.81860       -8.44030
H         -1.15000        7.93630       -7.49460
H         -1.23040        8.45730       -5.79570
H          1.04240        6.83560       -7.05530
H          0.98060        7.37460       -5.37380
H          1.10370        8.55990       -6.67720
H         -3.28650        4.10690       -8.65180
H         -3.78990        0.60800      -11.70670
H         -6.20970       -0.39600      -14.53220
H         -5.71630        2.65150      -15.25270
H         -6.59970        4.88090      -13.80110
H         -6.65260        5.92450      -11.56480
H         -6.61870        4.78650       -8.72410
H         -4.02730        6.22400       -9.45550
H         -3.75650        8.45240       -9.50190
H         -2.12410       10.21070       -7.71680
H         -3.78360       10.61360       -5.48180
H         -4.94210        8.53080       -4.08650
H         -5.75220        6.22050       -4.26460
H         -5.29120        3.96580       -7.03580
H         -6.95040        3.05770       -5.54330
H         -7.30040        4.71420       -4.85380
