148

C          6.26420        7.20100       -6.65430
S          6.14560        6.12970       -5.30960
C          4.39360        6.13590       -5.39520
C          3.97700        6.93470       -6.43290
C          5.04360        7.53580       -7.14480
C          4.69340        8.42340       -8.28730
C          3.62250        9.44570       -7.85800
C          4.29150       10.60740       -7.12450
C          2.50910        8.82920       -6.97300
C          1.12640        9.23900       -7.47360
C          2.59880        7.29650       -6.86550
C          3.60300        5.38100       -4.48490
C          4.10040        4.60400       -3.49970
C          3.32120        3.83820       -2.59410
S          1.57210        3.83090       -2.66180
C          1.46070        2.71130       -1.32160
C          2.72410        2.38080       -0.87300
C          3.76080        3.00880       -1.58270
C          5.15280        2.73900       -1.12450
C          5.21450        2.95550        0.39740
C          6.61130        2.62840        0.91880
C          4.13440        2.15270        1.16410
C          3.39250        3.06500        2.13990
C          3.11780        1.46340        0.23240
C          0.21750        2.23610       -0.83790
C         -1.00060        2.54860       -1.33640
C         -2.21350        2.00570       -0.83930
S         -2.20640        0.90230        0.51850
C         -3.94120        0.68420        0.43550
C         -4.46540        1.43940       -0.59060
C         -3.50300        2.18440       -1.29710
C         -3.99320        3.03390       -2.41740
C         -5.18460        3.90010       -1.95610
C         -4.66130        5.15760       -1.26350
C         -6.16200        3.14600       -1.02140
C         -7.61280        3.41030       -1.41270
C         -5.89050        1.63250       -0.97600
C         -4.61030       -0.20630        1.32070
C         -3.99250       -0.81910        2.34890
C         -4.56680       -1.81830        3.21740
C         -5.96570       -1.78730        3.56440
C         -6.85250       -0.80490        3.30260
S         -8.51480       -1.24210        3.68670
F         -9.06720        0.38200        2.85200
C         -7.91860       -2.85970        4.25240
C         -6.57410       -2.95680        4.19630
C         -5.72700       -4.02310        4.63330
C         -4.40910       -3.99070        4.34100
C         -3.82760       -2.93050        3.57420
C         -2.50030       -3.12260        2.99870
C         -2.09050       -4.22060        2.35280
C         -2.84590       -5.45450        2.14450
C         -4.22240       -5.43680        1.72900
C         -4.96060       -4.37130        1.32680
S         -6.66740       -4.75160        1.18430
F         -7.06520       -2.90030        0.86410
C         -6.25410       -6.50470        1.29060
C         -4.97530       -6.69030        1.68130
C         -4.29260       -7.91780        1.94630
C         -2.97010       -7.90110        2.20850
C         -2.22690       -6.67850        2.33720
C         -0.84380       -6.73670        2.74930
C          0.00900       -7.75350        2.51420
C          1.38460       -7.73090        2.88180
S          2.07410       -6.36870        3.73570
C          3.66000       -7.09400        3.74290
C          3.63200       -8.31400        3.10880
C          2.35720       -8.67220        2.62580
C          2.24340       -9.99050        1.94320
C          2.87630      -11.08510        2.82370
C          1.92340      -11.42610        3.96890
C          4.26630      -10.68410        3.37950
C          5.31970      -11.73310        3.03220
C          4.73110       -9.29780        2.89830
C          4.77890       -6.42880        4.34690
C          4.73050       -5.23270        4.92880
H          7.23290        7.50840       -6.99500
H          4.29370        7.80280       -9.09540
H          5.57340        8.94280       -8.66860
H          3.16320        9.84000       -8.77080
H          4.82760       10.24190       -6.25070
H          3.54960       11.33300       -6.79790
H          5.00110       11.11550       -7.77460
H          2.63280        9.21950       -5.95670
H          0.35180        8.86040       -6.81000
H          1.04070       10.32260       -7.51480
H          0.94730        8.84060       -8.47070
H          2.39300        6.84940       -7.84320
H          1.84720        6.93410       -6.16410
H          2.53050        5.44500       -4.61560
H          5.17400        4.53830       -3.37750
H          5.87440        3.39030       -1.61720
H          5.41870        1.70270       -1.35640
H          5.02780        4.02150        0.56840
H          6.85140        1.58210        0.73820
H          7.35900        3.24180        0.42050
H          6.67310        2.81660        1.98840
H          4.63010        1.36620        1.74340
H          2.70380        2.49070        2.75640
H          4.09400        3.57430        2.79730
H          2.82070        3.81380        1.59510
H          2.25650        1.13420        0.81300
H          3.58150        0.57450       -0.20810
H          0.27020        1.54860       -0.00310
H         -1.07520        3.22970       -2.17370
H         -4.32390        2.37450       -3.22660
H         -3.20530        3.67480       -2.81280
H         -5.72990        4.20790       -2.85480
H         -4.03690        4.88750       -0.41380
H         -4.06580        5.75720       -1.94930
H         -5.48700        5.76880       -0.90580
H         -6.01190        3.51990       -0.00250
H         -7.82070        3.01330       -2.40480
H         -8.28830        2.93580       -0.70480
H         -7.81840        4.47850       -1.41810
H         -6.06830        1.19800       -1.96440
H         -6.57020        1.15740       -0.27000
H         -5.63920       -0.43240        1.08310
H         -2.93650       -0.61690        2.48420
H         -6.69640        0.17620        2.90670
H         -8.80600       -1.74750        2.47530
H         -8.58330       -3.57510        4.69910
H         -6.16850       -4.85090        5.16790
H         -3.75820       -4.79820        4.64480
H         -1.81750       -2.28460        3.05390
H         -1.07920       -4.23080        1.96720
H         -4.67480       -3.34800        1.20940
H         -6.83510       -4.80250       -0.15210
H         -7.00940       -7.26470        1.22250
H         -4.85340       -8.83960        1.91260
H         -2.44960       -8.82610        2.40480
H         -0.45470       -5.86600        3.25970
H         -0.31480       -8.63440        1.97670
H          1.20740      -10.24990        1.72610
H          2.78130       -9.93850        0.99120
H          2.99330      -11.97840        2.20130
H          2.34960      -12.19950        4.60410
H          0.97280      -11.78940        3.58330
H          1.73160      -10.54390        4.57700
H          4.18920      -10.62780        4.47070
H          5.03060      -12.70740        3.41970
H          6.28210      -11.46650        3.46410
H          5.43960      -11.81240        1.95320
H          5.63810       -9.01260        3.43100
H          4.96950       -9.34620        1.83090
H          5.71420       -6.97170        4.30380
H          5.60290       -4.78170        5.36710
H          3.81270       -4.67080        4.98150
