236

C          0.66430        1.06650        9.00720
C          1.09740        1.40280        7.77570
C          0.41050        0.70960        6.73400
C          0.58490        0.83530        5.34700
C          1.62590        1.71830        4.80520
C          2.93850        1.60430        5.25030
C          3.94920        2.38370        4.72380
C          3.67510        3.32260        3.73650
S          4.88230        4.30470        2.91350
C          6.46480        3.56880        3.46950
C          7.58880        4.12900        2.61890
C          2.34220        3.47940        3.35290
F          2.03580        4.43170        2.44660
C          1.33080        2.69010        3.85330
C         -0.25220        0.07560        4.54100
C         -1.23770       -0.79510        5.06910
C         -1.42020       -0.91240        6.45610
C         -2.46090       -1.77670        7.02160
C         -3.78230       -1.67980        6.59470
C         -4.76820       -2.47720        7.14320
C         -4.46670       -3.39880        8.13960
S         -5.62010       -4.48950        8.90630
C         -7.24870       -3.76610        8.50750
C         -7.48410       -2.45080        9.22540
C         -3.13470       -3.49330        8.54680
C         -2.14320       -2.70310        8.01200
F         -2.80260       -4.39150        9.49640
C         -0.57740       -0.15870        7.25630
S         -0.61120       -0.10260        8.99980
C         -1.92430       -1.49280        4.05160
C         -1.51830       -1.18410        2.78010
S         -0.21550       -0.00630        2.79910
C         -2.18600       -1.66370        1.61140
S         -3.75510       -2.34680        1.87130
C         -4.07020       -2.60180        0.18930
C         -2.99620       -2.12850       -0.56920
C         -1.91010       -1.62860        0.24000
C         -0.75090       -1.17740       -0.43260
F          0.34850       -0.85700        0.27510
C         -0.69050       -1.07590       -1.79100
C         -1.79270       -1.45860       -2.57350
C         -2.89480       -1.99060       -1.97240
F         -3.93490       -2.35030       -2.75540
C         -5.35520       -3.14890       -0.11150
C         -5.82240       -3.95030       -1.09540
C         -5.19140       -4.67350       -2.15100
S         -6.16010       -4.91600       -3.56710
C         -4.94760       -5.79960       -4.40860
C         -3.82790       -5.94720       -3.59210
C         -3.95920       -5.31210       -2.30730
C         -2.90360       -5.48970       -1.38390
F         -3.04220       -5.04730       -0.11740
C         -1.75450       -6.14420       -1.71620
C         -1.59650       -6.69430       -3.00160
C         -2.61520       -6.60800       -3.90090
F         -2.47360       -7.17620       -5.11680
C         -5.12050       -6.35600       -5.73640
C         -5.41120       -5.70450       -6.87300
C         -5.51290       -4.26780       -6.98150
C         -6.19520       -3.38630       -6.20970
C         -5.76470       -2.03940       -6.35110
C         -6.05690       -0.97820       -5.47590
C         -7.03130       -1.17810       -4.39530
C         -6.70000       -0.93210       -3.06430
C         -7.57850       -1.24500       -2.05160
C         -8.82480       -1.80780       -2.31930
S         -9.84310       -2.21560       -0.93600
C        -10.75000       -3.71170       -1.50180
C        -11.14830       -4.53200       -0.29070
C         -9.17210       -1.98370       -3.65510
F        -10.39180       -2.45820       -3.99860
C         -8.29340       -1.69180       -4.67840
C         -5.25230        0.14420       -5.59170
C         -4.27540        0.28310       -6.60810
C         -4.04000       -0.74850       -7.53170
C         -2.94200       -0.58870       -8.49640
C         -1.83560       -1.43190       -8.47380
C         -0.73480       -1.17670       -9.26810
C         -0.70500       -0.07610      -10.11710
S          0.67420        0.36350      -11.12650
C          2.10500       -0.21010      -10.14280
C          2.21740        0.50940       -8.81320
C         -1.84770        0.72250      -10.17690
C         -2.94450        0.49110       -9.37630
F         -1.87580        1.77540      -11.01600
C         -4.75410       -1.91790       -7.33570
S         -4.42310       -3.45260       -8.09840
C         -3.40640        1.37700       -6.36880
C         -3.64830        2.01490       -5.18860
S         -5.12540        1.44240       -4.42630
C         -2.65180        2.66890       -4.40400
C         -2.64230        2.74800       -3.04210
C         -1.34030        2.83430       -2.48830
C         -0.95900        2.63620       -1.15280
C         -1.90200        2.34720       -0.06480
C         -2.91890        1.40370       -0.20650
C         -3.71120        1.05620        0.86640
C         -3.50510        1.59720        2.13450
S         -4.48210        0.93240        3.44800
C         -4.73550        2.31510        4.62020
C         -5.42020        3.49800        3.96760
C         -2.49160        2.54090        2.26060
F         -2.21230        3.10570        3.45730
C         -1.71940        2.93140        1.18570
C          0.40660        2.55200       -0.90590
C          1.39470        2.64870       -1.91670
C          1.00990        2.85150       -3.25230
C          1.99730        2.81660       -4.34030
C          2.08670        3.83800       -5.28170
C          3.05270        3.79960       -6.26760
C          3.94220        2.73450       -6.36220
S          5.17840        2.74400       -7.63420
C          6.70190        2.44470       -6.65890
C          6.95500        3.55340       -5.65780
C          3.79370        1.68640       -5.45990
C          2.85550        1.72570       -4.45080
F          4.56930        0.58480       -5.55480
C         -0.34800        2.93970       -3.49890
S         -1.05580        2.92460       -5.09420
C          2.69170        2.37660       -1.41650
C          2.69130        2.01680       -0.10030
S          1.10830        2.10620        0.61570
C          3.77140        1.47220        0.65800
C          5.10150        1.48940        0.36780
C          5.88130        0.72040        1.26900
C          7.27090        0.51590        1.24410
C          8.06690        1.00460        0.11210
C          9.24480        1.72780        0.28080
C          9.94710        2.19090       -0.81310
C          9.50600        1.95340       -2.11230
S         10.43200        2.65280       -3.45090
C         10.53260        1.27870       -4.65960
C         11.18900        0.05010       -4.06370
C          8.32860        1.22870       -2.26700
F          7.82690        0.98020       -3.49710
C          7.62510        0.74700       -1.18400
C          7.80750       -0.21250        2.29600
C          7.02060       -0.77510        3.33310
C          5.62750       -0.60140        3.33880
C          4.75810       -1.13460        4.39420
C          3.54700       -1.75550        4.08210
C          2.69420       -2.17820        5.07460
C          2.99430       -2.00510        6.42840
S          1.73510       -2.53520        7.54010
C          2.48610       -2.69290        9.20050
C          3.49180       -3.82390        9.27300
C          4.20690       -1.39130        6.72550
C          5.07880       -0.97240        5.73760
F          4.58220       -1.14460        8.00450
C          5.09070        0.13960        2.29140
S          3.40320        0.50750        2.06810
C          7.82050       -1.54410        4.23190
C          9.12800       -1.54780        3.90600
S          9.49220       -0.62710        2.48640
H          1.01310        1.43700        9.95160
H          1.86740        2.13050        7.59470
H          3.17830        0.87040        6.00170
H          4.95580        2.24580        5.08300
H          6.39090        2.48800        3.34920
H          6.60780        3.82380        4.52010
H          7.44390        3.86270        1.57420
H          8.54100        3.72420        2.95470
H          7.62400        5.21300        2.69840
H          0.32040        2.84560        3.51490
H         -4.04720       -0.96050        5.83380
H         -5.77790       -2.37660        6.77960
H         -7.95290       -4.52520        8.84790
H         -7.33670       -3.67310        7.42580
H         -7.41020       -2.59310       10.30100
H         -6.74900       -1.70630        8.92730
H         -8.47770       -2.07310        8.99110
H         -1.12660       -2.82700        8.34910
H         -2.69290       -2.21660        4.25530
H          0.20580       -0.70250       -2.25860
H         -1.76760       -1.34970       -3.64580
H         -6.09330       -2.87700        0.63600
H         -6.90070       -4.06550       -1.11070
H         -0.97470       -6.25280       -0.98040
H         -0.68560       -7.20520       -3.26650
H         -4.90250       -7.41530       -5.80600
H         -5.40630       -6.25960       -7.80120
H         -6.97380       -3.68310       -5.53500
H         -5.73020       -0.53670       -2.81530
H         -7.30560       -1.07480       -1.02230
H        -10.07700       -4.26970       -2.15160
H        -11.62480       -3.39130       -2.06550
H        -11.79140       -3.95240        0.36740
H        -11.68800       -5.42040       -0.61120
H        -10.26860       -4.83940        0.27050
H         -8.61330       -1.85130       -5.69670
H         -1.82130       -2.27820       -7.80410
H          0.11430       -1.83940       -9.21600
H          2.95690        0.02170      -10.78140
H          2.04280       -1.29110      -10.02420
H          3.11100        0.17490       -8.29060
H          2.29230        1.58320       -8.96830
H          1.35130        0.31020       -8.18430
H         -3.79170        1.15690       -9.43460
H         -2.54230        1.58560       -6.97440
H         -3.53810        2.65570       -2.45560
H         -3.06790        0.91070       -1.15430
H         -4.50130        0.33130        0.74420
H         -5.36760        1.87200        5.39030
H         -3.77830        2.58450        5.06110
H         -5.62570        4.25950        4.71660
H         -6.35980        3.19270        3.51130
H         -4.78860        3.93810        3.19860
H         -0.96570        3.68830        1.34010
H          1.41570        4.68070       -5.21930
H          3.13970        4.60540       -6.97940
H          7.48670        2.40760       -7.41380
H          6.62560        1.47340       -6.17560
H          7.00330        4.51820       -6.15780
H          6.16180        3.58890       -4.91270
H          7.89940        3.38010       -5.14640
H          2.78020        0.88820       -3.77430
H          3.57970        2.40330       -2.02040
H          5.51690        2.05960       -0.44230
H          9.60690        1.93900        1.27460
H         10.85520        2.75710       -0.67760
H         11.13640        1.69800       -5.46430
H          9.53600        1.06410       -5.03940
H         10.58430       -0.35960       -3.25650
H         11.30120       -0.71320       -4.83080
H         12.17210        0.29590       -3.66800
H          6.73280        0.16670       -1.36120
H          3.27970       -1.92750        3.05180
H          1.75840       -2.65260        4.82190
H          1.62420       -2.89630        9.83730
H          2.91570       -1.73590        9.48680
H          3.84560       -3.93180       10.29610
H          4.34900       -3.62600        8.63380
H          3.03400       -4.75990        8.96020
H          5.98570       -0.47110        6.03990
H          7.41680       -2.08770        5.06630
H          9.93230       -2.04440        4.41260
