
  xtb     03012209253D
 energy: -424.788248500426 gnorm: 0.000287544765 xtb: 6.4.1 (unknown)
224249  0     0  0            999 V2000
   -0.2521   -1.0228  -10.7871 C   0  0  0  0  0  0  0  0  0  0  0  0
    0.5726   -0.3065  -11.5779 C   0  0  0  0  0  0  0  0  0  0  0  0
    1.0624    0.8726  -10.9436 C   0  0  0  0  0  0  0  0  0  0  0  0
    1.9105    1.8575  -11.4760 C   0  0  0  0  0  0  0  0  0  0  0  0
    2.5168    1.7073  -12.7885 C   0  0  0  0  0  0  0  0  0  0  0  0
    2.3882    2.9478  -13.9982 S   0  0  0  0  0  0  0  0  0  0  0  0
    3.3269    2.0429  -15.1354 C   0  0  0  0  0  0  0  0  0  0  0  0
    3.6641    2.6018  -16.4734 C   0  0  0  0  0  0  0  0  0  0  0  0
    4.9147    3.4810  -16.3951 C   0  0  0  0  0  0  0  0  0  0  0  0
    3.7217    0.8578  -14.5896 C   0  0  0  0  0  0  0  0  0  0  0  0
    4.6814   -0.3029  -15.4126 Cl  0  0  0  0  0  0  0  0  0  0  0  0
    3.2596    0.6610  -13.2611 C   0  0  0  0  0  0  0  0  0  0  0  0
    3.6720   -0.7226  -12.3322 Cl  0  0  0  0  0  0  0  0  0  0  0  0
    2.1587    2.9713  -10.6840 C   0  0  0  0  0  0  0  0  0  0  0  0
    1.6228    3.1114   -9.3833 C   0  0  0  0  0  0  0  0  0  0  0  0
    0.8131    2.1094   -8.8285 C   0  0  0  0  0  0  0  0  0  0  0  0
    0.2854    2.2340   -7.4781 C   0  0  0  0  0  0  0  0  0  0  0  0
   -0.6744    3.6028   -6.9954 S   0  0  0  0  0  0  0  0  0  0  0  0
   -0.9061    2.9796   -5.3985 C   0  0  0  0  0  0  0  0  0  0  0  0
   -1.7605    3.6864   -4.4052 C   0  0  0  0  0  0  0  0  0  0  0  0
   -3.2162    3.2257   -4.5034 C   0  0  0  0  0  0  0  0  0  0  0  0
   -0.2693    1.7827   -5.2611 C   0  0  0  0  0  0  0  0  0  0  0  0
    0.4165    1.3635   -6.4332 C   0  0  0  0  0  0  0  0  0  0  0  0
    1.3774   -0.0525   -6.4946 Cl  0  0  0  0  0  0  0  0  0  0  0  0
   -0.3037    0.8521   -3.8212 Cl  0  0  0  0  0  0  0  0  0  0  0  0
    0.5450    1.0081   -9.6320 C   0  0  0  0  0  0  0  0  0  0  0  0
   -0.4949   -0.3254   -9.2237 S   0  0  0  0  0  0  0  0  0  0  0  0
    2.0604    4.2999   -8.7542 C   0  0  0  0  0  0  0  0  0  0  0  0
    2.9086    5.0458   -9.5166 C   0  0  0  0  0  0  0  0  0  0  0  0
    3.1843    4.3215  -11.0902 S   0  0  0  0  0  0  0  0  0  0  0  0
    3.5536    6.2618   -9.1240 C   0  0  0  0  0  0  0  0  0  0  0  0
    3.8363    6.6306   -7.8247 C   0  0  0  0  0  0  0  0  0  0  0  0
    4.4424    7.9227   -7.7479 C   0  0  0  0  0  0  0  0  0  0  0  0
    4.5672    8.5011   -9.0324 C   0  0  0  0  0  0  0  0  0  0  0  0
    3.9905    7.4720  -10.3012 S   0  0  0  0  0  0  0  0  0  0  0  0
    5.0805    9.6870   -9.3007 N   0  0  0  0  0  0  0  0  0  0  0  0
    5.5106   10.3705   -8.2680 C   0  0  0  0  0  0  0  0  0  0  0  0
    5.5067    9.9001   -6.9401 C   0  0  0  0  0  0  0  0  0  0  0  0
    4.9884    8.6509   -6.6608 C   0  0  0  0  0  0  0  0  0  0  0  0
    5.0993    8.0664   -5.2827 C   0  0  0  0  0  0  0  0  0  0  0  0
    6.2267    7.0336   -5.2340 C   0  0  0  0  0  0  0  0  0  0  0  0
    6.1691   10.8470   -5.9811 C   0  0  0  0  0  0  0  0  0  0  0  0
    6.2164   12.2192   -6.6486 C   0  0  0  0  0  0  0  0  0  0  0  0
    6.2044   11.9573   -8.4646 S   0  0  0  0  0  0  0  0  0  0  0  0
    3.5584    5.6930   -6.7419 C   0  0  0  0  0  0  0  0  0  0  0  0
    2.6942    5.8910   -5.7369 C   0  0  0  0  0  0  0  0  0  0  0  0
    2.3940    4.9065   -4.7364 C   0  0  0  0  0  0  0  0  0  0  0  0
    2.8972    3.6489   -4.5774 C   0  0  0  0  0  0  0  0  0  0  0  0
    2.4164    2.9771   -3.4257 C   0  0  0  0  0  0  0  0  0  0  0  0
    2.7555    1.6932   -2.9531 C   0  0  0  0  0  0  0  0  0  0  0  0
    3.6960    0.8406   -3.6568 C   0  0  0  0  0  0  0  0  0  0  0  0
    5.2216    1.4680   -4.2208 S   0  0  0  0  0  0  0  0  0  0  0  0
    5.7210   -0.0634   -4.8487 C   0  0  0  0  0  0  0  0  0  0  0  0
    7.0617   -0.2450   -5.4692 C   0  0  0  0  0  0  0  0  0  0  0  0
    8.1212   -0.5281   -4.4016 C   0  0  0  0  0  0  0  0  0  0  0  0
    4.7573   -0.9985   -4.6218 C   0  0  0  0  0  0  0  0  0  0  0  0
    4.8879   -2.6391   -5.1069 Cl  0  0  0  0  0  0  0  0  0  0  0  0
    3.6108   -0.4955   -3.9477 C   0  0  0  0  0  0  0  0  0  0  0  0
    2.2583   -1.4952   -3.6363 Cl  0  0  0  0  0  0  0  0  0  0  0  0
    2.1719    1.2931   -1.7544 C   0  0  0  0  0  0  0  0  0  0  0  0
    1.2209    2.0799   -1.0579 C   0  0  0  0  0  0  0  0  0  0  0  0
    0.8207    3.3241   -1.5762 C   0  0  0  0  0  0  0  0  0  0  0  0
   -0.2333    4.0933   -0.9395 C   0  0  0  0  0  0  0  0  0  0  0  0
   -0.0451    5.7794   -0.5609 S   0  0  0  0  0  0  0  0  0  0  0  0
   -1.6393    5.8887    0.1030 C   0  0  0  0  0  0  0  0  0  0  0  0
   -2.1797    7.1827    0.6027 C   0  0  0  0  0  0  0  0  0  0  0  0
   -2.7805    7.9979   -0.5451 C   0  0  0  0  0  0  0  0  0  0  0  0
   -2.2731    4.6853    0.0157 C   0  0  0  0  0  0  0  0  0  0  0  0
   -1.4799    3.6632   -0.5703 C   0  0  0  0  0  0  0  0  0  0  0  0
   -2.0851    2.0797   -0.8583 Cl  0  0  0  0  0  0  0  0  0  0  0  0
   -3.8764    4.4046    0.5619 Cl  0  0  0  0  0  0  0  0  0  0  0  0
    1.4710    3.7625   -2.7210 C   0  0  0  0  0  0  0  0  0  0  0  0
    1.2296    5.3034   -3.4892 S   0  0  0  0  0  0  0  0  0  0  0  0
    0.8301    1.4864    0.1648 C   0  0  0  0  0  0  0  0  0  0  0  0
    1.4415    0.2897    0.4069 C   0  0  0  0  0  0  0  0  0  0  0  0
    2.5429   -0.1579   -0.8726 S   0  0  0  0  0  0  0  0  0  0  0  0
    1.2546   -0.5690    1.5318 C   0  0  0  0  0  0  0  0  0  0  0  0
    0.4105   -0.3810    2.5888 C   0  0  0  0  0  0  0  0  0  0  0  0
    0.4672   -1.4214    3.5454 C   0  0  0  0  0  0  0  0  0  0  0  0
   -0.2414   -1.5279    4.7538 C   0  0  0  0  0  0  0  0  0  0  0  0
   -1.2467   -0.5562    5.1540 C   0  0  0  0  0  0  0  0  0  0  0  0
   -0.9096    1.1388    5.3303 S   0  0  0  0  0  0  0  0  0  0  0  0
   -2.5265    1.4873    5.8456 C   0  0  0  0  0  0  0  0  0  0  0  0
   -2.9320    2.8650    6.2378 C   0  0  0  0  0  0  0  0  0  0  0  0
   -2.5988    3.1364    7.7067 C   0  0  0  0  0  0  0  0  0  0  0  0
   -3.2681    0.3448    5.8781 C   0  0  0  0  0  0  0  0  0  0  0  0
   -4.9128    0.2818    6.3614 Cl  0  0  0  0  0  0  0  0  0  0  0  0
   -2.5513   -0.8123    5.4723 C   0  0  0  0  0  0  0  0  0  0  0  0
   -3.2891   -2.3507    5.3047 Cl  0  0  0  0  0  0  0  0  0  0  0  0
    0.0353   -2.6282    5.5525 C   0  0  0  0  0  0  0  0  0  0  0  0
    0.9277   -3.6577    5.1678 C   0  0  0  0  0  0  0  0  0  0  0  0
    1.5946   -3.5817    3.9325 C   0  0  0  0  0  0  0  0  0  0  0  0
    2.4865   -4.6393    3.4866 C   0  0  0  0  0  0  0  0  0  0  0  0
    3.8014   -5.2005    4.4767 S   0  0  0  0  0  0  0  0  0  0  0  0
    4.3044   -6.3576    3.2931 C   0  0  0  0  0  0  0  0  0  0  0  0
    5.5010   -7.2162    3.5105 C   0  0  0  0  0  0  0  0  0  0  0  0
    6.7776   -6.4993    3.0647 C   0  0  0  0  0  0  0  0  0  0  0  0
    3.4956   -6.2958    2.1980 C   0  0  0  0  0  0  0  0  0  0  0  0
    2.4625   -5.3264    2.3043 C   0  0  0  0  0  0  0  0  0  0  0  0
    1.2611   -5.1304    1.0989 Cl  0  0  0  0  0  0  0  0  0  0  0  0
    3.6731   -7.3025    0.8207 Cl  0  0  0  0  0  0  0  0  0  0  0  0
    1.3683   -2.4472    3.1633 C   0  0  0  0  0  0  0  0  0  0  0  0
    2.1483   -2.0674    1.6571 S   0  0  0  0  0  0  0  0  0  0  0  0
    0.9990   -4.6761    6.1454 C   0  0  0  0  0  0  0  0  0  0  0  0
    0.2402   -4.4371    7.2561 C   0  0  0  0  0  0  0  0  0  0  0  0
   -0.6209   -2.9177    7.1380 S   0  0  0  0  0  0  0  0  0  0  0  0
    0.1152   -5.3244    8.3682 C   0  0  0  0  0  0  0  0  0  0  0  0
   -0.5523   -5.1787    9.5631 C   0  0  0  0  0  0  0  0  0  0  0  0
   -0.4280   -6.3330   10.4013 C   0  0  0  0  0  0  0  0  0  0  0  0
    0.3286   -7.3500    9.7779 C   0  0  0  0  0  0  0  0  0  0  0  0
    0.8954   -6.8897    8.2120 S   0  0  0  0  0  0  0  0  0  0  0  0
    0.6072   -8.5343   10.2886 N   0  0  0  0  0  0  0  0  0  0  0  0
    0.1222   -8.7679   11.4853 C   0  0  0  0  0  0  0  0  0  0  0  0
   -0.6602   -7.8584   12.2206 C   0  0  0  0  0  0  0  0  0  0  0  0
   -0.9553   -6.6215   11.6820 C   0  0  0  0  0  0  0  0  0  0  0  0
   -1.7725   -5.6342   12.4626 C   0  0  0  0  0  0  0  0  0  0  0  0
   -0.8763   -4.7959   13.3776 C   0  0  0  0  0  0  0  0  0  0  0  0
   -1.1470   -8.4182   13.5259 C   0  0  0  0  0  0  0  0  0  0  0  0
   -0.2598   -9.6118   13.8696 C   0  0  0  0  0  0  0  0  0  0  0  0
    0.4037  -10.2850   12.2959 S   0  0  0  0  0  0  0  0  0  0  0  0
   -1.2592   -3.9559    9.9631 C   0  0  0  0  0  0  0  0  0  0  0  0
   -2.4530   -3.5403    9.5190 C   0  0  0  0  0  0  0  0  0  0  0  0
   -3.2699   -4.1662    8.5208 C   0  0  0  0  0  0  0  0  0  0  0  0
   -4.4131   -3.6505    7.9846 C   0  0  0  0  0  0  0  0  0  0  0  0
   -4.9331   -4.4128    6.9057 C   0  0  0  0  0  0  0  0  0  0  0  0
   -6.0307   -4.1345    6.0746 C   0  0  0  0  0  0  0  0  0  0  0  0
   -6.8422   -2.9444    6.2695 C   0  0  0  0  0  0  0  0  0  0  0  0
   -7.5990   -2.5973    7.7962 S   0  0  0  0  0  0  0  0  0  0  0  0
   -8.2845   -1.1197    7.2117 C   0  0  0  0  0  0  0  0  0  0  0  0
   -9.1643   -0.2796    8.0700 C   0  0  0  0  0  0  0  0  0  0  0  0
  -10.6229   -0.7309    7.9647 C   0  0  0  0  0  0  0  0  0  0  0  0
   -7.9424   -0.9250    5.9077 C   0  0  0  0  0  0  0  0  0  0  0  0
   -8.4262    0.4399    4.9887 Cl  0  0  0  0  0  0  0  0  0  0  0  0
   -7.1217   -1.9532    5.3704 C   0  0  0  0  0  0  0  0  0  0  0  0
   -6.4849   -1.8791    3.7822 Cl  0  0  0  0  0  0  0  0  0  0  0  0
   -6.2728   -5.0219    5.0313 C   0  0  0  0  0  0  0  0  0  0  0  0
   -5.4343   -6.1261    4.7376 C   0  0  0  0  0  0  0  0  0  0  0  0
   -4.3191   -6.3833    5.5465 C   0  0  0  0  0  0  0  0  0  0  0  0
   -3.3510   -7.4351    5.2743 C   0  0  0  0  0  0  0  0  0  0  0  0
   -1.6599   -7.0324    5.1574 S   0  0  0  0  0  0  0  0  0  0  0  0
   -1.2023   -8.6841    4.9206 C   0  0  0  0  0  0  0  0  0  0  0  0
    0.2308   -9.0657    4.7876 C   0  0  0  0  0  0  0  0  0  0  0  0
    0.9710   -8.1745    3.7941 C   0  0  0  0  0  0  0  0  0  0  0  0
   -2.3056   -9.4839    4.9206 C   0  0  0  0  0  0  0  0  0  0  0  0
   -3.5254   -8.7795    5.1194 C   0  0  0  0  0  0  0  0  0  0  0  0
   -5.0431   -9.5731    5.2333 Cl  0  0  0  0  0  0  0  0  0  0  0  0
   -2.2577  -11.1881    4.7195 Cl  0  0  0  0  0  0  0  0  0  0  0  0
   -4.1200   -5.5339    6.6263 C   0  0  0  0  0  0  0  0  0  0  0  0
   -2.8124   -5.6738    7.7587 S   0  0  0  0  0  0  0  0  0  0  0  0
   -5.8784   -6.8304    3.5809 C   0  0  0  0  0  0  0  0  0  0  0  0
   -7.0133   -6.3199    3.0620 C   0  0  0  0  0  0  0  0  0  0  0  0
   -7.6062   -4.9376    3.9150 S   0  0  0  0  0  0  0  0  0  0  0  0
   -0.7526   -1.9423  -11.0201 H   0  0  0  0  0  0  0  0  0  0  0  0
    0.8207   -0.5836  -12.5857 H   0  0  0  0  0  0  0  0  0  0  0  0
    3.8393    1.7763  -17.1658 H   0  0  0  0  0  0  0  0  0  0  0  0
    2.8252    3.1957  -16.8396 H   0  0  0  0  0  0  0  0  0  0  0  0
    5.1460    3.8889  -17.3753 H   0  0  0  0  0  0  0  0  0  0  0  0
    5.7646    2.8972  -16.0510 H   0  0  0  0  0  0  0  0  0  0  0  0
    4.7544    4.3034  -15.7021 H   0  0  0  0  0  0  0  0  0  0  0  0
   -1.7027    4.7626   -4.5762 H   0  0  0  0  0  0  0  0  0  0  0  0
   -1.3837    3.4704   -3.4045 H   0  0  0  0  0  0  0  0  0  0  0  0
   -3.8194    3.7439   -3.7628 H   0  0  0  0  0  0  0  0  0  0  0  0
   -3.6162    3.4359   -5.4924 H   0  0  0  0  0  0  0  0  0  0  0  0
   -3.2839    2.1565   -4.3200 H   0  0  0  0  0  0  0  0  0  0  0  0
    1.7253    4.5983   -7.7812 H   0  0  0  0  0  0  0  0  0  0  0  0
    4.1657    7.5855   -4.9978 H   0  0  0  0  0  0  0  0  0  0  0  0
    5.3079    8.8552   -4.5605 H   0  0  0  0  0  0  0  0  0  0  0  0
    7.1742    7.4887   -5.5138 H   0  0  0  0  0  0  0  0  0  0  0  0
    6.3177    6.6273   -4.2298 H   0  0  0  0  0  0  0  0  0  0  0  0
    6.0222    6.2149   -5.9190 H   0  0  0  0  0  0  0  0  0  0  0  0
    5.6311   10.9156   -5.0346 H   0  0  0  0  0  0  0  0  0  0  0  0
    7.1827   10.4919   -5.7706 H   0  0  0  0  0  0  0  0  0  0  0  0
    7.1077   12.7866   -6.3926 H   0  0  0  0  0  0  0  0  0  0  0  0
    5.3335   12.8122   -6.4077 H   0  0  0  0  0  0  0  0  0  0  0  0
    4.0352    4.7258   -6.8469 H   0  0  0  0  0  0  0  0  0  0  0  0
    2.1491    6.8230   -5.6621 H   0  0  0  0  0  0  0  0  0  0  0  0
    3.6026    3.2117   -5.2580 H   0  0  0  0  0  0  0  0  0  0  0  0
    7.0132   -1.0823   -6.1678 H   0  0  0  0  0  0  0  0  0  0  0  0
    7.3328    0.6570   -6.0207 H   0  0  0  0  0  0  0  0  0  0  0  0
    9.0935   -0.6648   -4.8671 H   0  0  0  0  0  0  0  0  0  0  0  0
    8.1819    0.3017   -3.7011 H   0  0  0  0  0  0  0  0  0  0  0  0
    7.8680   -1.4302   -3.8506 H   0  0  0  0  0  0  0  0  0  0  0  0
   -2.9500    6.9773    1.3481 H   0  0  0  0  0  0  0  0  0  0  0  0
   -1.3779    7.7537    1.0736 H   0  0  0  0  0  0  0  0  0  0  0  0
   -3.1717    8.9396   -0.1698 H   0  0  0  0  0  0  0  0  0  0  0  0
   -2.0219    8.2072   -1.2955 H   0  0  0  0  0  0  0  0  0  0  0  0
   -3.5909    7.4460   -1.0143 H   0  0  0  0  0  0  0  0  0  0  0  0
    0.1409    1.9429    0.8498 H   0  0  0  0  0  0  0  0  0  0  0  0
   -0.2300    0.4755    2.6869 H   0  0  0  0  0  0  0  0  0  0  0  0
   -2.4125    3.5888    5.6074 H   0  0  0  0  0  0  0  0  0  0  0  0
   -4.0071    2.9714    6.0812 H   0  0  0  0  0  0  0  0  0  0  0  0
   -2.9002    4.1445    7.9780 H   0  0  0  0  0  0  0  0  0  0  0  0
   -1.5296    3.0331    7.8758 H   0  0  0  0  0  0  0  0  0  0  0  0
   -3.1222    2.4309    8.3470 H   0  0  0  0  0  0  0  0  0  0  0  0
    5.3805   -8.1364    2.9356 H   0  0  0  0  0  0  0  0  0  0  0  0
    5.5768   -7.4701    4.5691 H   0  0  0  0  0  0  0  0  0  0  0  0
    7.6409   -7.1388    3.2272 H   0  0  0  0  0  0  0  0  0  0  0  0
    6.9112   -5.5803    3.6304 H   0  0  0  0  0  0  0  0  0  0  0  0
    6.7205   -6.2519    2.0078 H   0  0  0  0  0  0  0  0  0  0  0  0
    1.5965   -5.5629    6.0417 H   0  0  0  0  0  0  0  0  0  0  0  0
   -2.3067   -4.9776   11.7771 H   0  0  0  0  0  0  0  0  0  0  0  0
   -2.5090   -6.1677   13.0659 H   0  0  0  0  0  0  0  0  0  0  0  0
   -1.4729   -4.0711   13.9262 H   0  0  0  0  0  0  0  0  0  0  0  0
   -0.3548   -5.4271   14.0936 H   0  0  0  0  0  0  0  0  0  0  0  0
   -0.1284   -4.2624   12.7961 H   0  0  0  0  0  0  0  0  0  0  0  0
   -2.1862   -8.7417   13.4046 H   0  0  0  0  0  0  0  0  0  0  0  0
   -1.1128   -7.6838   14.3305 H   0  0  0  0  0  0  0  0  0  0  0  0
    0.5984   -9.3129   14.4726 H   0  0  0  0  0  0  0  0  0  0  0  0
   -0.7949  -10.4078   14.3813 H   0  0  0  0  0  0  0  0  0  0  0  0
   -0.7502   -3.3580   10.7092 H   0  0  0  0  0  0  0  0  0  0  0  0
   -2.8598   -2.6165    9.9100 H   0  0  0  0  0  0  0  0  0  0  0  0
   -4.8486   -2.7261    8.3188 H   0  0  0  0  0  0  0  0  0  0  0  0
   -9.0796    0.7597    7.7461 H   0  0  0  0  0  0  0  0  0  0  0  0
   -8.8343   -0.3519    9.1077 H   0  0  0  0  0  0  0  0  0  0  0  0
  -10.9681   -0.6503    6.9371 H   0  0  0  0  0  0  0  0  0  0  0  0
  -11.2531   -0.1084    8.5942 H   0  0  0  0  0  0  0  0  0  0  0  0
  -10.7217   -1.7655    8.2845 H   0  0  0  0  0  0  0  0  0  0  0  0
    0.7090   -8.9807    5.7687 H   0  0  0  0  0  0  0  0  0  0  0  0
    0.2841  -10.1097    4.4740 H   0  0  0  0  0  0  0  0  0  0  0  0
    2.0201   -8.4544    3.7476 H   0  0  0  0  0  0  0  0  0  0  0  0
    0.9000   -7.1329    4.0996 H   0  0  0  0  0  0  0  0  0  0  0  0
    0.5419   -8.2695    2.7998 H   0  0  0  0  0  0  0  0  0  0  0  0
   -5.3628   -7.6789    3.1714 H   0  0  0  0  0  0  0  0  0  0  0  0
   -7.5602   -6.6643    2.2060 H   0  0  0  0  0  0  0  0  0  0  0  0
  1  2  2  0  0  0  0
  2  3  1  0  0  0  0
  3  4  2  0  0  0  0
  4  5  1  0  0  0  0
  5  6  1  0  0  0  0
  6  7  1  0  0  0  0
  7  8  1  0  0  0  0
  8  9  1  0  0  0  0
  7 10  2  0  0  0  0
 10 11  1  0  0  0  0
 10 12  1  0  0  0  0
 12 13  1  0  0  0  0
  4 14  1  0  0  0  0
 14 15  2  0  0  0  0
 15 16  1  0  0  0  0
 16 17  1  0  0  0  0
 17 18  1  0  0  0  0
 18 19  1  0  0  0  0
 19 20  1  0  0  0  0
 20 21  1  0  0  0  0
 19 22  2  0  0  0  0
 22 23  1  0  0  0  0
 23 24  1  0  0  0  0
 22 25  1  0  0  0  0
 16 26  2  0  0  0  0
 26 27  1  0  0  0  0
 15 28  1  0  0  0  0
 28 29  2  0  0  0  0
 29 30  1  0  0  0  0
 29 31  1  0  0  0  0
 31 32  2  0  0  0  0
 32 33  1  0  0  0  0
 33 34  2  0  0  0  0
 34 35  1  0  0  0  0
 34 36  1  0  0  0  0
 36 37  2  0  0  0  0
 37 38  1  0  0  0  0
 38 39  2  0  0  0  0
 39 40  1  0  0  0  0
 40 41  1  0  0  0  0
 38 42  1  0  0  0  0
 42 43  1  0  0  0  0
 43 44  1  0  0  0  0
 32 45  1  0  0  0  0
 45 46  2  0  0  0  0
 46 47  1  0  0  0  0
 47 48  2  0  0  0  0
 48 49  1  0  0  0  0
 49 50  2  0  0  0  0
 50 51  1  0  0  0  0
 51 52  1  0  0  0  0
 52 53  1  0  0  0  0
 53 54  1  0  0  0  0
 54 55  1  0  0  0  0
 53 56  2  0  0  0  0
 56 57  1  0  0  0  0
 56 58  1  0  0  0  0
 58 59  1  0  0  0  0
 50 60  1  0  0  0  0
 60 61  2  0  0  0  0
 61 62  1  0  0  0  0
 62 63  1  0  0  0  0
 63 64  1  0  0  0  0
 64 65  1  0  0  0  0
 65 66  1  0  0  0  0
 66 67  1  0  0  0  0
 65 68  2  0  0  0  0
 68 69  1  0  0  0  0
 69 70  1  0  0  0  0
 68 71  1  0  0  0  0
 62 72  2  0  0  0  0
 72 73  1  0  0  0  0
 61 74  1  0  0  0  0
 74 75  2  0  0  0  0
 75 76  1  0  0  0  0
 75 77  1  0  0  0  0
 77 78  2  0  0  0  0
 78 79  1  0  0  0  0
 79 80  2  0  0  0  0
 80 81  1  0  0  0  0
 81 82  1  0  0  0  0
 82 83  1  0  0  0  0
 83 84  1  0  0  0  0
 84 85  1  0  0  0  0
 83 86  2  0  0  0  0
 86 87  1  0  0  0  0
 86 88  1  0  0  0  0
 88 89  1  0  0  0  0
 80 90  1  0  0  0  0
 90 91  2  0  0  0  0
 91 92  1  0  0  0  0
 92 93  1  0  0  0  0
 93 94  1  0  0  0  0
 94 95  1  0  0  0  0
 95 96  1  0  0  0  0
 96 97  1  0  0  0  0
 95 98  2  0  0  0  0
 98 99  1  0  0  0  0
 99100  1  0  0  0  0
 98101  1  0  0  0  0
 92102  2  0  0  0  0
102103  1  0  0  0  0
 91104  1  0  0  0  0
104105  2  0  0  0  0
105106  1  0  0  0  0
105107  1  0  0  0  0
107108  2  0  0  0  0
108109  1  0  0  0  0
109110  2  0  0  0  0
110111  1  0  0  0  0
110112  1  0  0  0  0
112113  2  0  0  0  0
113114  1  0  0  0  0
114115  2  0  0  0  0
115116  1  0  0  0  0
116117  1  0  0  0  0
114118  1  0  0  0  0
118119  1  0  0  0  0
119120  1  0  0  0  0
108121  1  0  0  0  0
121122  2  0  0  0  0
122123  1  0  0  0  0
123124  2  0  0  0  0
124125  1  0  0  0  0
125126  2  0  0  0  0
126127  1  0  0  0  0
127128  1  0  0  0  0
128129  1  0  0  0  0
129130  1  0  0  0  0
130131  1  0  0  0  0
129132  2  0  0  0  0
132133  1  0  0  0  0
132134  1  0  0  0  0
134135  1  0  0  0  0
126136  1  0  0  0  0
136137  2  0  0  0  0
137138  1  0  0  0  0
138139  1  0  0  0  0
139140  1  0  0  0  0
140141  1  0  0  0  0
141142  1  0  0  0  0
142143  1  0  0  0  0
141144  2  0  0  0  0
144145  1  0  0  0  0
145146  1  0  0  0  0
144147  1  0  0  0  0
138148  2  0  0  0  0
148149  1  0  0  0  0
137150  1  0  0  0  0
150151  2  0  0  0  0
151152  1  0  0  0  0
 27  1  1  0  0  0  0
 35 31  1  0  0  0  0
 44 37  1  0  0  0  0
 73 47  1  0  0  0  0
103 77  1  0  0  0  0
111107  1  0  0  0  0
120113  1  0  0  0  0
149123  1  0  0  0  0
 26  3  1  0  0  0  0
 39 33  1  0  0  0  0
 72 49  1  0  0  0  0
102 79  1  0  0  0  0
115109  1  0  0  0  0
148125  1  0  0  0  0
 12  5  2  0  0  0  0
 30 14  1  0  0  0  0
 58 51  2  0  0  0  0
 76 60  1  0  0  0  0
 88 81  2  0  0  0  0
106 90  1  0  0  0  0
134127  2  0  0  0  0
152136  1  0  0  0  0
 23 17  2  0  0  0  0
 69 63  2  0  0  0  0
 99 93  2  0  0  0  0
145139  2  0  0  0  0
  1153  1  0  0  0  0
  2154  1  0  0  0  0
  8155  1  0  0  0  0
  8156  1  0  0  0  0
  9157  1  0  0  0  0
  9158  1  0  0  0  0
  9159  1  0  0  0  0
 20160  1  0  0  0  0
 20161  1  0  0  0  0
 21162  1  0  0  0  0
 21163  1  0  0  0  0
 21164  1  0  0  0  0
 28165  1  0  0  0  0
 40166  1  0  0  0  0
 40167  1  0  0  0  0
 41168  1  0  0  0  0
 41169  1  0  0  0  0
 41170  1  0  0  0  0
 42171  1  0  0  0  0
 42172  1  0  0  0  0
 43173  1  0  0  0  0
 43174  1  0  0  0  0
 45175  1  0  0  0  0
 46176  1  0  0  0  0
 48177  1  0  0  0  0
 54178  1  0  0  0  0
 54179  1  0  0  0  0
 55180  1  0  0  0  0
 55181  1  0  0  0  0
 55182  1  0  0  0  0
 66183  1  0  0  0  0
 66184  1  0  0  0  0
 67185  1  0  0  0  0
 67186  1  0  0  0  0
 67187  1  0  0  0  0
 74188  1  0  0  0  0
 78189  1  0  0  0  0
 84190  1  0  0  0  0
 84191  1  0  0  0  0
 85192  1  0  0  0  0
 85193  1  0  0  0  0
 85194  1  0  0  0  0
 96195  1  0  0  0  0
 96196  1  0  0  0  0
 97197  1  0  0  0  0
 97198  1  0  0  0  0
 97199  1  0  0  0  0
104200  1  0  0  0  0
116201  1  0  0  0  0
116202  1  0  0  0  0
117203  1  0  0  0  0
117204  1  0  0  0  0
117205  1  0  0  0  0
118206  1  0  0  0  0
118207  1  0  0  0  0
119208  1  0  0  0  0
119209  1  0  0  0  0
121210  1  0  0  0  0
122211  1  0  0  0  0
124212  1  0  0  0  0
130213  1  0  0  0  0
130214  1  0  0  0  0
131215  1  0  0  0  0
131216  1  0  0  0  0
131217  1  0  0  0  0
142218  1  0  0  0  0
142219  1  0  0  0  0
143220  1  0  0  0  0
143221  1  0  0  0  0
143222  1  0  0  0  0
150223  1  0  0  0  0
151224  1  0  0  0  0
M  END
