239

C          4.31610       -0.43840        2.78170
C          4.11840        0.89320        2.71380
C          2.96060        1.32210        3.42860
C          2.48270        2.63100        3.61580
C          3.16970        3.79840        3.08210
S          3.59420        5.09680        4.16360
C          4.35230        6.01100        2.90730
C          4.97240        7.33610        3.18430
C          3.91980        8.44360        3.26050
C          4.25500        5.34820        1.72140
Cl         4.87310        5.94540        0.23590
C          3.59780        4.09120        1.81720
Cl         3.35060        3.10920        0.43420
C          1.35060        2.77420        4.41120
C          0.70110        1.68290        5.03320
C          1.21310        0.38250        4.89430
C          0.63100       -0.71840        5.63980
S          0.18830       -2.21210        4.87980
C         -0.39780       -2.88740        6.35400
C         -0.91570       -4.28230        6.41440
C          0.08320       -5.19640        7.12650
C         -0.24750       -1.99600        7.37560
C          0.33780       -0.76740        6.97750
Cl         0.72120        0.47050        8.10620
Cl        -0.73080       -2.30350        8.99380
C          2.31110        0.23090        4.05740
S          3.13240       -1.27060        3.73180
C         -0.45450        2.08050        5.74730
C         -0.68490        3.42200        5.71050
S          0.53220        4.26600        4.76810
C         -1.75230        4.18070        6.28730
C         -2.93490        3.75410        6.85390
C         -3.76080        4.85190        7.26430
C         -3.15940        6.09470        6.96740
S         -1.59990        5.92450        6.24320
N         -3.69030        7.28600        7.17370
C         -4.88750        7.29160        7.70930
C         -5.60600        6.13580        8.06920
C         -5.05210        4.89010        7.84490
C         -5.79040        3.64670        8.24270
C         -5.50470        3.28760        9.70260
C         -6.92300        6.44380        8.71880
C         -7.28840        7.88120        8.35830
S         -5.72600        8.78560        8.02920
C         -3.30980        2.35100        7.05330
C         -3.57890        1.41830        6.12580
C         -3.54090        1.57510        4.70010
C         -3.26420        2.68220        3.95860
C         -3.23670        2.44620        2.56690
C         -2.80130        3.34360        1.58190
C         -2.20380        4.62180        1.94420
S         -3.05090        5.89170        2.77260
C         -1.64270        6.89580        2.83540
C         -1.64830        8.24950        3.45810
C         -3.02140        8.67400        3.95780
C         -0.58680        6.26230        2.25030
Cl         0.98420        6.93450        2.14220
C         -0.90010        4.97540        1.74480
Cl         0.26560        3.94390        1.03320
C         -2.83540        2.89710        0.27190
C         -3.27060        1.59590       -0.07960
C         -3.59550        0.65620        0.91920
C         -3.85610       -0.72870        0.56560
S         -2.76880       -1.58360       -0.49550
C         -3.68530       -3.04560       -0.40020
C         -3.29570       -4.24330       -1.19370
C         -3.68120       -4.07460       -2.66540
C         -4.76850       -2.86790        0.40760
C         -4.86530       -1.56210        0.96120
Cl        -6.18790       -1.08270        1.93830
Cl        -5.92670       -4.09030        0.73930
C         -3.57420        1.11030        2.23430
S         -3.83250        0.17540        3.67860
C         -3.26580        1.41350       -1.48400
C         -2.79970        2.49470       -2.17350
S         -2.36950        3.82300       -1.12490
C         -2.49380        2.50600       -3.57200
C         -3.05950        1.74280       -4.54930
C         -2.29300        1.70290       -5.74100
C         -2.44460        0.79910       -6.80720
C         -3.60510       -0.08180       -6.88440
S         -5.19550        0.53530       -7.20880
C         -5.90490       -1.04380       -7.14000
C         -7.37150       -1.23930       -7.30570
C         -8.10930       -0.99280       -5.98740
C         -4.95290       -1.97840       -6.86330
Cl        -5.26780       -3.65710       -6.70580
C         -3.64690       -1.43670       -6.71800
Cl        -2.29350       -2.40270       -6.29700
C         -1.36340        0.64850       -7.65670
C         -0.16010        1.38830       -7.51710
C         -0.05090        2.37030       -6.51970
C          1.19100        3.08010       -6.25080
S          2.67770        2.23000       -5.93390
C          3.53580        3.69610       -5.59970
C          4.98930        3.67220       -5.28090
C          5.81240        3.25480       -6.50060
C          2.70680        4.76970       -5.72840
C          1.37350        4.42280       -6.07990
Cl         0.14360        5.59040       -6.32420
Cl         3.19520        6.39660       -5.48780
C         -1.12140        2.49030       -5.64100
S         -1.05580        3.33930       -4.12420
C          0.90280        0.80070       -8.24250
C          0.57050       -0.39660       -8.81620
S         -1.17060       -0.66180       -8.79480
C          1.44270       -1.52830       -8.81280
C          1.03430       -2.82190       -8.64780
C          1.90340       -3.58890       -7.82760
C          1.56540       -4.76620       -7.13840
C          0.29090       -5.42440       -7.39170
S         -0.14320       -6.05400       -8.95070
C         -1.72690       -6.50240       -8.41500
C         -2.73110       -7.08170       -9.34860
C         -3.58330       -5.97340       -9.97350
C         -1.89670       -6.16770       -7.10490
Cl        -3.33930       -6.45410       -6.22420
C         -0.75750       -5.55330       -6.52140
Cl        -0.76820       -4.95280       -4.91750
C          2.35900       -5.11370       -6.05110
C          3.41390       -4.29230       -5.58430
C          3.77550       -3.14020       -6.29630
C          4.67240       -2.14560       -5.71310
S          6.18060       -1.66550       -6.41550
C          6.45350       -0.46750       -5.19270
C          7.70980        0.33060       -5.16850
C          8.86890       -0.48850       -4.59610
C          5.42210       -0.45380       -4.30220
C          4.40740       -1.40160       -4.59890
Cl         2.97100       -1.55530       -3.67340
Cl         5.31740        0.59970       -2.95080
C          3.03420       -2.83670       -7.42400
S          3.08550       -1.28320       -8.21520
C          3.83010       -4.66040       -4.27880
C          3.14860       -5.72200       -3.77670
S          2.03920       -6.41700       -4.94030
C          3.06060       -6.06460       -2.37780
C          2.65320       -5.16320       -1.44570
C          2.56110       -5.69970       -0.13590
C          2.16070       -5.04920        1.04420
C          1.71010       -3.66550        1.03540
S          2.62290       -2.40860        0.24620
C          1.48860       -1.18440        0.68900
C          1.63670        0.22690        0.24420
C          0.71920        0.53300       -0.94290
C          0.46970       -1.72640        1.41270
Cl        -0.79720       -0.78250        2.08210
C          0.57970       -3.13040        1.59440
Cl        -0.66820       -4.04920        2.31930
C          2.22430       -5.79850        2.21630
C          2.62260       -7.15780        2.24020
C          2.94870       -7.82230        1.04940
C          3.32770       -9.22690        1.02860
S          4.65890       -9.82550        1.97350
C          4.47210      -11.43450        1.36370
C          5.33810      -12.54770        1.84030
C          4.78650      -13.15610        3.13200
C          3.42680      -11.49030        0.49140
C          2.78090      -10.24020        0.29210
Cl         1.40600      -10.06430       -0.71590
Cl         2.92520      -12.92240       -0.30930
C          2.91660       -7.06960       -0.11760
S          3.34400       -7.64690       -1.70540
C          2.62440       -7.68440        3.56430
C          2.28000       -6.76710        4.48970
S          1.90810       -5.21450        3.82420
H          5.10180       -1.01180        2.33010
H          4.76960        1.56300        2.18440
H          5.51230        7.28720        4.13220
H          5.68440        7.56000        2.38760
H          4.39490        9.39450        3.48670
H          3.19330        8.22020        4.03810
H          3.39610        8.53300        2.31230
H         -1.86690       -4.29460        6.95190
H         -1.08360       -4.64090        5.39840
H         -0.25950       -6.22700        7.08790
H          0.19180       -4.90280        8.16700
H          1.05480       -5.12550        6.64410
H         -1.08890        1.38850        6.26430
H         -5.49120        2.82340        7.59460
H         -6.86370        3.80060        8.11800
H         -5.85560        4.07360       10.36680
H         -4.43690        3.16140        9.86590
H         -6.00950        2.36180        9.96710
H         -6.81730        6.34350        9.80350
H         -7.71190        5.76390        8.39420
H         -7.81980        8.39790        9.15360
H         -7.87990        7.92750        7.44320
H         -3.38190        2.05720        8.09390
H         -3.84330        0.42450        6.46470
H         -3.09740        3.65470        4.37460
H         -1.27870        8.96790        2.71950
H         -0.93780        8.24890        4.29070
H         -2.97960        9.68810        4.34530
H         -3.75040        8.63920        3.15110
H         -3.35620        8.02180        4.76040
H         -3.79980       -5.11740       -0.77820
H         -2.21660       -4.39490       -1.11830
H         -3.17150       -3.21440       -3.09470
H         -3.39940       -4.95970       -3.22870
H         -4.75460       -3.92840       -2.76280
H         -3.56350        0.50420       -1.97150
H         -3.96040        1.17400       -4.40800
H         -7.74640       -0.55100       -8.06510
H         -7.55160       -2.26250       -7.64040
H         -7.75880       -1.68320       -5.22420
H         -7.93700        0.02420       -5.64280
H         -9.17720       -1.13850       -6.12440
H          5.28730        4.66920       -4.95300
H          5.17070        2.96920       -4.46510
H          5.54120        2.24780       -6.81060
H          6.87200        3.27540       -6.26140
H          5.63070        3.93550       -7.32870
H          1.91780        1.14940       -8.19020
H          0.05830       -3.16150       -8.94590
H         -2.22030       -7.63980      -10.13440
H         -3.37550       -7.76620       -8.79330
H         -2.95730       -5.28980      -10.54210
H         -4.32600       -6.40360      -10.63990
H         -4.09550       -5.41020       -9.19750
H          7.54710        1.21600       -4.55210
H          7.95870        0.64750       -6.18280
H          9.77720        0.10770       -4.58410
H          9.04030       -1.37430       -5.20300
H          8.64420       -0.80120       -3.57950
H          4.57070       -4.12220       -3.71610
H          2.40720       -4.14910       -1.69960
H          2.67450        0.40770       -0.03780
H          1.37950        0.88950        1.07450
H          0.97900       -0.08870       -1.79640
H         -0.31980        0.34530       -0.68080
H          0.82360        1.57640       -1.22930
H          6.34740      -12.17240        2.01750
H          5.37970      -13.31430        1.06450
H          3.78420      -13.54360        2.96750
H          4.74510      -12.40370        3.91600
H          5.42490      -13.97060        3.46320
H          2.87900       -8.70150        3.79710
H          2.21300       -6.90490        5.55100
