218

C          6.64520       -9.01280       10.26680
C          5.50890       -9.01740       10.99300
C          4.33860       -9.13070       10.18740
C          2.99610       -9.11500       10.59750
C          2.63790       -9.07800       12.00600
S          1.56800       -7.86260       12.63790
C          1.67960       -8.49100       14.24600
C          0.98620       -7.82370       15.38170
C          1.80310       -6.63850       15.90210
C          2.50260       -9.57730       14.27550
Cl         2.85750      -10.47300       15.69580
C          3.04550       -9.91550       13.00690
Cl         4.04820      -11.28740       12.76430
C          2.03160       -9.11820        9.59840
C          2.35190       -9.16970        8.21990
C          3.69460       -9.23150        7.80940
C          4.05560       -9.29210        6.40280
S          3.45790       -8.11920        5.26450
C          4.31690       -8.84010        3.94670
C          4.26750       -8.25300        2.57960
C          5.29010       -7.12410        2.43010
C          5.02700       -9.91910        4.38050
C          4.87990      -10.18090        5.76970
Cl         5.60180      -11.53680        6.52810
Cl         6.00360      -10.89370        3.36090
C          4.65950       -9.20230        8.81000
S          6.38120       -9.14620        8.56410
C          1.18980       -9.16790        7.41130
C          0.02890       -9.11060        8.12510
S          0.30850       -9.08230        9.85320
C         -1.29120       -9.01320        7.59680
C         -2.48770       -8.97690        8.25920
C         -3.60890       -8.78570        7.41910
C         -3.23900       -8.66920        6.08820
S         -1.52320       -8.82250        5.88090
C         -4.05590       -8.34270        4.98940
C         -5.43840       -8.26150        4.94850
C         -6.42750       -8.63240        5.96940
O         -7.57270       -8.83800        5.61510
N         -6.12120       -8.68220        7.32570
C         -4.93110       -8.68490        8.05200
O         -4.98490       -8.64750        9.26650
C         -7.31440       -8.80600        8.17830
C         -7.64270      -10.26700        8.45330
C         -5.90550       -7.81140        3.69380
C         -4.90740       -7.54610        2.79320
S         -3.34470       -7.89930        3.47270
C         -4.98240       -6.95490        1.49600
C         -6.01600       -6.25880        0.93830
C         -5.67390       -5.63390       -0.28740
C         -6.43370       -4.70250       -1.02020
C         -7.80740       -4.40370       -0.64720
S         -8.99220       -5.67380       -0.54660
C        -10.25330       -4.57170       -0.11010
C        -11.65100       -5.04170        0.09310
C        -12.36140       -5.24600       -1.24700
C         -9.76900       -3.29920       -0.05250
Cl       -10.71930       -1.92850        0.35100
C         -8.38270       -3.19980       -0.35020
Cl        -7.52930       -1.71790       -0.24260
C         -5.79780       -4.06180       -2.07550
C         -4.46360       -4.35390       -2.45800
C         -3.71780       -5.31610       -1.75680
C         -2.33610       -5.60740       -2.09820
S         -1.16210       -4.33490       -2.27280
C          0.11660       -5.45070       -2.61160
C          1.48650       -4.96340       -2.93100
C          1.51020       -4.22670       -4.27170
C         -0.35340       -6.72940       -2.58600
C         -1.74020       -6.82360       -2.28720
Cl        -2.57340       -8.32060       -2.26230
Cl         0.61450       -8.11580       -2.87960
C         -4.33770       -5.91290       -0.66750
S         -3.55230       -6.94440        0.48720
C         -4.02450       -3.52610       -3.51480
C         -4.94690       -2.59820       -3.90180
S         -6.46630       -2.78390       -3.05440
C         -4.67110       -1.45490       -4.70700
C         -5.40340       -0.31200       -4.83280
C         -4.68170        0.75750       -5.42040
C         -5.09720        2.09500       -5.57360
C         -6.48490        2.46100       -5.37090
S         -6.95460        3.81600       -4.38770
C         -8.63810        3.53100       -4.66160
C         -9.68000        4.36490       -4.00250
C        -10.03830        3.80020       -2.62540
C         -8.81220        2.44670       -5.47040
Cl       -10.34640        1.86260       -5.96960
C         -7.59590        1.83810       -5.87610
Cl        -7.55020        0.50990       -6.96140
C         -4.10630        3.02310       -5.87150
C         -2.76530        2.65040       -6.13360
C         -2.39200        1.29290       -6.15850
C         -1.05130        0.90010       -6.54510
S         -0.11790       -0.24390       -5.62430
C          1.24340       -0.10520       -6.68180
C          2.47400       -0.91790       -6.47800
C          2.42340       -2.19710       -7.31720
C          0.97100        0.76490       -7.69560
C         -0.32530        1.33830       -7.62170
Cl        -0.92520        2.39950       -8.83030
Cl         2.08320        1.15270       -8.94330
C         -3.35310        0.38410       -5.73860
S         -3.07280       -1.30080       -5.41550
C         -1.91550        3.77510       -6.23170
C         -2.56600        4.96570       -6.08570
S         -4.29260        4.75740       -5.87840
C         -1.94980        6.24450       -5.96590
C         -2.51550        7.48230       -5.81900
C         -1.58170        8.51400       -5.57290
C         -0.28130        8.03920       -5.53920
S         -0.21300        6.33420       -5.84870
C          0.89620        8.75060       -5.24230
C          1.01020       10.03400       -4.72910
C         -0.02330       11.03380       -4.42590
O          0.31070       12.04250       -3.83340
N         -1.35100       10.89930       -4.82660
C         -2.07740        9.89170       -5.45590
O         -3.19330       10.14040       -5.86970
C         -2.14750       12.11310       -4.58440
C         -2.01620       13.09640       -5.73930
C          2.35100       10.35860       -4.42250
C          3.24580        9.35790       -4.69570
S          2.43910        7.97010       -5.36570
C          4.65060        9.31140       -4.44690
C          5.41380       10.19590       -3.74250
C          6.76660        9.79090       -3.61190
C          7.81110       10.44570       -2.93740
C          7.56930       11.64490       -2.15320
S          8.51510       13.08750       -2.36090
C          7.66780       13.91700       -1.10170
C          7.97380       15.33420       -0.76370
C          7.12060       16.29320       -1.59760
C          6.70650       13.11240       -0.56510
Cl         5.66690       13.58720        0.71490
C          6.64920       11.82260       -1.15610
Cl         5.58240       10.59820       -0.59900
C          9.07130        9.86370       -3.00920
C          9.32450        8.64790       -3.68800
C          8.27920        7.98610       -4.35060
C          8.49710        6.74700       -5.07960
S          7.52530        5.33810       -4.77670
C          8.35460        4.41130       -5.98080
C          7.94980        3.01040       -6.28080
C          6.63550        2.97480       -7.06390
C          9.31860        5.16630       -6.57890
C          9.40600        6.48970       -6.06760
Cl        10.49540        7.65500       -6.70170
Cl        10.34640        4.59800       -7.83070
C          7.02120        8.56980       -4.28240
S          5.57920        7.94080       -5.02120
C         10.67840        8.23090       -3.53040
C         11.40750        9.09180       -2.79190
S         10.50970       10.45840       -2.22850
H          7.65380       -8.93760       10.62360
H          5.48550       -8.92690       12.06300
H          0.84570       -8.55180       16.18250
H          0.00730       -7.47190       15.05150
H          1.94830       -5.90530       15.11240
H          1.28440       -6.16270       16.72980
H          2.77710       -6.97480       16.24860
H          4.48290       -9.03980        1.85430
H          3.26600       -7.86370        2.38800
H          6.29460       -7.50010        2.60680
H          5.24420       -6.71010        1.42640
H          5.08450       -6.33140        3.14540
H          1.20670       -9.20200        6.33690
H         -2.57950       -9.06810        9.32670
H         -8.14320       -8.32620        7.65750
H         -7.10640       -8.28130        9.11110
H         -7.84180      -10.78850        7.52030
H         -8.52510      -10.32790        9.08380
H         -6.81330      -10.74930        8.96540
H         -6.95260       -7.69220        3.48510
H         -6.97090       -6.14420        1.41640
H        -12.18660       -4.29610        0.68310
H        -11.64130       -5.98370        0.64460
H        -11.84100       -5.99490       -1.83950
H        -13.38200       -5.57950       -1.08060
H        -12.38570       -4.31450       -1.80700
H          2.15930       -5.82160       -2.96540
H          1.82540       -4.28680       -2.14320
H          2.51980       -3.89250       -4.49400
H          0.85160       -3.36130       -4.23970
H          1.17940       -4.88740       -5.06920
H         -3.03980       -3.56730       -3.94210
H         -6.39810       -0.21560       -4.43660
H        -10.57050        4.37870       -4.63380
H         -9.31080        5.38570       -3.89290
H         -9.15990        3.78190       -1.98470
H        -10.42000        2.78690       -2.72100
H        -10.80020        4.41670       -2.15640
H          2.56580       -1.17390       -5.42180
H          3.34120       -0.32400       -6.77370
H          3.32310       -2.78520       -7.15790
H          2.35220       -1.95030       -8.37310
H          1.55960       -2.79580       -7.04020
H         -0.84850        3.70890       -6.34570
H         -3.57440        7.66210       -5.86860
H         -1.78560       12.56330       -3.65970
H         -3.18720       11.80690       -4.46800
H         -2.61670       13.97810       -5.53490
H         -0.97880       13.39990       -5.85900
H         -2.36660       12.63980       -6.66180
H          2.61970       11.31030       -4.00280
H          5.02440       11.10530       -3.32540
H          7.76840       15.49330        0.29670
H          9.03080       15.52980       -0.94990
H          7.35190       17.32180       -1.33510
H          6.06440       16.11530       -1.41260
H          7.31760       16.14980       -2.65720
H          8.74120        2.53700       -6.86400
H          7.82760        2.45940       -5.34590
H          6.35480        1.94660       -7.27590
H          6.74280        3.50710       -8.00550
H          5.84090        3.44410       -6.48860
H         11.06990        7.32020       -3.94400
H         12.44370        9.01600       -2.52580
