226

C        -11.52820       -0.10340        8.95590
C        -11.64650        1.23880        8.90590
C        -11.34550        1.77560        7.61970
C        -11.31430        3.12590        7.23160
C        -11.66640        4.20560        8.16280
C        -12.88140        4.20730        8.84500
C        -13.20700        5.24420        9.69270
C        -12.33170        6.30710        9.91170
S        -12.84930        7.54800       11.06090
C        -12.19440        9.11440       10.37540
C        -12.67840        9.36750        8.96190
C        -11.10930        6.27410        9.24870
F        -10.18450        7.24150        9.44390
C        -10.78350        5.25860        8.37310
C        -10.92030        3.38980        5.93320
C        -10.56490        2.37890        5.00530
C        -10.57190        1.02780        5.40010
C        -10.13280       -0.02390        4.47750
C        -10.87240       -1.19140        4.29540
C        -10.46110       -2.15340        3.39670
C         -9.29760       -1.99100        2.65080
S         -8.82900       -3.26090        1.51040
C         -8.35370       -2.28010        0.02630
C         -8.63140       -3.10420       -1.21470
C         -8.54420       -0.84220        2.87130
C         -8.94870        0.13170        3.75880
F         -7.37720       -0.65490        2.21480
C        -10.98210        0.76330        6.70020
S        -11.04230       -0.81140        7.45230
C        -10.25590        2.91250        3.73790
C        -10.31800        4.28450        3.66530
S        -10.82770        4.97690        5.20210
C         -9.92630        5.04540        2.55030
S         -9.15100        4.18730        1.22540
C         -8.74070        5.68080        0.38570
C         -9.18240        6.79010        1.10520
C         -9.91430        6.42540        2.31120
C        -10.51600        7.37550        3.11530
S        -10.37040        9.05720        2.90890
C         -9.30240        9.18770        1.56720
C         -8.85580        8.13550        0.83820
C         -7.94730        5.53850       -0.76060
S         -7.00120        4.06880       -0.85800
C         -6.16090        4.62540       -2.28800
C         -6.66800        5.81910       -2.74400
C         -7.73470        6.34330       -1.91040
C         -8.49470        7.42490       -2.27220
S         -8.21740        8.39600       -3.67240
C         -6.88440        7.58350       -4.42550
C         -6.29010        6.47580       -3.95510
C         -5.07930        3.81550       -2.75090
C         -3.92750        4.16580       -3.39270
C         -3.01290        3.09120       -3.54740
C         -1.70610        3.14330       -4.06300
C         -1.18930        4.35970       -4.69960
C         -1.92770        5.00320       -5.69290
C         -1.43080        6.12220       -6.32450
C         -0.19010        6.65720       -5.98200
S          0.32550        8.11840       -6.83410
C          2.11960        7.86990       -7.10250
C          2.41030        6.59220       -7.86330
C          0.51940        6.02580       -4.96470
F          1.70280        6.51760       -4.53990
C          0.04700        4.88730       -4.34380
C         -0.94420        1.99000       -3.94460
C         -1.45050        0.78570       -3.39490
C         -2.76270        0.72590       -2.89710
C         -3.28720       -0.48910       -2.26180
C         -4.51720       -1.02870       -2.63290
C         -4.99390       -2.17030       -2.02580
C         -4.27180       -2.82610       -1.02870
S         -4.97070       -4.31790       -0.38600
C         -4.50690       -4.33950        1.38480
C         -5.08040       -3.16130        2.14320
C         -3.03930       -2.28310       -0.67910
C         -2.55780       -1.13020       -1.26520
F         -2.24930       -2.87540        0.24680
C         -3.50980        1.88860       -2.98680
S         -5.10650        2.10970       -2.32950
C         -0.48700       -0.24990       -3.41380
C          0.72650        0.13700       -3.90340
S          0.72120        1.80430       -4.43480
C          1.91640       -0.65340       -3.88990
C          1.98960       -1.98390       -3.59670
C          3.31400       -2.46740       -3.47360
C          3.70960       -3.75220       -3.06340
C          2.69980       -4.79980       -2.86550
C          2.58130       -5.48390       -1.66020
C          1.57260       -6.40780       -1.46490
C          0.65360       -6.68680       -2.47040
S         -0.67470       -7.83890       -2.33010
C         -1.06940       -7.81180       -0.54620
C         -1.59600       -6.46320       -0.09720
C          0.81490       -6.02820       -3.69020
F         -0.03460       -6.29390       -4.70210
C          1.80590       -5.09460       -3.89350
C          5.06280       -3.94010       -2.84080
C          6.02220       -2.92010       -3.06270
C          5.63000       -1.64060       -3.49440
C          6.62280       -0.57580       -3.67580
C          7.57690       -0.31830       -2.69400
C          8.55830        0.63630       -2.87590
C          8.61680        1.37990       -4.04940
S          9.83850        2.58220       -4.44530
C         10.98170        2.56780       -3.02180
C         10.47200        3.38420       -1.84940
C          7.62750        1.14160       -5.00720
C          6.64750        0.18990       -4.84000
F          7.64360        1.85550       -6.15070
C          4.27180       -1.44590       -3.68980
S          3.50040        0.06690       -4.09190
C          7.33530       -3.37060       -2.79080
C          7.39520       -4.65380       -2.33100
S          5.81660       -5.40900       -2.27290
C          8.58090       -5.30480       -1.87020
C          9.76080       -4.67700       -1.59780
C         10.77240       -5.54430       -1.12050
C         12.08170       -5.20440       -0.74460
C         12.54280       -3.81580       -0.86920
C         12.38470       -3.11940       -2.06750
C         12.74500       -1.79260       -2.16330
C         13.26640       -1.10420       -1.06990
S         13.58770        0.62560       -1.27570
C         15.17630        0.89330       -0.40920
C         16.27690        0.00960       -0.95930
C         13.42930       -1.81370        0.11590
F         13.90790       -1.20510        1.22270
C         13.09300       -3.14880        0.21960
C         12.86780       -6.23070       -0.24470
C         12.41490       -7.56920       -0.14170
C         11.11150       -7.90970       -0.53370
C         10.61780       -9.29050       -0.45710
C         11.32810      -10.34210       -1.03460
C         10.84200      -11.62980       -0.97980
C          9.64020      -11.92830       -0.33650
S          9.15560      -13.62360       -0.30040
C          7.31960      -13.57390       -0.23930
C          6.78100      -14.89390       -0.75470
C          8.95580      -10.87160        0.25700
C          9.41890       -9.57340        0.18730
F          7.80960      -11.08180        0.94310
C         10.31080       -6.87710       -1.00040
S          8.65360       -7.02040       -1.53430
C         13.41880       -8.41820        0.41450
C         14.56650       -7.76710        0.68870
S         14.51770       -6.08030        0.30230
H        -11.69610       -0.75080        9.79430
H        -11.92110        1.84630        9.74910
H        -13.58480        3.40470        8.68320
H        -14.15550        5.25210       10.20700
H        -11.10860        9.10300       10.43910
H        -12.58230        9.86520       11.06400
H        -12.29550        8.61220        8.27820
H        -13.76560        9.35120        8.92140
H        -12.32920       10.34190        8.62570
H         -9.82190        5.28500        7.88470
H        -11.79380       -1.33120        4.83880
H        -11.04510       -3.04820        3.24840
H         -7.29830       -2.02100        0.10010
H         -8.95560       -1.37260        0.04340
H         -8.00100       -3.99060       -1.22980
H         -8.42860       -2.50890       -2.10290
H         -9.67240       -3.41920       -1.23850
H         -8.31730        0.99400        3.90580
H        -10.00420        2.31270        2.88210
H        -11.13830        7.09810        3.94830
H         -9.02100       10.20170        1.34190
H         -8.17430        8.33810        0.02540
H         -9.36000        7.73180       -1.71170
H         -6.58180        8.05320       -5.34640
H         -5.49750        6.03230       -4.53770
H         -3.68470        5.17510       -3.67100
H         -2.88120        4.59590       -5.99400
H         -1.99550        6.60570       -7.10660
H          2.40570        8.74750       -7.68250
H          2.62900        7.89800       -6.14190
H          2.12170        5.71820       -7.28230
H          3.47610        6.52660       -8.07170
H          1.86720        6.57600       -8.80610
H          0.64070        4.44280       -3.56060
H         -5.09540       -0.55670       -3.41210
H         -5.94220       -2.58840       -2.32310
H         -4.93470       -5.27780        1.73880
H         -3.42360       -4.39060        1.46280
H         -6.16580       -3.16990        2.09250
H         -4.78370       -3.22150        3.18840
H         -4.71900       -2.21760        1.73860
H         -1.61130       -0.73660       -0.92760
H         -0.68690       -1.24380       -3.06020
H          1.12520       -2.60050       -3.43510
H          3.27080       -5.27410       -0.85680
H          1.50370       -6.91380       -0.51520
H         -1.83510       -8.58110       -0.44660
H         -0.19000       -8.12270        0.01630
H         -2.48340       -6.19670       -0.66710
H         -0.84850       -5.68440       -0.23650
H         -1.85870       -6.50530        0.95830
H          1.88260       -4.60660       -4.85290
H          7.53970       -0.86070       -1.76110
H          9.28320        0.78960       -2.09330
H         11.18800        1.53370       -2.75050
H         11.89670        3.00400       -3.42160
H          9.51740        3.00760       -1.48890
H         10.33850        4.42250       -2.14320
H         11.19400        3.33950       -1.03650
H          5.92790        0.03330       -5.62790
H          8.20740       -2.76500       -2.95040
H          9.89860       -3.61680       -1.69840
H         11.99420       -3.63160       -2.93370
H         12.62190       -1.25930       -3.09360
H         15.38590        1.94700       -0.59460
H         15.02580        0.74330        0.65770
H         16.38500        0.15570       -2.03220
H         16.06160       -1.04120       -0.77290
H         17.21940        0.25740       -0.47560
H         13.22600       -3.64420        1.16850
H         12.25070      -10.13960       -1.55690
H         11.38660      -12.43930       -1.44040
H          6.99790      -12.74470       -0.86740
H          7.01320      -13.39910        0.79090
H          7.10500      -15.06570       -1.77870
H          7.13470      -15.71740       -0.13840
H          5.69350      -14.88060       -0.72870
H          8.84790       -8.79640        0.67110
H         13.26550       -9.46430        0.60760
H         15.46780       -8.16750        1.11000
