
  xtb     03012223173D
 energy: -449.142042582484 gnorm: 0.000534164410 xtb: 6.4.1 (unknown)
226252  0     0  0            999 V2000
  -14.5853  -12.9710    7.8892 C   0  0  0  0  0  0  0  0  0  0  0  0
  -13.3058  -13.0261    7.4673 C   0  0  0  0  0  0  0  0  0  0  0  0
  -12.9667  -11.9533    6.5926 C   0  0  0  0  0  0  0  0  0  0  0  0
  -11.7268  -11.6684    6.0024 C   0  0  0  0  0  0  0  0  0  0  0  0
  -10.5289  -12.4364    6.3016 C   0  0  0  0  0  0  0  0  0  0  0  0
   -9.5148  -13.0617    5.0359 S   0  0  0  0  0  0  0  0  0  0  0  0
   -8.3574  -13.6838    6.1619 C   0  0  0  0  0  0  0  0  0  0  0  0
   -7.1006  -14.3255    5.6881 C   0  0  0  0  0  0  0  0  0  0  0  0
   -6.0979  -13.2670    5.2212 C   0  0  0  0  0  0  0  0  0  0  0  0
   -8.7487  -13.4159    7.4395 C   0  0  0  0  0  0  0  0  0  0  0  0
   -7.8538  -13.8685    8.8325 Cl  0  0  0  0  0  0  0  0  0  0  0  0
   -9.9809  -12.7125    7.5234 C   0  0  0  0  0  0  0  0  0  0  0  0
  -10.6432  -12.1904    9.0185 Cl  0  0  0  0  0  0  0  0  0  0  0  0
  -11.6733  -10.5760    5.1463 C   0  0  0  0  0  0  0  0  0  0  0  0
  -12.7811   -9.7321    4.8942 C   0  0  0  0  0  0  0  0  0  0  0  0
  -14.0153   -9.9991    5.5100 C   0  0  0  0  0  0  0  0  0  0  0  0
  -15.1634   -9.1309    5.3050 C   0  0  0  0  0  0  0  0  0  0  0  0
  -15.0576   -7.4223    5.6164 S   0  0  0  0  0  0  0  0  0  0  0  0
  -16.7179   -7.1626    5.2017 C   0  0  0  0  0  0  0  0  0  0  0  0
  -17.3314   -5.8102    5.3044 C   0  0  0  0  0  0  0  0  0  0  0  0
  -17.6288   -5.4500    6.7617 C   0  0  0  0  0  0  0  0  0  0  0  0
  -17.3053   -8.3399    4.8477 C   0  0  0  0  0  0  0  0  0  0  0  0
  -16.4278   -9.4568    4.9013 C   0  0  0  0  0  0  0  0  0  0  0  0
  -16.9119  -11.0269    4.4152 Cl  0  0  0  0  0  0  0  0  0  0  0  0
  -18.9464   -8.4873    4.3679 Cl  0  0  0  0  0  0  0  0  0  0  0  0
  -14.0780  -11.1110    6.3428 C   0  0  0  0  0  0  0  0  0  0  0  0
  -15.4707  -11.6323    7.2472 S   0  0  0  0  0  0  0  0  0  0  0  0
  -12.4515   -8.6818    3.9992 C   0  0  0  0  0  0  0  0  0  0  0  0
  -11.1506   -8.7035    3.5953 C   0  0  0  0  0  0  0  0  0  0  0  0
  -10.2541  -10.0342    4.3009 S   0  0  0  0  0  0  0  0  0  0  0  0
  -10.4655   -7.7996    2.7328 C   0  0  0  0  0  0  0  0  0  0  0  0
   -9.1640   -7.8892    2.3377 C   0  0  0  0  0  0  0  0  0  0  0  0
   -8.7395   -6.8073    1.5329 C   0  0  0  0  0  0  0  0  0  0  0  0
   -7.4711   -6.6086    0.9597 C   0  0  0  0  0  0  0  0  0  0  0  0
   -6.3752   -7.5207    1.2363 C   0  0  0  0  0  0  0  0  0  0  0  0
   -5.4437   -8.2338   -0.0473 S   0  0  0  0  0  0  0  0  0  0  0  0
   -4.4562   -9.1244    1.0579 C   0  0  0  0  0  0  0  0  0  0  0  0
   -3.4039  -10.0620    0.5780 C   0  0  0  0  0  0  0  0  0  0  0  0
   -3.9596  -11.4817    0.4397 C   0  0  0  0  0  0  0  0  0  0  0  0
   -4.8386   -8.8752    2.3426 C   0  0  0  0  0  0  0  0  0  0  0  0
   -4.0940   -9.5871    3.7151 Cl  0  0  0  0  0  0  0  0  0  0  0  0
   -5.9203   -7.9614    2.4496 C   0  0  0  0  0  0  0  0  0  0  0  0
   -6.5154   -7.4171    3.9656 Cl  0  0  0  0  0  0  0  0  0  0  0  0
   -7.3261   -5.5090    0.1274 C   0  0  0  0  0  0  0  0  0  0  0  0
   -8.3727   -4.5884   -0.1240 C   0  0  0  0  0  0  0  0  0  0  0  0
   -9.6322   -4.7671    0.4794 C   0  0  0  0  0  0  0  0  0  0  0  0
  -10.7223   -3.8394    0.2317 C   0  0  0  0  0  0  0  0  0  0  0  0
  -11.1882   -3.4190   -1.3935 S   0  0  0  0  0  0  0  0  0  0  0  0
  -12.4743   -2.3939   -0.8515 C   0  0  0  0  0  0  0  0  0  0  0  0
  -13.3669   -1.6752   -1.8043 C   0  0  0  0  0  0  0  0  0  0  0  0
  -12.6567   -1.2974   -3.0988 C   0  0  0  0  0  0  0  0  0  0  0  0
  -12.5236   -2.3884    0.5101 C   0  0  0  0  0  0  0  0  0  0  0  0
  -11.5354   -3.2028    1.1274 C   0  0  0  0  0  0  0  0  0  0  0  0
  -11.3489   -3.2759    2.8290 Cl  0  0  0  0  0  0  0  0  0  0  0  0
  -13.6647   -1.4841    1.4182 Cl  0  0  0  0  0  0  0  0  0  0  0  0
   -9.7859   -5.8809    1.2964 C   0  0  0  0  0  0  0  0  0  0  0  0
  -11.2539   -6.3733    2.0948 S   0  0  0  0  0  0  0  0  0  0  0  0
   -7.9522   -3.5248   -0.9568 C   0  0  0  0  0  0  0  0  0  0  0  0
   -6.6474   -3.6191   -1.3532 C   0  0  0  0  0  0  0  0  0  0  0  0
   -5.8613   -5.0404   -0.6837 S   0  0  0  0  0  0  0  0  0  0  0  0
   -5.8944   -2.7226   -2.1597 C   0  0  0  0  0  0  0  0  0  0  0  0
   -4.1846   -2.6110   -1.9425 S   0  0  0  0  0  0  0  0  0  0  0  0
   -4.0312   -1.3256   -3.0874 C   0  0  0  0  0  0  0  0  0  0  0  0
   -5.2661   -1.0283   -3.6735 C   0  0  0  0  0  0  0  0  0  0  0  0
   -6.3309   -1.8278   -3.1439 C   0  0  0  0  0  0  0  0  0  0  0  0
   -7.6311   -1.7026   -3.6700 C   0  0  0  0  0  0  0  0  0  0  0  0
   -7.8623   -0.7926   -4.6661 C   0  0  0  0  0  0  0  0  0  0  0  0
   -9.4618   -0.5831   -5.3801 S   0  0  0  0  0  0  0  0  0  0  0  0
   -6.8160    0.0029   -5.1888 C   0  0  0  0  0  0  0  0  0  0  0  0
   -5.5446   -0.1184   -4.7171 C   0  0  0  0  0  0  0  0  0  0  0  0
   -2.7576   -0.7191   -3.2679 C   0  0  0  0  0  0  0  0  0  0  0  0
   -2.4477    0.5362   -3.7113 C   0  0  0  0  0  0  0  0  0  0  0  0
   -1.0611    0.8176   -3.6988 C   0  0  0  0  0  0  0  0  0  0  0  0
   -0.4258    2.0280   -4.0358 C   0  0  0  0  0  0  0  0  0  0  0  0
   -1.1706    3.1156   -4.6417 C   0  0  0  0  0  0  0  0  0  0  0  0
   -1.0520    4.7475   -4.0541 S   0  0  0  0  0  0  0  0  0  0  0  0
   -2.1616    5.3402   -5.2428 C   0  0  0  0  0  0  0  0  0  0  0  0
   -2.4898    6.7893   -5.3295 C   0  0  0  0  0  0  0  0  0  0  0  0
   -1.3511    7.5666   -5.9940 C   0  0  0  0  0  0  0  0  0  0  0  0
   -2.5815    4.3239   -6.0484 C   0  0  0  0  0  0  0  0  0  0  0  0
   -3.6804    4.5219   -7.3525 Cl  0  0  0  0  0  0  0  0  0  0  0  0
   -2.0268    3.0616   -5.7087 C   0  0  0  0  0  0  0  0  0  0  0  0
   -2.3448    1.6447   -6.6258 Cl  0  0  0  0  0  0  0  0  0  0  0  0
    0.9314    2.1236   -3.7552 C   0  0  0  0  0  0  0  0  0  0  0  0
    1.6822    1.0440   -3.2295 C   0  0  0  0  0  0  0  0  0  0  0  0
    1.0650   -0.1945   -2.9710 C   0  0  0  0  0  0  0  0  0  0  0  0
    1.8236   -1.3208   -2.4544 C   0  0  0  0  0  0  0  0  0  0  0  0
    2.8548   -1.1558   -1.0611 S   0  0  0  0  0  0  0  0  0  0  0  0
    3.3416   -2.8152   -1.1203 C   0  0  0  0  0  0  0  0  0  0  0  0
    4.3580   -3.3504   -0.1732 C   0  0  0  0  0  0  0  0  0  0  0  0
    5.7732   -2.9982   -0.6392 C   0  0  0  0  0  0  0  0  0  0  0  0
    2.7320   -3.4477   -2.1617 C   0  0  0  0  0  0  0  0  0  0  0  0
    1.8664   -2.6081   -2.9148 C   0  0  0  0  0  0  0  0  0  0  0  0
    1.0494   -3.1613   -4.3152 Cl  0  0  0  0  0  0  0  0  0  0  0  0
    2.9730   -5.1012   -2.5504 Cl  0  0  0  0  0  0  0  0  0  0  0  0
   -0.3019   -0.2697   -3.1974 C   0  0  0  0  0  0  0  0  0  0  0  0
   -1.3222   -1.6200   -2.8066 S   0  0  0  0  0  0  0  0  0  0  0  0
    3.0363    1.3924   -3.0301 C   0  0  0  0  0  0  0  0  0  0  0  0
    3.3243    2.6869   -3.3543 C   0  0  0  0  0  0  0  0  0  0  0  0
    1.9308    3.5314   -3.9905 S   0  0  0  0  0  0  0  0  0  0  0  0
    4.5760    3.3366   -3.1336 C   0  0  0  0  0  0  0  0  0  0  0  0
    5.6115    2.8277   -2.4035 C   0  0  0  0  0  0  0  0  0  0  0  0
    6.7043    3.7139   -2.2733 C   0  0  0  0  0  0  0  0  0  0  0  0
    7.8917    3.5112   -1.5470 C   0  0  0  0  0  0  0  0  0  0  0  0
    8.1104    2.2865   -0.7943 C   0  0  0  0  0  0  0  0  0  0  0  0
    6.9423    1.7266    0.3690 S   0  0  0  0  0  0  0  0  0  0  0  0
    7.8949    0.3418    0.7796 C   0  0  0  0  0  0  0  0  0  0  0  0
    7.4578   -0.6077    1.8398 C   0  0  0  0  0  0  0  0  0  0  0  0
    7.8793   -0.1112    3.2249 C   0  0  0  0  0  0  0  0  0  0  0  0
    9.0494    0.3312    0.0556 C   0  0  0  0  0  0  0  0  0  0  0  0
   10.2439   -0.8938    0.1811 Cl  0  0  0  0  0  0  0  0  0  0  0  0
    9.1753    1.4300   -0.8376 C   0  0  0  0  0  0  0  0  0  0  0  0
   10.5007    1.5917   -1.9112 Cl  0  0  0  0  0  0  0  0  0  0  0  0
    8.8196    4.5431   -1.5630 C   0  0  0  0  0  0  0  0  0  0  0  0
    8.6114    5.7479   -2.2817 C   0  0  0  0  0  0  0  0  0  0  0  0
    7.4128    5.9596   -2.9863 C   0  0  0  0  0  0  0  0  0  0  0  0
    7.1658    7.2131   -3.6786 C   0  0  0  0  0  0  0  0  0  0  0  0
    6.6608    7.2317   -5.3423 S   0  0  0  0  0  0  0  0  0  0  0  0
    6.6460    8.9606   -5.4020 C   0  0  0  0  0  0  0  0  0  0  0  0
    6.2205    9.6840   -6.6315 C   0  0  0  0  0  0  0  0  0  0  0  0
    4.6940    9.7514   -6.7213 C   0  0  0  0  0  0  0  0  0  0  0  0
    6.9998    9.4783   -4.1920 C   0  0  0  0  0  0  0  0  0  0  0  0
    7.2947    8.4931   -3.2120 C   0  0  0  0  0  0  0  0  0  0  0  0
    7.6777    8.9085   -1.5890 Cl  0  0  0  0  0  0  0  0  0  0  0  0
    7.1043   11.1592   -3.8609 Cl  0  0  0  0  0  0  0  0  0  0  0  0
    6.4861    4.9262   -2.9723 C   0  0  0  0  0  0  0  0  0  0  0  0
    4.9165    4.9461   -3.7280 S   0  0  0  0  0  0  0  0  0  0  0  0
    9.7083    6.6311   -2.1521 C   0  0  0  0  0  0  0  0  0  0  0  0
   10.6825    6.1708   -1.3151 C   0  0  0  0  0  0  0  0  0  0  0  0
   10.3257    4.5777   -0.6928 S   0  0  0  0  0  0  0  0  0  0  0  0
   11.8543    6.8896   -0.9260 C   0  0  0  0  0  0  0  0  0  0  0  0
   12.0251    8.2385   -1.0313 C   0  0  0  0  0  0  0  0  0  0  0  0
   13.2873    8.6862   -0.5743 C   0  0  0  0  0  0  0  0  0  0  0  0
   13.7866    9.9996   -0.5658 C   0  0  0  0  0  0  0  0  0  0  0  0
   12.9744   11.1101   -1.0358 C   0  0  0  0  0  0  0  0  0  0  0  0
   12.1987   11.0738   -2.5942 S   0  0  0  0  0  0  0  0  0  0  0  0
   11.4668   12.6247   -2.3603 C   0  0  0  0  0  0  0  0  0  0  0  0
   10.6180   13.2420   -3.4157 C   0  0  0  0  0  0  0  0  0  0  0  0
   11.4739   13.8433   -4.5323 C   0  0  0  0  0  0  0  0  0  0  0  0
   11.8234   13.1338   -1.1480 C   0  0  0  0  0  0  0  0  0  0  0  0
   11.2957   14.6552   -0.5551 Cl  0  0  0  0  0  0  0  0  0  0  0  0
   12.6722   12.2787   -0.3932 C   0  0  0  0  0  0  0  0  0  0  0  0
   13.1675   12.6620    1.2014 Cl  0  0  0  0  0  0  0  0  0  0  0  0
   15.0822   10.1736   -0.0927 C   0  0  0  0  0  0  0  0  0  0  0  0
   15.8736    9.1049    0.3956 C   0  0  0  0  0  0  0  0  0  0  0  0
   15.3558    7.8011    0.4278 C   0  0  0  0  0  0  0  0  0  0  0  0
   16.1231    6.6797    0.9486 C   0  0  0  0  0  0  0  0  0  0  0  0
   17.6909    6.2707    0.3179 S   0  0  0  0  0  0  0  0  0  0  0  0
   17.8511    4.9121    1.3777 C   0  0  0  0  0  0  0  0  0  0  0  0
   19.0396    4.0173    1.3196 C   0  0  0  0  0  0  0  0  0  0  0  0
   18.8173    2.8789    0.3207 C   0  0  0  0  0  0  0  0  0  0  0  0
   16.7441    4.7928    2.1634 C   0  0  0  0  0  0  0  0  0  0  0  0
   15.7635    5.7929    1.9250 C   0  0  0  0  0  0  0  0  0  0  0  0
   14.3192    5.9014    2.8410 Cl  0  0  0  0  0  0  0  0  0  0  0  0
   16.5395    3.5653    3.3442 Cl  0  0  0  0  0  0  0  0  0  0  0  0
   14.0728    7.6195   -0.0735 C   0  0  0  0  0  0  0  0  0  0  0  0
   13.2424    6.0968   -0.2202 S   0  0  0  0  0  0  0  0  0  0  0  0
   17.1609    9.5539    0.8114 C   0  0  0  0  0  0  0  0  0  0  0  0
   17.3414   10.8763    0.6176 C   0  0  0  0  0  0  0  0  0  0  0  0
   15.9660   11.6722   -0.0611 S   0  0  0  0  0  0  0  0  0  0  0  0
  -15.0907  -13.6485    8.5495 H   0  0  0  0  0  0  0  0  0  0  0  0
  -12.6163  -13.8000    7.7495 H   0  0  0  0  0  0  0  0  0  0  0  0
   -7.3251  -15.0008    4.8603 H   0  0  0  0  0  0  0  0  0  0  0  0
   -6.6717  -14.9052    6.5071 H   0  0  0  0  0  0  0  0  0  0  0  0
   -5.8500  -12.5947    6.0387 H   0  0  0  0  0  0  0  0  0  0  0  0
   -5.1851  -13.7435    4.8737 H   0  0  0  0  0  0  0  0  0  0  0  0
   -6.5198  -12.6813    4.4077 H   0  0  0  0  0  0  0  0  0  0  0  0
  -16.6494   -5.0695    4.8815 H   0  0  0  0  0  0  0  0  0  0  0  0
  -18.2571   -5.8033    4.7263 H   0  0  0  0  0  0  0  0  0  0  0  0
  -16.7104   -5.4476    7.3443 H   0  0  0  0  0  0  0  0  0  0  0  0
  -18.0803   -4.4632    6.8173 H   0  0  0  0  0  0  0  0  0  0  0  0
  -18.3147   -6.1725    7.1970 H   0  0  0  0  0  0  0  0  0  0  0  0
  -13.1496   -7.9366    3.6630 H   0  0  0  0  0  0  0  0  0  0  0  0
   -8.5365   -8.7181    2.6093 H   0  0  0  0  0  0  0  0  0  0  0  0
   -3.0288   -9.7199   -0.3874 H   0  0  0  0  0  0  0  0  0  0  0  0
   -2.5800  -10.0633    1.2946 H   0  0  0  0  0  0  0  0  0  0  0  0
   -4.7820  -11.4975   -0.2714 H   0  0  0  0  0  0  0  0  0  0  0  0
   -3.1816  -12.1543    0.0893 H   0  0  0  0  0  0  0  0  0  0  0  0
   -4.3229  -11.8382    1.4002 H   0  0  0  0  0  0  0  0  0  0  0  0
  -14.2263   -2.3129   -2.0362 H   0  0  0  0  0  0  0  0  0  0  0  0
  -13.7477   -0.7812   -1.3054 H   0  0  0  0  0  0  0  0  0  0  0  0
  -13.3352   -0.7625   -3.7576 H   0  0  0  0  0  0  0  0  0  0  0  0
  -11.8019   -0.6583   -2.8913 H   0  0  0  0  0  0  0  0  0  0  0  0
  -12.3113   -2.1927   -3.6122 H   0  0  0  0  0  0  0  0  0  0  0  0
   -8.5775   -2.6857   -1.1950 H   0  0  0  0  0  0  0  0  0  0  0  0
   -8.4195   -2.3458   -3.3122 H   0  0  0  0  0  0  0  0  0  0  0  0
  -10.0556   -1.5527   -4.6861 H   0  0  0  0  0  0  0  0  0  0  0  0
   -7.0429    0.6890   -5.9901 H   0  0  0  0  0  0  0  0  0  0  0  0
   -4.7462    0.4514   -5.1619 H   0  0  0  0  0  0  0  0  0  0  0  0
   -3.1878    1.2715   -3.9624 H   0  0  0  0  0  0  0  0  0  0  0  0
   -2.6597    7.1845   -4.3262 H   0  0  0  0  0  0  0  0  0  0  0  0
   -3.4058    6.9062   -5.9112 H   0  0  0  0  0  0  0  0  0  0  0  0
   -1.6025    8.6222   -6.0493 H   0  0  0  0  0  0  0  0  0  0  0  0
   -1.1791    7.1959   -7.0014 H   0  0  0  0  0  0  0  0  0  0  0  0
   -0.4339    7.4537   -5.4208 H   0  0  0  0  0  0  0  0  0  0  0  0
    4.2492   -4.4348   -0.1194 H   0  0  0  0  0  0  0  0  0  0  0  0
    4.1871   -2.9311    0.8200 H   0  0  0  0  0  0  0  0  0  0  0  0
    5.8991   -1.9190   -0.6910 H   0  0  0  0  0  0  0  0  0  0  0  0
    5.9598   -3.4173   -1.6245 H   0  0  0  0  0  0  0  0  0  0  0  0
    6.5061   -3.4018    0.0538 H   0  0  0  0  0  0  0  0  0  0  0  0
    3.7725    0.7087   -2.6546 H   0  0  0  0  0  0  0  0  0  0  0  0
    5.5863    1.8542   -1.9528 H   0  0  0  0  0  0  0  0  0  0  0  0
    7.9138   -1.5803    1.6466 H   0  0  0  0  0  0  0  0  0  0  0  0
    6.3720   -0.7132    1.8074 H   0  0  0  0  0  0  0  0  0  0  0  0
    7.4296    0.8570    3.4315 H   0  0  0  0  0  0  0  0  0  0  0  0
    8.9603   -0.0104    3.2762 H   0  0  0  0  0  0  0  0  0  0  0  0
    7.5582   -0.8155    3.9874 H   0  0  0  0  0  0  0  0  0  0  0  0
    6.6122    9.1682   -7.5099 H   0  0  0  0  0  0  0  0  0  0  0  0
    6.6328   10.6942   -6.6051 H   0  0  0  0  0  0  0  0  0  0  0  0
    4.3963   10.2766   -7.6247 H   0  0  0  0  0  0  0  0  0  0  0  0
    4.2736    8.7489   -6.7438 H   0  0  0  0  0  0  0  0  0  0  0  0
    4.2884   10.2789   -5.8617 H   0  0  0  0  0  0  0  0  0  0  0  0
    9.7860    7.5638   -2.6772 H   0  0  0  0  0  0  0  0  0  0  0  0
   11.2614    8.8936   -1.4047 H   0  0  0  0  0  0  0  0  0  0  0  0
   10.0088   14.0230   -2.9574 H   0  0  0  0  0  0  0  0  0  0  0  0
    9.9539   12.4842   -3.8363 H   0  0  0  0  0  0  0  0  0  0  0  0
   10.8368   14.2905   -5.2905 H   0  0  0  0  0  0  0  0  0  0  0  0
   12.1309   14.6112   -4.1317 H   0  0  0  0  0  0  0  0  0  0  0  0
   12.0832   13.0719   -4.9976 H   0  0  0  0  0  0  0  0  0  0  0  0
   19.9159    4.5963    1.0239 H   0  0  0  0  0  0  0  0  0  0  0  0
   19.2128    3.6002    2.3136 H   0  0  0  0  0  0  0  0  0  0  0  0
   17.9525    2.2878    0.6106 H   0  0  0  0  0  0  0  0  0  0  0  0
   19.6894    2.2313    0.2932 H   0  0  0  0  0  0  0  0  0  0  0  0
   18.6467    3.2787   -0.6761 H   0  0  0  0  0  0  0  0  0  0  0  0
   17.9075    8.9054    1.2312 H   0  0  0  0  0  0  0  0  0  0  0  0
   18.2129   11.4608    0.8391 H   0  0  0  0  0  0  0  0  0  0  0  0
  1  2  2  0  0  0  0
  2  3  1  0  0  0  0
  3  4  2  0  0  0  0
  4  5  1  0  0  0  0
  5  6  1  0  0  0  0
  6  7  1  0  0  0  0
  7  8  1  0  0  0  0
  8  9  1  0  0  0  0
  7 10  2  0  0  0  0
 10 11  1  0  0  0  0
 10 12  1  0  0  0  0
 12 13  1  0  0  0  0
  4 14  1  0  0  0  0
 14 15  2  0  0  0  0
 15 16  1  0  0  0  0
 16 17  1  0  0  0  0
 17 18  1  0  0  0  0
 18 19  1  0  0  0  0
 19 20  1  0  0  0  0
 20 21  1  0  0  0  0
 19 22  2  0  0  0  0
 22 23  1  0  0  0  0
 23 24  1  0  0  0  0
 22 25  1  0  0  0  0
 16 26  2  0  0  0  0
 26 27  1  0  0  0  0
 15 28  1  0  0  0  0
 28 29  2  0  0  0  0
 29 30  1  0  0  0  0
 29 31  1  0  0  0  0
 31 32  2  0  0  0  0
 32 33  1  0  0  0  0
 33 34  2  0  0  0  0
 34 35  1  0  0  0  0
 35 36  1  0  0  0  0
 36 37  1  0  0  0  0
 37 38  1  0  0  0  0
 38 39  1  0  0  0  0
 37 40  2  0  0  0  0
 40 41  1  0  0  0  0
 40 42  1  0  0  0  0
 42 43  1  0  0  0  0
 34 44  1  0  0  0  0
 44 45  2  0  0  0  0
 45 46  1  0  0  0  0
 46 47  1  0  0  0  0
 47 48  1  0  0  0  0
 48 49  1  0  0  0  0
 49 50  1  0  0  0  0
 50 51  1  0  0  0  0
 49 52  2  0  0  0  0
 52 53  1  0  0  0  0
 53 54  1  0  0  0  0
 52 55  1  0  0  0  0
 46 56  2  0  0  0  0
 56 57  1  0  0  0  0
 45 58  1  0  0  0  0
 58 59  2  0  0  0  0
 59 60  1  0  0  0  0
 59 61  1  0  0  0  0
 61 62  1  0  0  0  0
 62 63  1  0  0  0  0
 63 64  2  0  0  0  0
 64 65  1  0  0  0  0
 65 66  1  0  0  0  0
 66 67  2  0  0  0  0
 67 68  1  0  0  0  0
 67 69  1  0  0  0  0
 69 70  2  0  0  0  0
 63 71  1  0  0  0  0
 71 72  2  0  0  0  0
 72 73  1  0  0  0  0
 73 74  2  0  0  0  0
 74 75  1  0  0  0  0
 75 76  1  0  0  0  0
 76 77  1  0  0  0  0
 77 78  1  0  0  0  0
 78 79  1  0  0  0  0
 77 80  2  0  0  0  0
 80 81  1  0  0  0  0
 80 82  1  0  0  0  0
 82 83  1  0  0  0  0
 74 84  1  0  0  0  0
 84 85  2  0  0  0  0
 85 86  1  0  0  0  0
 86 87  1  0  0  0  0
 87 88  1  0  0  0  0
 88 89  1  0  0  0  0
 89 90  1  0  0  0  0
 90 91  1  0  0  0  0
 89 92  2  0  0  0  0
 92 93  1  0  0  0  0
 93 94  1  0  0  0  0
 92 95  1  0  0  0  0
 86 96  2  0  0  0  0
 96 97  1  0  0  0  0
 85 98  1  0  0  0  0
 98 99  2  0  0  0  0
 99100  1  0  0  0  0
 99101  1  0  0  0  0
101102  2  0  0  0  0
102103  1  0  0  0  0
103104  2  0  0  0  0
104105  1  0  0  0  0
105106  1  0  0  0  0
106107  1  0  0  0  0
107108  1  0  0  0  0
108109  1  0  0  0  0
107110  2  0  0  0  0
110111  1  0  0  0  0
110112  1  0  0  0  0
112113  1  0  0  0  0
104114  1  0  0  0  0
114115  2  0  0  0  0
115116  1  0  0  0  0
116117  1  0  0  0  0
117118  1  0  0  0  0
118119  1  0  0  0  0
119120  1  0  0  0  0
120121  1  0  0  0  0
119122  2  0  0  0  0
122123  1  0  0  0  0
123124  1  0  0  0  0
122125  1  0  0  0  0
116126  2  0  0  0  0
126127  1  0  0  0  0
115128  1  0  0  0  0
128129  2  0  0  0  0
129130  1  0  0  0  0
129131  1  0  0  0  0
131132  2  0  0  0  0
132133  1  0  0  0  0
133134  2  0  0  0  0
134135  1  0  0  0  0
135136  1  0  0  0  0
136137  1  0  0  0  0
137138  1  0  0  0  0
138139  1  0  0  0  0
137140  2  0  0  0  0
140141  1  0  0  0  0
140142  1  0  0  0  0
142143  1  0  0  0  0
134144  1  0  0  0  0
144145  2  0  0  0  0
145146  1  0  0  0  0
146147  1  0  0  0  0
147148  1  0  0  0  0
148149  1  0  0  0  0
149150  1  0  0  0  0
150151  1  0  0  0  0
149152  2  0  0  0  0
152153  1  0  0  0  0
153154  1  0  0  0  0
152155  1  0  0  0  0
146156  2  0  0  0  0
156157  1  0  0  0  0
145158  1  0  0  0  0
158159  2  0  0  0  0
159160  1  0  0  0  0
 27  1  1  0  0  0  0
 57 31  1  0  0  0  0
 65 61  2  0  0  0  0
 97 71  1  0  0  0  0
127101  1  0  0  0  0
157131  1  0  0  0  0
 26  3  1  0  0  0  0
 56 33  1  0  0  0  0
 70 64  1  0  0  0  0
 96 73  1  0  0  0  0
126103  1  0  0  0  0
156133  1  0  0  0  0
 12  5  2  0  0  0  0
 30 14  1  0  0  0  0
 42 35  2  0  0  0  0
 60 44  1  0  0  0  0
 82 75  2  0  0  0  0
100 84  1  0  0  0  0
112105  2  0  0  0  0
130114  1  0  0  0  0
142135  2  0  0  0  0
160144  1  0  0  0  0
 23 17  2  0  0  0  0
 53 47  2  0  0  0  0
 93 87  2  0  0  0  0
123117  2  0  0  0  0
153147  2  0  0  0  0
  1161  1  0  0  0  0
  2162  1  0  0  0  0
  8163  1  0  0  0  0
  8164  1  0  0  0  0
  9165  1  0  0  0  0
  9166  1  0  0  0  0
  9167  1  0  0  0  0
 20168  1  0  0  0  0
 20169  1  0  0  0  0
 21170  1  0  0  0  0
 21171  1  0  0  0  0
 21172  1  0  0  0  0
 28173  1  0  0  0  0
 32174  1  0  0  0  0
 38175  1  0  0  0  0
 38176  1  0  0  0  0
 39177  1  0  0  0  0
 39178  1  0  0  0  0
 39179  1  0  0  0  0
 50180  1  0  0  0  0
 50181  1  0  0  0  0
 51182  1  0  0  0  0
 51183  1  0  0  0  0
 51184  1  0  0  0  0
 58185  1  0  0  0  0
 66186  1  0  0  0  0
 68187  1  0  0  0  0
 69188  1  0  0  0  0
 70189  1  0  0  0  0
 72190  1  0  0  0  0
 78191  1  0  0  0  0
 78192  1  0  0  0  0
 79193  1  0  0  0  0
 79194  1  0  0  0  0
 79195  1  0  0  0  0
 90196  1  0  0  0  0
 90197  1  0  0  0  0
 91198  1  0  0  0  0
 91199  1  0  0  0  0
 91200  1  0  0  0  0
 98201  1  0  0  0  0
102202  1  0  0  0  0
108203  1  0  0  0  0
108204  1  0  0  0  0
109205  1  0  0  0  0
109206  1  0  0  0  0
109207  1  0  0  0  0
120208  1  0  0  0  0
120209  1  0  0  0  0
121210  1  0  0  0  0
121211  1  0  0  0  0
121212  1  0  0  0  0
128213  1  0  0  0  0
132214  1  0  0  0  0
138215  1  0  0  0  0
138216  1  0  0  0  0
139217  1  0  0  0  0
139218  1  0  0  0  0
139219  1  0  0  0  0
150220  1  0  0  0  0
150221  1  0  0  0  0
151222  1  0  0  0  0
151223  1  0  0  0  0
151224  1  0  0  0  0
158225  1  0  0  0  0
159226  1  0  0  0  0
M  END
