226

C        -14.58530      -12.97100        7.88920
C        -13.30580      -13.02610        7.46730
C        -12.96670      -11.95330        6.59260
C        -11.72680      -11.66840        6.00240
C        -10.52890      -12.43640        6.30160
S         -9.51480      -13.06170        5.03590
C         -8.35740      -13.68380        6.16190
C         -7.10060      -14.32550        5.68810
C         -6.09790      -13.26700        5.22120
C         -8.74870      -13.41590        7.43950
Cl        -7.85380      -13.86850        8.83250
C         -9.98090      -12.71250        7.52340
Cl       -10.64320      -12.19040        9.01850
C        -11.67330      -10.57600        5.14630
C        -12.78110       -9.73210        4.89420
C        -14.01530       -9.99910        5.51000
C        -15.16340       -9.13090        5.30500
S        -15.05760       -7.42230        5.61640
C        -16.71790       -7.16260        5.20170
C        -17.33140       -5.81020        5.30440
C        -17.62880       -5.45000        6.76170
C        -17.30530       -8.33990        4.84770
C        -16.42780       -9.45680        4.90130
Cl       -16.91190      -11.02690        4.41520
Cl       -18.94640       -8.48730        4.36790
C        -14.07800      -11.11100        6.34280
S        -15.47070      -11.63230        7.24720
C        -12.45150       -8.68180        3.99920
C        -11.15060       -8.70350        3.59530
S        -10.25410      -10.03420        4.30090
C        -10.46550       -7.79960        2.73280
C         -9.16400       -7.88920        2.33770
C         -8.73950       -6.80730        1.53290
C         -7.47110       -6.60860        0.95970
C         -6.37520       -7.52070        1.23630
S         -5.44370       -8.23380       -0.04730
C         -4.45620       -9.12440        1.05790
C         -3.40390      -10.06200        0.57800
C         -3.95960      -11.48170        0.43970
C         -4.83860       -8.87520        2.34260
Cl        -4.09400       -9.58710        3.71510
C         -5.92030       -7.96140        2.44960
Cl        -6.51540       -7.41710        3.96560
C         -7.32610       -5.50900        0.12740
C         -8.37270       -4.58840       -0.12400
C         -9.63220       -4.76710        0.47940
C        -10.72230       -3.83940        0.23170
S        -11.18820       -3.41900       -1.39350
C        -12.47430       -2.39390       -0.85150
C        -13.36690       -1.67520       -1.80430
C        -12.65670       -1.29740       -3.09880
C        -12.52360       -2.38840        0.51010
C        -11.53540       -3.20280        1.12740
Cl       -11.34890       -3.27590        2.82900
Cl       -13.66470       -1.48410        1.41820
C         -9.78590       -5.88090        1.29640
S        -11.25390       -6.37330        2.09480
C         -7.95220       -3.52480       -0.95680
C         -6.64740       -3.61910       -1.35320
S         -5.86130       -5.04040       -0.68370
C         -5.89440       -2.72260       -2.15970
S         -4.18460       -2.61100       -1.94250
C         -4.03120       -1.32560       -3.08740
C         -5.26610       -1.02830       -3.67350
C         -6.33090       -1.82780       -3.14390
C         -7.63110       -1.70260       -3.67000
C         -7.86230       -0.79260       -4.66610
S         -9.46180       -0.58310       -5.38010
C         -6.81600        0.00290       -5.18880
C         -5.54460       -0.11840       -4.71710
C         -2.75760       -0.71910       -3.26790
C         -2.44770        0.53620       -3.71130
C         -1.06110        0.81760       -3.69880
C         -0.42580        2.02800       -4.03580
C         -1.17060        3.11560       -4.64170
S         -1.05200        4.74750       -4.05410
C         -2.16160        5.34020       -5.24280
C         -2.48980        6.78930       -5.32950
C         -1.35110        7.56660       -5.99400
C         -2.58150        4.32390       -6.04840
Cl        -3.68040        4.52190       -7.35250
C         -2.02680        3.06160       -5.70870
Cl        -2.34480        1.64470       -6.62580
C          0.93140        2.12360       -3.75520
C          1.68220        1.04400       -3.22950
C          1.06500       -0.19450       -2.97100
C          1.82360       -1.32080       -2.45440
S          2.85480       -1.15580       -1.06110
C          3.34160       -2.81520       -1.12030
C          4.35800       -3.35040       -0.17320
C          5.77320       -2.99820       -0.63920
C          2.73200       -3.44770       -2.16170
C          1.86640       -2.60810       -2.91480
Cl         1.04940       -3.16130       -4.31520
Cl         2.97300       -5.10120       -2.55040
C         -0.30190       -0.26970       -3.19740
S         -1.32220       -1.62000       -2.80660
C          3.03630        1.39240       -3.03010
C          3.32430        2.68690       -3.35430
S          1.93080        3.53140       -3.99050
C          4.57600        3.33660       -3.13360
C          5.61150        2.82770       -2.40350
C          6.70430        3.71390       -2.27330
C          7.89170        3.51120       -1.54700
C          8.11040        2.28650       -0.79430
S          6.94230        1.72660        0.36900
C          7.89490        0.34180        0.77960
C          7.45780       -0.60770        1.83980
C          7.87930       -0.11120        3.22490
C          9.04940        0.33120        0.05560
Cl        10.24390       -0.89380        0.18110
C          9.17530        1.43000       -0.83760
Cl        10.50070        1.59170       -1.91120
C          8.81960        4.54310       -1.56300
C          8.61140        5.74790       -2.28170
C          7.41280        5.95960       -2.98630
C          7.16580        7.21310       -3.67860
S          6.66080        7.23170       -5.34230
C          6.64600        8.96060       -5.40200
C          6.22050        9.68400       -6.63150
C          4.69400        9.75140       -6.72130
C          6.99980        9.47830       -4.19200
C          7.29470        8.49310       -3.21200
Cl         7.67770        8.90850       -1.58900
Cl         7.10430       11.15920       -3.86090
C          6.48610        4.92620       -2.97230
S          4.91650        4.94610       -3.72800
C          9.70830        6.63110       -2.15210
C         10.68250        6.17080       -1.31510
S         10.32570        4.57770       -0.69280
C         11.85430        6.88960       -0.92600
C         12.02510        8.23850       -1.03130
C         13.28730        8.68620       -0.57430
C         13.78660        9.99960       -0.56580
C         12.97440       11.11010       -1.03580
S         12.19870       11.07380       -2.59420
C         11.46680       12.62470       -2.36030
C         10.61800       13.24200       -3.41570
C         11.47390       13.84330       -4.53230
C         11.82340       13.13380       -1.14800
Cl        11.29570       14.65520       -0.55510
C         12.67220       12.27870       -0.39320
Cl        13.16750       12.66200        1.20140
C         15.08220       10.17360       -0.09270
C         15.87360        9.10490        0.39560
C         15.35580        7.80110        0.42780
C         16.12310        6.67970        0.94860
S         17.69090        6.27070        0.31790
C         17.85110        4.91210        1.37770
C         19.03960        4.01730        1.31960
C         18.81730        2.87890        0.32070
C         16.74410        4.79280        2.16340
C         15.76350        5.79290        1.92500
Cl        14.31920        5.90140        2.84100
Cl        16.53950        3.56530        3.34420
C         14.07280        7.61950       -0.07350
S         13.24240        6.09680       -0.22020
C         17.16090        9.55390        0.81140
C         17.34140       10.87630        0.61760
S         15.96600       11.67220       -0.06110
H        -15.09070      -13.64850        8.54950
H        -12.61630      -13.80000        7.74950
H         -7.32510      -15.00080        4.86030
H         -6.67170      -14.90520        6.50710
H         -5.85000      -12.59470        6.03870
H         -5.18510      -13.74350        4.87370
H         -6.51980      -12.68130        4.40770
H        -16.64940       -5.06950        4.88150
H        -18.25710       -5.80330        4.72630
H        -16.71040       -5.44760        7.34430
H        -18.08030       -4.46320        6.81730
H        -18.31470       -6.17250        7.19700
H        -13.14960       -7.93660        3.66300
H         -8.53650       -8.71810        2.60930
H         -3.02880       -9.71990       -0.38740
H         -2.58000      -10.06330        1.29460
H         -4.78200      -11.49750       -0.27140
H         -3.18160      -12.15430        0.08930
H         -4.32290      -11.83820        1.40020
H        -14.22630       -2.31290       -2.03620
H        -13.74770       -0.78120       -1.30540
H        -13.33520       -0.76250       -3.75760
H        -11.80190       -0.65830       -2.89130
H        -12.31130       -2.19270       -3.61220
H         -8.57750       -2.68570       -1.19500
H         -8.41950       -2.34580       -3.31220
H        -10.05560       -1.55270       -4.68610
H         -7.04290        0.68900       -5.99010
H         -4.74620        0.45140       -5.16190
H         -3.18780        1.27150       -3.96240
H         -2.65970        7.18450       -4.32620
H         -3.40580        6.90620       -5.91120
H         -1.60250        8.62220       -6.04930
H         -1.17910        7.19590       -7.00140
H         -0.43390        7.45370       -5.42080
H          4.24920       -4.43480       -0.11940
H          4.18710       -2.93110        0.82000
H          5.89910       -1.91900       -0.69100
H          5.95980       -3.41730       -1.62450
H          6.50610       -3.40180        0.05380
H          3.77250        0.70870       -2.65460
H          5.58630        1.85420       -1.95280
H          7.91380       -1.58030        1.64660
H          6.37200       -0.71320        1.80740
H          7.42960        0.85700        3.43150
H          8.96030       -0.01040        3.27620
H          7.55820       -0.81550        3.98740
H          6.61220        9.16820       -7.50990
H          6.63280       10.69420       -6.60510
H          4.39630       10.27660       -7.62470
H          4.27360        8.74890       -6.74380
H          4.28840       10.27890       -5.86170
H          9.78600        7.56380       -2.67720
H         11.26140        8.89360       -1.40470
H         10.00880       14.02300       -2.95740
H          9.95390       12.48420       -3.83630
H         10.83680       14.29050       -5.29050
H         12.13090       14.61120       -4.13170
H         12.08320       13.07190       -4.99760
H         19.91590        4.59630        1.02390
H         19.21280        3.60020        2.31360
H         17.95250        2.28780        0.61060
H         19.68940        2.23130        0.29320
H         18.64670        3.27870       -0.67610
H         17.90750        8.90540        1.23120
H         18.21290       11.46080        0.83910
