
  xtb     03032204093D
 energy: -440.362165370913 gnorm: 0.000279755676 xtb: 6.4.1 (unknown)
220245  0     0  0            999 V2000
    5.9090   -3.3607    9.5205 C   0  0  0  0  0  0  0  0  0  0  0  0
    6.1773   -2.0632    9.2703 C   0  0  0  0  0  0  0  0  0  0  0  0
    5.1470   -1.4192    8.5253 C   0  0  0  0  0  0  0  0  0  0  0  0
    5.0843   -0.0793    8.1135 C   0  0  0  0  0  0  0  0  0  0  0  0
    6.1250    0.8764    8.4598 C   0  0  0  0  0  0  0  0  0  0  0  0
    6.9307    1.8223    7.2449 S   0  0  0  0  0  0  0  0  0  0  0  0
    7.8959    2.6482    8.4189 C   0  0  0  0  0  0  0  0  0  0  0  0
    8.9233    3.6462    8.0125 C   0  0  0  0  0  0  0  0  0  0  0  0
   10.2715    2.9699    7.7517 C   0  0  0  0  0  0  0  0  0  0  0  0
    7.6031    2.2023    9.6734 C   0  0  0  0  0  0  0  0  0  0  0  0
    8.3562    2.7922   11.0983 Cl  0  0  0  0  0  0  0  0  0  0  0  0
    6.5960    1.2010    9.7012 C   0  0  0  0  0  0  0  0  0  0  0  0
    5.9887    0.5392   11.1644 Cl  0  0  0  0  0  0  0  0  0  0  0  0
    3.9676    0.3030    7.3830 C   0  0  0  0  0  0  0  0  0  0  0  0
    2.9049   -0.5835    7.0870 C   0  0  0  0  0  0  0  0  0  0  0  0
    2.9887   -1.9414    7.4491 C   0  0  0  0  0  0  0  0  0  0  0  0
    1.9729   -2.8888    7.0193 C   0  0  0  0  0  0  0  0  0  0  0  0
    0.2761   -2.5542    7.2215 S   0  0  0  0  0  0  0  0  0  0  0  0
   -0.1996   -4.0082    6.4167 C   0  0  0  0  0  0  0  0  0  0  0  0
   -1.6350   -4.3137    6.1711 C   0  0  0  0  0  0  0  0  0  0  0  0
   -2.1890   -3.4597    5.0280 C   0  0  0  0  0  0  0  0  0  0  0  0
    0.9012   -4.7092    6.0281 C   0  0  0  0  0  0  0  0  0  0  0  0
    2.1315   -4.0861    6.3736 C   0  0  0  0  0  0  0  0  0  0  0  0
    3.6356   -4.7642    5.9209 Cl  0  0  0  0  0  0  0  0  0  0  0  0
    0.8288   -6.2075    5.1916 Cl  0  0  0  0  0  0  0  0  0  0  0  0
    4.1075   -2.3202    8.1839 C   0  0  0  0  0  0  0  0  0  0  0  0
    4.4102   -3.8990    8.8507 S   0  0  0  0  0  0  0  0  0  0  0  0
    1.8710    0.0694    6.3762 C   0  0  0  0  0  0  0  0  0  0  0  0
    2.1318    1.3783    6.0969 C   0  0  0  0  0  0  0  0  0  0  0  0
    3.6715    1.8987    6.7436 S   0  0  0  0  0  0  0  0  0  0  0  0
    1.3269    2.2133    5.2662 C   0  0  0  0  0  0  0  0  0  0  0  0
    1.6370    3.4024    4.6782 C   0  0  0  0  0  0  0  0  0  0  0  0
    0.6729    3.8298    3.7281 C   0  0  0  0  0  0  0  0  0  0  0  0
    0.7309    4.9324    2.8569 C   0  0  0  0  0  0  0  0  0  0  0  0
    1.8854    5.8155    2.8335 C   0  0  0  0  0  0  0  0  0  0  0  0
    1.7089    7.5368    2.9924 S   0  0  0  0  0  0  0  0  0  0  0  0
    3.4137    7.8010    2.8632 C   0  0  0  0  0  0  0  0  0  0  0  0
    3.9935    9.1665    2.9861 C   0  0  0  0  0  0  0  0  0  0  0  0
    4.1790    9.5517    4.4558 C   0  0  0  0  0  0  0  0  0  0  0  0
    4.0672    6.6147    2.7078 C   0  0  0  0  0  0  0  0  0  0  0  0
    5.7697    6.4732    2.5446 Cl  0  0  0  0  0  0  0  0  0  0  0  0
    3.2044    5.4866    2.6843 C   0  0  0  0  0  0  0  0  0  0  0  0
    3.7776    3.8913    2.4087 Cl  0  0  0  0  0  0  0  0  0  0  0  0
   -0.3304    5.0999    1.9763 C   0  0  0  0  0  0  0  0  0  0  0  0
   -1.4447    4.2266    1.9364 C   0  0  0  0  0  0  0  0  0  0  0  0
   -1.5003    3.1162    2.7962 C   0  0  0  0  0  0  0  0  0  0  0  0
   -2.5693    2.1346    2.7089 C   0  0  0  0  0  0  0  0  0  0  0  0
   -2.1876    0.4497    2.5006 S   0  0  0  0  0  0  0  0  0  0  0  0
   -3.8530   -0.0065    2.4374 C   0  0  0  0  0  0  0  0  0  0  0  0
   -4.2505   -1.4305    2.2571 C   0  0  0  0  0  0  0  0  0  0  0  0
   -3.3097   -2.1774    1.3159 C   0  0  0  0  0  0  0  0  0  0  0  0
   -4.6472    1.0932    2.5804 C   0  0  0  0  0  0  0  0  0  0  0  0
   -3.9247    2.3092    2.7272 C   0  0  0  0  0  0  0  0  0  0  0  0
   -4.7034    3.8205    2.9667 Cl  0  0  0  0  0  0  0  0  0  0  0  0
   -6.3661    1.0408    2.5914 Cl  0  0  0  0  0  0  0  0  0  0  0  0
   -0.4271    2.9406    3.6578 C   0  0  0  0  0  0  0  0  0  0  0  0
   -0.2360    1.6046    4.7528 S   0  0  0  0  0  0  0  0  0  0  0  0
   -2.3170    4.5344    0.8661 C   0  0  0  0  0  0  0  0  0  0  0  0
   -1.8849    5.5668    0.0880 C   0  0  0  0  0  0  0  0  0  0  0  0
   -0.3969    6.2693    0.6819 S   0  0  0  0  0  0  0  0  0  0  0  0
   -2.4503    5.9043   -1.1828 C   0  0  0  0  0  0  0  0  0  0  0  0
   -1.7986    6.2554   -2.3260 C   0  0  0  0  0  0  0  0  0  0  0  0
   -2.5881    6.0892   -3.4949 C   0  0  0  0  0  0  0  0  0  0  0  0
   -2.1417    6.1198   -4.8343 C   0  0  0  0  0  0  0  0  0  0  0  0
   -0.8771    6.7325   -5.1734 C   0  0  0  0  0  0  0  0  0  0  0  0
    0.2479    6.0045   -6.2819 S   0  0  0  0  0  0  0  0  0  0  0  0
    1.3750    7.3043   -6.1163 C   0  0  0  0  0  0  0  0  0  0  0  0
    2.6794    7.3218   -6.8371 C   0  0  0  0  0  0  0  0  0  0  0  0
    2.7515    6.2804   -7.9451 C   0  0  0  0  0  0  0  0  0  0  0  0
    0.8907    8.2458   -5.2546 C   0  0  0  0  0  0  0  0  0  0  0  0
    1.7349    9.6866   -4.8565 Cl  0  0  0  0  0  0  0  0  0  0  0  0
   -0.3811    7.9279   -4.7162 C   0  0  0  0  0  0  0  0  0  0  0  0
   -1.2278    8.9991   -3.6774 Cl  0  0  0  0  0  0  0  0  0  0  0  0
   -2.9375    5.4408   -5.7536 C   0  0  0  0  0  0  0  0  0  0  0  0
   -4.2298    4.9675   -5.4318 C   0  0  0  0  0  0  0  0  0  0  0  0
   -4.7882    5.2053   -4.1611 C   0  0  0  0  0  0  0  0  0  0  0  0
   -6.1814    4.9286   -3.8992 C   0  0  0  0  0  0  0  0  0  0  0  0
   -6.7421    4.2319   -2.4087 S   0  0  0  0  0  0  0  0  0  0  0  0
   -8.4031    4.3249   -2.8915 C   0  0  0  0  0  0  0  0  0  0  0  0
   -9.4977    3.8723   -1.9894 C   0  0  0  0  0  0  0  0  0  0  0  0
   -9.4133    4.5450   -0.6201 C   0  0  0  0  0  0  0  0  0  0  0  0
   -8.5007    4.8712   -4.1370 C   0  0  0  0  0  0  0  0  0  0  0  0
   -7.2492    5.2117   -4.7134 C   0  0  0  0  0  0  0  0  0  0  0  0
   -7.1320    5.9939   -6.2360 Cl  0  0  0  0  0  0  0  0  0  0  0  0
   -9.9862    5.1421   -4.9548 Cl  0  0  0  0  0  0  0  0  0  0  0  0
   -3.8944    5.6429   -3.1884 C   0  0  0  0  0  0  0  0  0  0  0  0
   -4.1371    5.5206   -1.4707 S   0  0  0  0  0  0  0  0  0  0  0  0
   -4.7169    4.0530   -6.3992 C   0  0  0  0  0  0  0  0  0  0  0  0
   -3.8407    3.8139   -7.4126 C   0  0  0  0  0  0  0  0  0  0  0  0
   -2.4383    4.8707   -7.3279 S   0  0  0  0  0  0  0  0  0  0  0  0
   -3.7910    2.5740   -8.1440 C   0  0  0  0  0  0  0  0  0  0  0  0
   -3.2698    2.2980   -9.7876 S   0  0  0  0  0  0  0  0  0  0  0  0
   -3.2142    0.5865   -9.5096 C   0  0  0  0  0  0  0  0  0  0  0  0
   -2.8292   -0.1973  -10.5284 O   0  0  0  0  0  0  0  0  0  0  0  0
   -3.5844    0.2399   -8.2282 C   0  0  0  0  0  0  0  0  0  0  0  0
   -3.9334    1.3954   -7.4779 C   0  0  0  0  0  0  0  0  0  0  0  0
   -3.4179   -1.0222   -7.5514 C   0  0  0  0  0  0  0  0  0  0  0  0
   -3.8354   -1.2753   -6.2801 C   0  0  0  0  0  0  0  0  0  0  0  0
   -3.2279   -2.4075   -5.6867 C   0  0  0  0  0  0  0  0  0  0  0  0
   -3.2727   -2.7907   -4.3387 C   0  0  0  0  0  0  0  0  0  0  0  0
   -4.1033   -2.1193   -3.3527 C   0  0  0  0  0  0  0  0  0  0  0  0
   -4.0637   -0.3960   -3.1091 S   0  0  0  0  0  0  0  0  0  0  0  0
   -5.1687   -0.4730   -1.7791 C   0  0  0  0  0  0  0  0  0  0  0  0
   -5.5906    0.7566   -1.0526 C   0  0  0  0  0  0  0  0  0  0  0  0
   -7.0796    1.0469   -1.2387 C   0  0  0  0  0  0  0  0  0  0  0  0
   -5.5492   -1.7636   -1.5598 C   0  0  0  0  0  0  0  0  0  0  0  0
   -6.6429   -2.2556   -0.3343 Cl  0  0  0  0  0  0  0  0  0  0  0  0
   -4.9464   -2.6972   -2.4437 C   0  0  0  0  0  0  0  0  0  0  0  0
   -5.3157   -4.3703   -2.3982 Cl  0  0  0  0  0  0  0  0  0  0  0  0
   -2.4067   -3.8047   -3.9492 C   0  0  0  0  0  0  0  0  0  0  0  0
   -1.5840   -4.5220   -4.8516 C   0  0  0  0  0  0  0  0  0  0  0  0
   -1.5796   -4.1657   -6.2132 C   0  0  0  0  0  0  0  0  0  0  0  0
   -0.7061   -4.8185   -7.1766 C   0  0  0  0  0  0  0  0  0  0  0  0
   -1.3460   -5.5142   -8.6361 S   0  0  0  0  0  0  0  0  0  0  0  0
    0.2207   -6.0030   -9.1829 C   0  0  0  0  0  0  0  0  0  0  0  0
    0.3959   -6.7641  -10.4503 C   0  0  0  0  0  0  0  0  0  0  0  0
    0.2717   -8.2702  -10.2066 C   0  0  0  0  0  0  0  0  0  0  0  0
    1.1720   -5.6436   -8.2755 C   0  0  0  0  0  0  0  0  0  0  0  0
    0.6521   -4.9659   -7.1396 C   0  0  0  0  0  0  0  0  0  0  0  0
    1.6594   -4.3302   -5.9021 Cl  0  0  0  0  0  0  0  0  0  0  0  0
    2.8478   -5.9567   -8.4732 Cl  0  0  0  0  0  0  0  0  0  0  0  0
   -2.3805   -3.0947   -6.5854 C   0  0  0  0  0  0  0  0  0  0  0  0
   -2.3558   -2.2991   -8.1399 S   0  0  0  0  0  0  0  0  0  0  0  0
   -0.7608   -5.4639   -4.1751 C   0  0  0  0  0  0  0  0  0  0  0  0
   -0.8679   -5.3922   -2.8198 C   0  0  0  0  0  0  0  0  0  0  0  0
   -2.0807   -4.2421   -2.3030 S   0  0  0  0  0  0  0  0  0  0  0  0
   -0.0788   -6.0117   -1.7935 C   0  0  0  0  0  0  0  0  0  0  0  0
    0.5006   -7.2389   -1.7242 C   0  0  0  0  0  0  0  0  0  0  0  0
    1.2196   -7.4506   -0.5144 C   0  0  0  0  0  0  0  0  0  0  0  0
    1.9318   -8.5928   -0.1133 C   0  0  0  0  0  0  0  0  0  0  0  0
    1.9988   -9.7842   -0.9432 C   0  0  0  0  0  0  0  0  0  0  0  0
    0.5582  -10.5714   -1.5186 S   0  0  0  0  0  0  0  0  0  0  0  0
    1.4596  -11.8193   -2.3100 C   0  0  0  0  0  0  0  0  0  0  0  0
    0.7780  -12.8797   -3.1021 C   0  0  0  0  0  0  0  0  0  0  0  0
    0.4428  -12.3794   -4.5093 C   0  0  0  0  0  0  0  0  0  0  0  0
    2.7962  -11.6161   -2.1401 C   0  0  0  0  0  0  0  0  0  0  0  0
    4.0098  -12.6396   -2.7906 Cl  0  0  0  0  0  0  0  0  0  0  0  0
    3.1061  -10.4689   -1.3604 C   0  0  0  0  0  0  0  0  0  0  0  0
    4.7176   -9.9690   -1.0620 Cl  0  0  0  0  0  0  0  0  0  0  0  0
    2.5559   -8.5435    1.1289 C   0  0  0  0  0  0  0  0  0  0  0  0
    2.5601   -7.3905    1.9514 C   0  0  0  0  0  0  0  0  0  0  0  0
    1.9108   -6.2232    1.5191 C   0  0  0  0  0  0  0  0  0  0  0  0
    2.0165   -4.9593    2.2242 C   0  0  0  0  0  0  0  0  0  0  0  0
    0.6470   -3.8988    2.3966 S   0  0  0  0  0  0  0  0  0  0  0  0
    1.6068   -2.6311    3.0725 C   0  0  0  0  0  0  0  0  0  0  0  0
    1.0546   -1.2688    3.2875 C   0  0  0  0  0  0  0  0  0  0  0  0
    1.0793   -0.4863    1.9718 C   0  0  0  0  0  0  0  0  0  0  0  0
    2.9040   -3.0308    3.1880 C   0  0  0  0  0  0  0  0  0  0  0  0
    3.1439   -4.3445    2.7024 C   0  0  0  0  0  0  0  0  0  0  0  0
    4.7281   -4.9936    2.6022 Cl  0  0  0  0  0  0  0  0  0  0  0  0
    4.1414   -2.0373    3.8466 Cl  0  0  0  0  0  0  0  0  0  0  0  0
    1.2043   -6.3090    0.3216 C   0  0  0  0  0  0  0  0  0  0  0  0
    0.2556   -5.0340   -0.3778 S   0  0  0  0  0  0  0  0  0  0  0  0
    3.2165   -7.6364    3.1924 C   0  0  0  0  0  0  0  0  0  0  0  0
    3.6803   -8.8975    3.2988 C   0  0  0  0  0  0  0  0  0  0  0  0
    3.3685   -9.8721    1.9052 S   0  0  0  0  0  0  0  0  0  0  0  0
    6.5095   -4.0656   10.0617 H   0  0  0  0  0  0  0  0  0  0  0  0
    7.0737   -1.5671    9.5928 H   0  0  0  0  0  0  0  0  0  0  0  0
    9.0336    4.3815    8.8119 H   0  0  0  0  0  0  0  0  0  0  0  0
    8.5913    4.1578    7.1079 H   0  0  0  0  0  0  0  0  0  0  0  0
   11.0108    3.7116    7.4616 H   0  0  0  0  0  0  0  0  0  0  0  0
   10.6188    2.4640    8.6489 H   0  0  0  0  0  0  0  0  0  0  0  0
   10.1782    2.2382    6.9528 H   0  0  0  0  0  0  0  0  0  0  0  0
   -2.2092   -4.1191    7.0792 H   0  0  0  0  0  0  0  0  0  0  0  0
   -1.7284   -5.3709    5.9186 H   0  0  0  0  0  0  0  0  0  0  0  0
   -1.6357   -3.6506    4.1114 H   0  0  0  0  0  0  0  0  0  0  0  0
   -2.1092   -2.4028    5.2735 H   0  0  0  0  0  0  0  0  0  0  0  0
   -3.2347   -3.7039    4.8613 H   0  0  0  0  0  0  0  0  0  0  0  0
    0.9552   -0.4047    6.0782 H   0  0  0  0  0  0  0  0  0  0  0  0
    2.5431    3.9366    4.8974 H   0  0  0  0  0  0  0  0  0  0  0  0
    3.3305    9.8863    2.5032 H   0  0  0  0  0  0  0  0  0  0  0  0
    4.9596    9.1837    2.4784 H   0  0  0  0  0  0  0  0  0  0  0  0
    3.2220    9.5400    4.9720 H   0  0  0  0  0  0  0  0  0  0  0  0
    4.8483    8.8504    4.9476 H   0  0  0  0  0  0  0  0  0  0  0  0
    4.6037   10.5491    4.5294 H   0  0  0  0  0  0  0  0  0  0  0  0
   -4.2505   -1.9271    3.2321 H   0  0  0  0  0  0  0  0  0  0  0  0
   -5.2715   -1.4568    1.8723 H   0  0  0  0  0  0  0  0  0  0  0  0
   -2.3048   -2.2169    1.7299 H   0  0  0  0  0  0  0  0  0  0  0  0
   -3.2648   -1.6837    0.3482 H   0  0  0  0  0  0  0  0  0  0  0  0
   -3.6593   -3.1946    1.1657 H   0  0  0  0  0  0  0  0  0  0  0  0
   -3.1994    3.9676    0.6330 H   0  0  0  0  0  0  0  0  0  0  0  0
   -0.7533    6.5058   -2.3432 H   0  0  0  0  0  0  0  0  0  0  0  0
    2.8321    8.3236   -7.2483 H   0  0  0  0  0  0  0  0  0  0  0  0
    3.4830    7.1467   -6.1139 H   0  0  0  0  0  0  0  0  0  0  0  0
    2.6346    5.2802   -7.5342 H   0  0  0  0  0  0  0  0  0  0  0  0
    3.7111    6.3377   -8.4517 H   0  0  0  0  0  0  0  0  0  0  0  0
    1.9620    6.4451   -8.6744 H   0  0  0  0  0  0  0  0  0  0  0  0
   -9.4410    2.7879   -1.8613 H   0  0  0  0  0  0  0  0  0  0  0  0
  -10.4512    4.1085   -2.4646 H   0  0  0  0  0  0  0  0  0  0  0  0
   -9.4904    5.6244   -0.7227 H   0  0  0  0  0  0  0  0  0  0  0  0
   -8.4654    4.3121   -0.1403 H   0  0  0  0  0  0  0  0  0  0  0  0
  -10.2219    4.1977    0.0173 H   0  0  0  0  0  0  0  0  0  0  0  0
   -5.6359    3.5083   -6.2831 H   0  0  0  0  0  0  0  0  0  0  0  0
   -2.7955   -1.1238  -10.2531 H   0  0  0  0  0  0  0  0  0  0  0  0
   -4.1949    1.3613   -6.4375 H   0  0  0  0  0  0  0  0  0  0  0  0
   -4.5215   -0.6451   -5.7481 H   0  0  0  0  0  0  0  0  0  0  0  0
   -5.3871    0.6232    0.0116 H   0  0  0  0  0  0  0  0  0  0  0  0
   -5.0058    1.6049   -1.4117 H   0  0  0  0  0  0  0  0  0  0  0  0
   -7.6786    0.2200   -0.8690 H   0  0  0  0  0  0  0  0  0  0  0  0
   -7.3412    1.9430   -0.6841 H   0  0  0  0  0  0  0  0  0  0  0  0
   -7.3071    1.2037   -2.2902 H   0  0  0  0  0  0  0  0  0  0  0  0
   -0.3604   -6.4479  -11.1703 H   0  0  0  0  0  0  0  0  0  0  0  0
    1.3838   -6.5417  -10.8582 H   0  0  0  0  0  0  0  0  0  0  0  0
    1.0257   -8.6000   -9.4965 H   0  0  0  0  0  0  0  0  0  0  0  0
    0.4107   -8.8110  -11.1386 H   0  0  0  0  0  0  0  0  0  0  0  0
   -0.7112   -8.5085   -9.8071 H   0  0  0  0  0  0  0  0  0  0  0  0
   -0.0776   -6.1260   -4.6733 H   0  0  0  0  0  0  0  0  0  0  0  0
    0.4045   -7.9800   -2.4960 H   0  0  0  0  0  0  0  0  0  0  0  0
    1.4396  -13.7450   -3.1687 H   0  0  0  0  0  0  0  0  0  0  0  0
   -0.1410  -13.1788   -2.5949 H   0  0  0  0  0  0  0  0  0  0  0  0
    1.3502  -12.0824   -5.0291 H   0  0  0  0  0  0  0  0  0  0  0  0
   -0.0438  -13.1660   -5.0794 H   0  0  0  0  0  0  0  0  0  0  0  0
   -0.2248  -11.5226   -4.4556 H   0  0  0  0  0  0  0  0  0  0  0  0
    0.0304   -1.3239    3.6581 H   0  0  0  0  0  0  0  0  0  0  0  0
    1.6771   -0.7549    4.0194 H   0  0  0  0  0  0  0  0  0  0  0  0
    0.4625   -0.9795    1.2250 H   0  0  0  0  0  0  0  0  0  0  0  0
    2.0971   -0.4181    1.5964 H   0  0  0  0  0  0  0  0  0  0  0  0
    0.6979    0.5186    2.1282 H   0  0  0  0  0  0  0  0  0  0  0  0
    3.3085   -6.9050    3.9725 H   0  0  0  0  0  0  0  0  0  0  0  0
    4.2005   -9.3395    4.1260 H   0  0  0  0  0  0  0  0  0  0  0  0
  1  2  2  0  0  0  0
  2  3  1  0  0  0  0
  3  4  2  0  0  0  0
  4  5  1  0  0  0  0
  5  6  1  0  0  0  0
  6  7  1  0  0  0  0
  7  8  1  0  0  0  0
  8  9  1  0  0  0  0
  7 10  2  0  0  0  0
 10 11  1  0  0  0  0
 10 12  1  0  0  0  0
 12 13  1  0  0  0  0
  4 14  1  0  0  0  0
 14 15  2  0  0  0  0
 15 16  1  0  0  0  0
 16 17  1  0  0  0  0
 17 18  1  0  0  0  0
 18 19  1  0  0  0  0
 19 20  1  0  0  0  0
 20 21  1  0  0  0  0
 19 22  2  0  0  0  0
 22 23  1  0  0  0  0
 23 24  1  0  0  0  0
 22 25  1  0  0  0  0
 16 26  2  0  0  0  0
 26 27  1  0  0  0  0
 15 28  1  0  0  0  0
 28 29  2  0  0  0  0
 29 30  1  0  0  0  0
 29 31  1  0  0  0  0
 31 32  2  0  0  0  0
 32 33  1  0  0  0  0
 33 34  2  0  0  0  0
 34 35  1  0  0  0  0
 35 36  1  0  0  0  0
 36 37  1  0  0  0  0
 37 38  1  0  0  0  0
 38 39  1  0  0  0  0
 37 40  2  0  0  0  0
 40 41  1  0  0  0  0
 40 42  1  0  0  0  0
 42 43  1  0  0  0  0
 34 44  1  0  0  0  0
 44 45  2  0  0  0  0
 45 46  1  0  0  0  0
 46 47  1  0  0  0  0
 47 48  1  0  0  0  0
 48 49  1  0  0  0  0
 49 50  1  0  0  0  0
 50 51  1  0  0  0  0
 49 52  2  0  0  0  0
 52 53  1  0  0  0  0
 53 54  1  0  0  0  0
 52 55  1  0  0  0  0
 46 56  2  0  0  0  0
 56 57  1  0  0  0  0
 45 58  1  0  0  0  0
 58 59  2  0  0  0  0
 59 60  1  0  0  0  0
 59 61  1  0  0  0  0
 61 62  2  0  0  0  0
 62 63  1  0  0  0  0
 63 64  2  0  0  0  0
 64 65  1  0  0  0  0
 65 66  1  0  0  0  0
 66 67  1  0  0  0  0
 67 68  1  0  0  0  0
 68 69  1  0  0  0  0
 67 70  2  0  0  0  0
 70 71  1  0  0  0  0
 70 72  1  0  0  0  0
 72 73  1  0  0  0  0
 64 74  1  0  0  0  0
 74 75  2  0  0  0  0
 75 76  1  0  0  0  0
 76 77  1  0  0  0  0
 77 78  1  0  0  0  0
 78 79  1  0  0  0  0
 79 80  1  0  0  0  0
 80 81  1  0  0  0  0
 79 82  2  0  0  0  0
 82 83  1  0  0  0  0
 83 84  1  0  0  0  0
 82 85  1  0  0  0  0
 76 86  2  0  0  0  0
 86 87  1  0  0  0  0
 75 88  1  0  0  0  0
 88 89  2  0  0  0  0
 89 90  1  0  0  0  0
 89 91  1  0  0  0  0
 91 92  1  0  0  0  0
 92 93  1  0  0  0  0
 93 94  1  0  0  0  0
 93 95  2  0  0  0  0
 95 96  1  0  0  0  0
 95 97  1  0  0  0  0
 97 98  2  0  0  0  0
 98 99  1  0  0  0  0
 99100  2  0  0  0  0
100101  1  0  0  0  0
101102  1  0  0  0  0
102103  1  0  0  0  0
103104  1  0  0  0  0
104105  1  0  0  0  0
103106  2  0  0  0  0
106107  1  0  0  0  0
106108  1  0  0  0  0
108109  1  0  0  0  0
100110  1  0  0  0  0
110111  2  0  0  0  0
111112  1  0  0  0  0
112113  1  0  0  0  0
113114  1  0  0  0  0
114115  1  0  0  0  0
115116  1  0  0  0  0
116117  1  0  0  0  0
115118  2  0  0  0  0
118119  1  0  0  0  0
119120  1  0  0  0  0
118121  1  0  0  0  0
112122  2  0  0  0  0
122123  1  0  0  0  0
111124  1  0  0  0  0
124125  2  0  0  0  0
125126  1  0  0  0  0
125127  1  0  0  0  0
127128  2  0  0  0  0
128129  1  0  0  0  0
129130  2  0  0  0  0
130131  1  0  0  0  0
131132  1  0  0  0  0
132133  1  0  0  0  0
133134  1  0  0  0  0
134135  1  0  0  0  0
133136  2  0  0  0  0
136137  1  0  0  0  0
136138  1  0  0  0  0
138139  1  0  0  0  0
130140  1  0  0  0  0
140141  2  0  0  0  0
141142  1  0  0  0  0
142143  1  0  0  0  0
143144  1  0  0  0  0
144145  1  0  0  0  0
145146  1  0  0  0  0
146147  1  0  0  0  0
145148  2  0  0  0  0
148149  1  0  0  0  0
149150  1  0  0  0  0
148151  1  0  0  0  0
142152  2  0  0  0  0
152153  1  0  0  0  0
141154  1  0  0  0  0
154155  2  0  0  0  0
155156  1  0  0  0  0
 27  1  1  0  0  0  0
 57 31  1  0  0  0  0
 87 61  1  0  0  0  0
 96 91  2  0  0  0  0
123 97  1  0  0  0  0
153127  1  0  0  0  0
 26  3  1  0  0  0  0
 56 33  1  0  0  0  0
 86 63  1  0  0  0  0
122 99  1  0  0  0  0
152129  1  0  0  0  0
 12  5  2  0  0  0  0
 30 14  1  0  0  0  0
 42 35  2  0  0  0  0
 60 44  1  0  0  0  0
 72 65  2  0  0  0  0
 90 74  1  0  0  0  0
108101  2  0  0  0  0
126110  1  0  0  0  0
138131  2  0  0  0  0
156140  1  0  0  0  0
 23 17  2  0  0  0  0
 53 47  2  0  0  0  0
 83 77  2  0  0  0  0
119113  2  0  0  0  0
149143  2  0  0  0  0
  1157  1  0  0  0  0
  2158  1  0  0  0  0
  8159  1  0  0  0  0
  8160  1  0  0  0  0
  9161  1  0  0  0  0
  9162  1  0  0  0  0
  9163  1  0  0  0  0
 20164  1  0  0  0  0
 20165  1  0  0  0  0
 21166  1  0  0  0  0
 21167  1  0  0  0  0
 21168  1  0  0  0  0
 28169  1  0  0  0  0
 32170  1  0  0  0  0
 38171  1  0  0  0  0
 38172  1  0  0  0  0
 39173  1  0  0  0  0
 39174  1  0  0  0  0
 39175  1  0  0  0  0
 50176  1  0  0  0  0
 50177  1  0  0  0  0
 51178  1  0  0  0  0
 51179  1  0  0  0  0
 51180  1  0  0  0  0
 58181  1  0  0  0  0
 62182  1  0  0  0  0
 68183  1  0  0  0  0
 68184  1  0  0  0  0
 69185  1  0  0  0  0
 69186  1  0  0  0  0
 69187  1  0  0  0  0
 80188  1  0  0  0  0
 80189  1  0  0  0  0
 81190  1  0  0  0  0
 81191  1  0  0  0  0
 81192  1  0  0  0  0
 88193  1  0  0  0  0
 94194  1  0  0  0  0
 96195  1  0  0  0  0
 98196  1  0  0  0  0
104197  1  0  0  0  0
104198  1  0  0  0  0
105199  1  0  0  0  0
105200  1  0  0  0  0
105201  1  0  0  0  0
116202  1  0  0  0  0
116203  1  0  0  0  0
117204  1  0  0  0  0
117205  1  0  0  0  0
117206  1  0  0  0  0
124207  1  0  0  0  0
128208  1  0  0  0  0
134209  1  0  0  0  0
134210  1  0  0  0  0
135211  1  0  0  0  0
135212  1  0  0  0  0
135213  1  0  0  0  0
146214  1  0  0  0  0
146215  1  0  0  0  0
147216  1  0  0  0  0
147217  1  0  0  0  0
147218  1  0  0  0  0
154219  1  0  0  0  0
155220  1  0  0  0  0
M  END
