220

C          5.90900       -3.36070        9.52050
C          6.17730       -2.06320        9.27030
C          5.14700       -1.41920        8.52530
C          5.08430       -0.07930        8.11350
C          6.12500        0.87640        8.45980
S          6.93070        1.82230        7.24490
C          7.89590        2.64820        8.41890
C          8.92330        3.64620        8.01250
C         10.27150        2.96990        7.75170
C          7.60310        2.20230        9.67340
Cl         8.35620        2.79220       11.09830
C          6.59600        1.20100        9.70120
Cl         5.98870        0.53920       11.16440
C          3.96760        0.30300        7.38300
C          2.90490       -0.58350        7.08700
C          2.98870       -1.94140        7.44910
C          1.97290       -2.88880        7.01930
S          0.27610       -2.55420        7.22150
C         -0.19960       -4.00820        6.41670
C         -1.63500       -4.31370        6.17110
C         -2.18900       -3.45970        5.02800
C          0.90120       -4.70920        6.02810
C          2.13150       -4.08610        6.37360
Cl         3.63560       -4.76420        5.92090
Cl         0.82880       -6.20750        5.19160
C          4.10750       -2.32020        8.18390
S          4.41020       -3.89900        8.85070
C          1.87100        0.06940        6.37620
C          2.13180        1.37830        6.09690
S          3.67150        1.89870        6.74360
C          1.32690        2.21330        5.26620
C          1.63700        3.40240        4.67820
C          0.67290        3.82980        3.72810
C          0.73090        4.93240        2.85690
C          1.88540        5.81550        2.83350
S          1.70890        7.53680        2.99240
C          3.41370        7.80100        2.86320
C          3.99350        9.16650        2.98610
C          4.17900        9.55170        4.45580
C          4.06720        6.61470        2.70780
Cl         5.76970        6.47320        2.54460
C          3.20440        5.48660        2.68430
Cl         3.77760        3.89130        2.40870
C         -0.33040        5.09990        1.97630
C         -1.44470        4.22660        1.93640
C         -1.50030        3.11620        2.79620
C         -2.56930        2.13460        2.70890
S         -2.18760        0.44970        2.50060
C         -3.85300       -0.00650        2.43740
C         -4.25050       -1.43050        2.25710
C         -3.30970       -2.17740        1.31590
C         -4.64720        1.09320        2.58040
C         -3.92470        2.30920        2.72720
Cl        -4.70340        3.82050        2.96670
Cl        -6.36610        1.04080        2.59140
C         -0.42710        2.94060        3.65780
S         -0.23600        1.60460        4.75280
C         -2.31700        4.53440        0.86610
C         -1.88490        5.56680        0.08800
S         -0.39690        6.26930        0.68190
C         -2.45030        5.90430       -1.18280
C         -1.79860        6.25540       -2.32600
C         -2.58810        6.08920       -3.49490
C         -2.14170        6.11980       -4.83430
C         -0.87710        6.73250       -5.17340
S          0.24790        6.00450       -6.28190
C          1.37500        7.30430       -6.11630
C          2.67940        7.32180       -6.83710
C          2.75150        6.28040       -7.94510
C          0.89070        8.24580       -5.25460
Cl         1.73490        9.68660       -4.85650
C         -0.38110        7.92790       -4.71620
Cl        -1.22780        8.99910       -3.67740
C         -2.93750        5.44080       -5.75360
C         -4.22980        4.96750       -5.43180
C         -4.78820        5.20530       -4.16110
C         -6.18140        4.92860       -3.89920
S         -6.74210        4.23190       -2.40870
C         -8.40310        4.32490       -2.89150
C         -9.49770        3.87230       -1.98940
C         -9.41330        4.54500       -0.62010
C         -8.50070        4.87120       -4.13700
C         -7.24920        5.21170       -4.71340
Cl        -7.13200        5.99390       -6.23600
Cl        -9.98620        5.14210       -4.95480
C         -3.89440        5.64290       -3.18840
S         -4.13710        5.52060       -1.47070
C         -4.71690        4.05300       -6.39920
C         -3.84070        3.81390       -7.41260
S         -2.43830        4.87070       -7.32790
C         -3.79100        2.57400       -8.14400
S         -3.26980        2.29800       -9.78760
C         -3.21420        0.58650       -9.50960
O         -2.82920       -0.19730      -10.52840
C         -3.58440        0.23990       -8.22820
C         -3.93340        1.39540       -7.47790
C         -3.41790       -1.02220       -7.55140
C         -3.83540       -1.27530       -6.28010
C         -3.22790       -2.40750       -5.68670
C         -3.27270       -2.79070       -4.33870
C         -4.10330       -2.11930       -3.35270
S         -4.06370       -0.39600       -3.10910
C         -5.16870       -0.47300       -1.77910
C         -5.59060        0.75660       -1.05260
C         -7.07960        1.04690       -1.23870
C         -5.54920       -1.76360       -1.55980
Cl        -6.64290       -2.25560       -0.33430
C         -4.94640       -2.69720       -2.44370
Cl        -5.31570       -4.37030       -2.39820
C         -2.40670       -3.80470       -3.94920
C         -1.58400       -4.52200       -4.85160
C         -1.57960       -4.16570       -6.21320
C         -0.70610       -4.81850       -7.17660
S         -1.34600       -5.51420       -8.63610
C          0.22070       -6.00300       -9.18290
C          0.39590       -6.76410      -10.45030
C          0.27170       -8.27020      -10.20660
C          1.17200       -5.64360       -8.27550
C          0.65210       -4.96590       -7.13960
Cl         1.65940       -4.33020       -5.90210
Cl         2.84780       -5.95670       -8.47320
C         -2.38050       -3.09470       -6.58540
S         -2.35580       -2.29910       -8.13990
C         -0.76080       -5.46390       -4.17510
C         -0.86790       -5.39220       -2.81980
S         -2.08070       -4.24210       -2.30300
C         -0.07880       -6.01170       -1.79350
C          0.50060       -7.23890       -1.72420
C          1.21960       -7.45060       -0.51440
C          1.93180       -8.59280       -0.11330
C          1.99880       -9.78420       -0.94320
S          0.55820      -10.57140       -1.51860
C          1.45960      -11.81930       -2.31000
C          0.77800      -12.87970       -3.10210
C          0.44280      -12.37940       -4.50930
C          2.79620      -11.61610       -2.14010
Cl         4.00980      -12.63960       -2.79060
C          3.10610      -10.46890       -1.36040
Cl         4.71760       -9.96900       -1.06200
C          2.55590       -8.54350        1.12890
C          2.56010       -7.39050        1.95140
C          1.91080       -6.22320        1.51910
C          2.01650       -4.95930        2.22420
S          0.64700       -3.89880        2.39660
C          1.60680       -2.63110        3.07250
C          1.05460       -1.26880        3.28750
C          1.07930       -0.48630        1.97180
C          2.90400       -3.03080        3.18800
C          3.14390       -4.34450        2.70240
Cl         4.72810       -4.99360        2.60220
Cl         4.14140       -2.03730        3.84660
C          1.20430       -6.30900        0.32160
S          0.25560       -5.03400       -0.37780
C          3.21650       -7.63640        3.19240
C          3.68030       -8.89750        3.29880
S          3.36850       -9.87210        1.90520
H          6.50950       -4.06560       10.06170
H          7.07370       -1.56710        9.59280
H          9.03360        4.38150        8.81190
H          8.59130        4.15780        7.10790
H         11.01080        3.71160        7.46160
H         10.61880        2.46400        8.64890
H         10.17820        2.23820        6.95280
H         -2.20920       -4.11910        7.07920
H         -1.72840       -5.37090        5.91860
H         -1.63570       -3.65060        4.11140
H         -2.10920       -2.40280        5.27350
H         -3.23470       -3.70390        4.86130
H          0.95520       -0.40470        6.07820
H          2.54310        3.93660        4.89740
H          3.33050        9.88630        2.50320
H          4.95960        9.18370        2.47840
H          3.22200        9.54000        4.97200
H          4.84830        8.85040        4.94760
H          4.60370       10.54910        4.52940
H         -4.25050       -1.92710        3.23210
H         -5.27150       -1.45680        1.87230
H         -2.30480       -2.21690        1.72990
H         -3.26480       -1.68370        0.34820
H         -3.65930       -3.19460        1.16570
H         -3.19940        3.96760        0.63300
H         -0.75330        6.50580       -2.34320
H          2.83210        8.32360       -7.24830
H          3.48300        7.14670       -6.11390
H          2.63460        5.28020       -7.53420
H          3.71110        6.33770       -8.45170
H          1.96200        6.44510       -8.67440
H         -9.44100        2.78790       -1.86130
H        -10.45120        4.10850       -2.46460
H         -9.49040        5.62440       -0.72270
H         -8.46540        4.31210       -0.14030
H        -10.22190        4.19770        0.01730
H         -5.63590        3.50830       -6.28310
H         -2.79550       -1.12380      -10.25310
H         -4.19490        1.36130       -6.43750
H         -4.52150       -0.64510       -5.74810
H         -5.38710        0.62320        0.01160
H         -5.00580        1.60490       -1.41170
H         -7.67860        0.22000       -0.86900
H         -7.34120        1.94300       -0.68410
H         -7.30710        1.20370       -2.29020
H         -0.36040       -6.44790      -11.17030
H          1.38380       -6.54170      -10.85820
H          1.02570       -8.60000       -9.49650
H          0.41070       -8.81100      -11.13860
H         -0.71120       -8.50850       -9.80710
H         -0.07760       -6.12600       -4.67330
H          0.40450       -7.98000       -2.49600
H          1.43960      -13.74500       -3.16870
H         -0.14100      -13.17880       -2.59490
H          1.35020      -12.08240       -5.02910
H         -0.04380      -13.16600       -5.07940
H         -0.22480      -11.52260       -4.45560
H          0.03040       -1.32390        3.65810
H          1.67710       -0.75490        4.01940
H          0.46250       -0.97950        1.22500
H          2.09710       -0.41810        1.59640
H          0.69790        0.51860        2.12820
H          3.30850       -6.90500        3.97250
H          4.20050       -9.33950        4.12600
