
  xtb     03012214063D
 energy: -455.167869391603 gnorm: 0.000368259553 xtb: 6.4.1 (unknown)
232258  0     0  0            999 V2000
   -0.7267   -3.2489    4.9477 C   0  0  0  0  0  0  0  0  0  0  0  0
   -1.3580   -2.1837    4.4129 C   0  0  0  0  0  0  0  0  0  0  0  0
   -2.5535   -1.8371    5.1094 C   0  0  0  0  0  0  0  0  0  0  0  0
   -3.4867   -0.8304    4.7993 C   0  0  0  0  0  0  0  0  0  0  0  0
   -3.2716    0.0731    3.6829 C   0  0  0  0  0  0  0  0  0  0  0  0
   -1.7423    0.8725    3.4496 S   0  0  0  0  0  0  0  0  0  0  0  0
   -2.2976    1.7204    2.0506 C   0  0  0  0  0  0  0  0  0  0  0  0
   -1.3956    2.5929    1.2492 C   0  0  0  0  0  0  0  0  0  0  0  0
   -0.8962    1.8504    0.0070 C   0  0  0  0  0  0  0  0  0  0  0  0
   -3.5950    1.3964    1.7904 C   0  0  0  0  0  0  0  0  0  0  0  0
   -4.4999    2.0785    0.5037 Cl  0  0  0  0  0  0  0  0  0  0  0  0
   -4.1457    0.4604    2.7037 C   0  0  0  0  0  0  0  0  0  0  0  0
   -5.7119   -0.1903    2.4844 Cl  0  0  0  0  0  0  0  0  0  0  0  0
   -4.6142   -0.7444    5.6110 C   0  0  0  0  0  0  0  0  0  0  0  0
   -4.8435   -1.6153    6.7046 C   0  0  0  0  0  0  0  0  0  0  0  0
   -3.9118   -2.6197    7.0123 C   0  0  0  0  0  0  0  0  0  0  0  0
   -4.1261   -3.5415    8.1150 C   0  0  0  0  0  0  0  0  0  0  0  0
   -5.5913   -4.4759    8.2382 S   0  0  0  0  0  0  0  0  0  0  0  0
   -5.0610   -5.2792    9.6781 C   0  0  0  0  0  0  0  0  0  0  0  0
   -5.8995   -6.3239   10.3272 C   0  0  0  0  0  0  0  0  0  0  0  0
   -5.8756   -7.6267    9.5251 C   0  0  0  0  0  0  0  0  0  0  0  0
   -3.8203   -4.8412   10.0273 C   0  0  0  0  0  0  0  0  0  0  0  0
   -3.2905   -3.8549    9.1493 C   0  0  0  0  0  0  0  0  0  0  0  0
   -1.7846   -3.0894    9.4389 Cl  0  0  0  0  0  0  0  0  0  0  0  0
   -2.9578   -5.3996   11.4020 Cl  0  0  0  0  0  0  0  0  0  0  0  0
   -2.7856   -2.7059    6.2007 C   0  0  0  0  0  0  0  0  0  0  0  0
   -1.5329   -3.9087    6.3289 S   0  0  0  0  0  0  0  0  0  0  0  0
   -6.0445   -1.3088    7.3880 C   0  0  0  0  0  0  0  0  0  0  0  0
   -6.7470   -0.2651    6.8566 C   0  0  0  0  0  0  0  0  0  0  0  0
   -5.8852    0.4350    5.4959 S   0  0  0  0  0  0  0  0  0  0  0  0
   -8.0525    0.1989    7.2192 C   0  0  0  0  0  0  0  0  0  0  0  0
   -8.6807    1.3751    6.8019 C   0  0  0  0  0  0  0  0  0  0  0  0
   -8.0654    2.4632    6.0013 C   0  0  0  0  0  0  0  0  0  0  0  0
  -10.0171    1.4330    7.3132 C   0  0  0  0  0  0  0  0  0  0  0  0
  -10.1942    0.3080    8.0858 C   0  0  0  0  0  0  0  0  0  0  0  0
   -8.9918   -0.5234    8.0221 C   0  0  0  0  0  0  0  0  0  0  0  0
   -9.0440   -1.7489    8.6289 C   0  0  0  0  0  0  0  0  0  0  0  0
  -10.2197   -2.1008    9.3292 C   0  0  0  0  0  0  0  0  0  0  0  0
  -11.2793   -1.2446    9.3650 C   0  0  0  0  0  0  0  0  0  0  0  0
  -11.2953   -0.0705    8.7500 O   0  0  0  0  0  0  0  0  0  0  0  0
  -11.0203    2.4523    7.0439 C   0  0  0  0  0  0  0  0  0  0  0  0
  -11.3717    2.8651    5.8178 C   0  0  0  0  0  0  0  0  0  0  0  0
  -10.8861    2.2905    4.5871 C   0  0  0  0  0  0  0  0  0  0  0  0
  -10.6724    2.9220    3.4006 C   0  0  0  0  0  0  0  0  0  0  0  0
  -10.0854    2.0928    2.4075 C   0  0  0  0  0  0  0  0  0  0  0  0
   -9.6033    2.4618    1.1386 C   0  0  0  0  0  0  0  0  0  0  0  0
   -9.8496    3.7854    0.5963 C   0  0  0  0  0  0  0  0  0  0  0  0
   -8.5673    4.7645   -0.0515 S   0  0  0  0  0  0  0  0  0  0  0  0
   -9.6506    6.0519   -0.4583 C   0  0  0  0  0  0  0  0  0  0  0  0
   -9.1550    7.2743   -1.1485 C   0  0  0  0  0  0  0  0  0  0  0  0
   -8.8005    6.9718   -2.6060 C   0  0  0  0  0  0  0  0  0  0  0  0
  -10.9276    5.7247   -0.1129 C   0  0  0  0  0  0  0  0  0  0  0  0
  -12.2850    6.7438   -0.3711 Cl  0  0  0  0  0  0  0  0  0  0  0  0
  -11.0438    4.4445    0.4920 C   0  0  0  0  0  0  0  0  0  0  0  0
  -12.5557    3.7787    0.9577 Cl  0  0  0  0  0  0  0  0  0  0  0  0
   -8.8310    1.5232    0.4643 C   0  0  0  0  0  0  0  0  0  0  0  0
   -8.6143    0.2117    0.9523 C   0  0  0  0  0  0  0  0  0  0  0  0
   -9.1856   -0.1934    2.1723 C   0  0  0  0  0  0  0  0  0  0  0  0
   -8.9318   -1.5140    2.7179 C   0  0  0  0  0  0  0  0  0  0  0  0
   -8.3639   -1.7048    4.3506 S   0  0  0  0  0  0  0  0  0  0  0  0
   -8.2225   -3.4175    4.1895 C   0  0  0  0  0  0  0  0  0  0  0  0
   -7.7904   -4.2527    5.3426 C   0  0  0  0  0  0  0  0  0  0  0  0
   -8.9724   -4.5759    6.2585 C   0  0  0  0  0  0  0  0  0  0  0  0
   -8.6131   -3.8105    2.9439 C   0  0  0  0  0  0  0  0  0  0  0  0
   -9.0110   -2.7354    2.1052 C   0  0  0  0  0  0  0  0  0  0  0  0
   -9.6130   -2.9836    0.5157 Cl  0  0  0  0  0  0  0  0  0  0  0  0
   -8.6158   -5.4441    2.4145 Cl  0  0  0  0  0  0  0  0  0  0  0  0
   -9.8752    0.7773    2.8860 C   0  0  0  0  0  0  0  0  0  0  0  0
  -10.4808    0.5861    4.5027 S   0  0  0  0  0  0  0  0  0  0  0  0
   -7.6463   -0.4819    0.1901 C   0  0  0  0  0  0  0  0  0  0  0  0
   -7.1104    0.2628   -0.8202 C   0  0  0  0  0  0  0  0  0  0  0  0
   -7.8967    1.8204   -0.9764 S   0  0  0  0  0  0  0  0  0  0  0  0
   -5.8758   -0.0088   -1.4840 C   0  0  0  0  0  0  0  0  0  0  0  0
   -4.9755   -0.9591   -1.0934 C   0  0  0  0  0  0  0  0  0  0  0  0
   -3.6989   -0.8063   -1.6776 C   0  0  0  0  0  0  0  0  0  0  0  0
   -2.5402   -1.5639   -1.4253 C   0  0  0  0  0  0  0  0  0  0  0  0
   -2.5666   -2.6767   -0.4897 C   0  0  0  0  0  0  0  0  0  0  0  0
   -3.1854   -2.4813    1.1269 S   0  0  0  0  0  0  0  0  0  0  0  0
   -2.9512   -4.1537    1.5078 C   0  0  0  0  0  0  0  0  0  0  0  0
   -3.3387   -4.7131    2.8323 C   0  0  0  0  0  0  0  0  0  0  0  0
   -4.6551   -4.1360    3.3446 C   0  0  0  0  0  0  0  0  0  0  0  0
   -2.3951   -4.8018    0.4460 C   0  0  0  0  0  0  0  0  0  0  0  0
   -2.0059   -6.4732    0.4432 Cl  0  0  0  0  0  0  0  0  0  0  0  0
   -2.1729   -3.9706   -0.6858 C   0  0  0  0  0  0  0  0  0  0  0  0
   -1.5642   -4.5809   -2.1663 Cl  0  0  0  0  0  0  0  0  0  0  0  0
   -1.3829   -1.1763   -2.0863 C   0  0  0  0  0  0  0  0  0  0  0  0
   -1.3411   -0.0721   -2.9745 C   0  0  0  0  0  0  0  0  0  0  0  0
   -2.5094    0.6588   -3.2573 C   0  0  0  0  0  0  0  0  0  0  0  0
   -2.4850    1.7799   -4.1797 C   0  0  0  0  0  0  0  0  0  0  0  0
   -3.1277    3.3305   -3.7251 S   0  0  0  0  0  0  0  0  0  0  0  0
   -2.7114    4.0363   -5.2494 C   0  0  0  0  0  0  0  0  0  0  0  0
   -3.0649    5.4480   -5.5624 C   0  0  0  0  0  0  0  0  0  0  0  0
   -4.5464    5.5680   -5.9275 C   0  0  0  0  0  0  0  0  0  0  0  0
   -2.1201    3.1103   -6.0560 C   0  0  0  0  0  0  0  0  0  0  0  0
   -1.9858    1.8309   -5.4523 C   0  0  0  0  0  0  0  0  0  0  0  0
   -1.3352    0.4830   -6.2947 Cl  0  0  0  0  0  0  0  0  0  0  0  0
   -1.5660    3.4355   -7.6474 Cl  0  0  0  0  0  0  0  0  0  0  0  0
   -3.6621    0.2846   -2.5812 C   0  0  0  0  0  0  0  0  0  0  0  0
   -5.2117    1.0721   -2.6879 S   0  0  0  0  0  0  0  0  0  0  0  0
   -0.0268    0.1910   -3.4248 C   0  0  0  0  0  0  0  0  0  0  0  0
    0.9012   -0.6843   -2.9406 C   0  0  0  0  0  0  0  0  0  0  0  0
    0.1953   -1.8777   -1.8759 S   0  0  0  0  0  0  0  0  0  0  0  0
    2.2940   -0.6905   -3.2551 C   0  0  0  0  0  0  0  0  0  0  0  0
    2.9927    0.3244   -3.8399 C   0  0  0  0  0  0  0  0  0  0  0  0
    4.3471    0.0055   -4.0953 C   0  0  0  0  0  0  0  0  0  0  0  0
    5.3176    0.8115   -4.7185 C   0  0  0  0  0  0  0  0  0  0  0  0
    4.9598    2.0966   -5.2907 C   0  0  0  0  0  0  0  0  0  0  0  0
    5.8816    3.5307   -4.9461 S   0  0  0  0  0  0  0  0  0  0  0  0
    4.8475    4.5239   -5.9138 C   0  0  0  0  0  0  0  0  0  0  0  0
    5.1275    5.9738   -6.1014 C   0  0  0  0  0  0  0  0  0  0  0  0
    6.1407    6.1887   -7.2284 C   0  0  0  0  0  0  0  0  0  0  0  0
    3.8600    3.7723   -6.4781 C   0  0  0  0  0  0  0  0  0  0  0  0
    2.6384    4.4058   -7.5045 Cl  0  0  0  0  0  0  0  0  0  0  0  0
    3.9177    2.3971   -6.1271 C   0  0  0  0  0  0  0  0  0  0  0  0
    2.8248    1.2448   -6.7830 Cl  0  0  0  0  0  0  0  0  0  0  0  0
    6.6128    0.3122   -4.7576 C   0  0  0  0  0  0  0  0  0  0  0  0
    6.9500   -0.9739   -4.2693 C   0  0  0  0  0  0  0  0  0  0  0  0
    5.9594   -1.8190   -3.7369 C   0  0  0  0  0  0  0  0  0  0  0  0
    6.2803   -3.1735   -3.3247 C   0  0  0  0  0  0  0  0  0  0  0  0
    5.7779   -3.7908   -1.7783 S   0  0  0  0  0  0  0  0  0  0  0  0
    6.5323   -5.3230   -2.0540 C   0  0  0  0  0  0  0  0  0  0  0  0
    6.4246   -6.4233   -1.0573 C   0  0  0  0  0  0  0  0  0  0  0  0
    5.0734   -7.1326   -1.1769 C   0  0  0  0  0  0  0  0  0  0  0  0
    7.1238   -5.3441   -3.2815 C   0  0  0  0  0  0  0  0  0  0  0  0
    6.9850   -4.1302   -4.0055 C   0  0  0  0  0  0  0  0  0  0  0  0
    7.5724   -3.9585   -5.6112 Cl  0  0  0  0  0  0  0  0  0  0  0  0
    7.9741   -6.6941   -3.9127 Cl  0  0  0  0  0  0  0  0  0  0  0  0
    4.6797   -1.2907   -3.6306 C   0  0  0  0  0  0  0  0  0  0  0  0
    3.2921   -2.0960   -2.9554 S   0  0  0  0  0  0  0  0  0  0  0  0
    8.3353   -1.2338   -4.3871 C   0  0  0  0  0  0  0  0  0  0  0  0
    9.0312   -0.2239   -4.9827 C   0  0  0  0  0  0  0  0  0  0  0  0
    8.0085    1.1302   -5.4038 S   0  0  0  0  0  0  0  0  0  0  0  0
   10.4342   -0.2497   -5.2581 C   0  0  0  0  0  0  0  0  0  0  0  0
   11.1833   -1.3815   -5.3846 C   0  0  0  0  0  0  0  0  0  0  0  0
   12.5600   -1.1292   -5.5936 C   0  0  0  0  0  0  0  0  0  0  0  0
   13.5857   -2.0675   -5.7958 C   0  0  0  0  0  0  0  0  0  0  0  0
   13.3027   -3.4934   -5.7985 C   0  0  0  0  0  0  0  0  0  0  0  0
   12.4327   -4.2481   -4.4930 S   0  0  0  0  0  0  0  0  0  0  0  0
   12.4963   -5.8074   -5.2403 C   0  0  0  0  0  0  0  0  0  0  0  0
   11.9111   -7.0037   -4.5759 C   0  0  0  0  0  0  0  0  0  0  0  0
   12.8519   -7.5534   -3.5018 C   0  0  0  0  0  0  0  0  0  0  0  0
   13.1665   -5.7341   -6.4243 C   0  0  0  0  0  0  0  0  0  0  0  0
   13.4351   -7.0776   -7.4574 Cl  0  0  0  0  0  0  0  0  0  0  0  0
   13.6206   -4.4262   -6.7466 C   0  0  0  0  0  0  0  0  0  0  0  0
   14.3997   -4.0698   -8.2302 Cl  0  0  0  0  0  0  0  0  0  0  0  0
   14.8661   -1.5631   -5.9919 C   0  0  0  0  0  0  0  0  0  0  0  0
   15.1507   -0.1760   -6.0095 C   0  0  0  0  0  0  0  0  0  0  0  0
   14.1208    0.7599   -5.8261 C   0  0  0  0  0  0  0  0  0  0  0  0
   14.3828    2.1910   -5.8379 C   0  0  0  0  0  0  0  0  0  0  0  0
   15.1622    2.9566   -7.1907 S   0  0  0  0  0  0  0  0  0  0  0  0
   15.0624    4.5240   -6.4633 C   0  0  0  0  0  0  0  0  0  0  0  0
   15.6426    5.7228   -7.1288 C   0  0  0  0  0  0  0  0  0  0  0  0
   17.1404    5.8385   -6.8352 C   0  0  0  0  0  0  0  0  0  0  0  0
   14.4675    4.4398   -5.2404 C   0  0  0  0  0  0  0  0  0  0  0  0
   14.0745    3.1211   -4.8849 C   0  0  0  0  0  0  0  0  0  0  0  0
   13.3660    2.7514   -3.3689 Cl  0  0  0  0  0  0  0  0  0  0  0  0
   14.2035    5.7864   -4.2103 Cl  0  0  0  0  0  0  0  0  0  0  0  0
   12.8408    0.2587   -5.6235 C   0  0  0  0  0  0  0  0  0  0  0  0
   11.3916    1.2028   -5.4208 S   0  0  0  0  0  0  0  0  0  0  0  0
   16.5459    0.0701   -6.1679 C   0  0  0  0  0  0  0  0  0  0  0  0
   17.2705   -1.0637   -6.2581 C   0  0  0  0  0  0  0  0  0  0  0  0
   16.3196   -2.5037   -6.1657 S   0  0  0  0  0  0  0  0  0  0  0  0
    0.1839   -3.7092    4.6173 H   0  0  0  0  0  0  0  0  0  0  0  0
   -1.0026   -1.6646    3.5428 H   0  0  0  0  0  0  0  0  0  0  0  0
   -1.9462    3.4832    0.9374 H   0  0  0  0  0  0  0  0  0  0  0  0
   -0.5481    2.9003    1.8630 H   0  0  0  0  0  0  0  0  0  0  0  0
   -1.7366    1.5589   -0.6172 H   0  0  0  0  0  0  0  0  0  0  0  0
   -0.3494    0.9547    0.2926 H   0  0  0  0  0  0  0  0  0  0  0  0
   -0.2377    2.4901   -0.5743 H   0  0  0  0  0  0  0  0  0  0  0  0
   -5.5136   -6.5017   11.3322 H   0  0  0  0  0  0  0  0  0  0  0  0
   -6.9292   -5.9681   10.4072 H   0  0  0  0  0  0  0  0  0  0  0  0
   -4.8589   -8.0035    9.4495 H   0  0  0  0  0  0  0  0  0  0  0  0
   -6.2592   -7.4592    8.5212 H   0  0  0  0  0  0  0  0  0  0  0  0
   -6.4897   -8.3782   10.0138 H   0  0  0  0  0  0  0  0  0  0  0  0
   -6.3461   -1.8326    8.2731 H   0  0  0  0  0  0  0  0  0  0  0  0
   -7.9487    2.1612    4.9598 H   0  0  0  0  0  0  0  0  0  0  0  0
   -7.0740    2.7031    6.3831 H   0  0  0  0  0  0  0  0  0  0  0  0
   -8.6854    3.3558    6.0328 H   0  0  0  0  0  0  0  0  0  0  0  0
   -8.2358   -2.4594    8.5806 H   0  0  0  0  0  0  0  0  0  0  0  0
  -10.2872   -3.0496    9.8332 H   0  0  0  0  0  0  0  0  0  0  0  0
  -12.2013   -1.4536    9.8867 H   0  0  0  0  0  0  0  0  0  0  0  0
  -11.5080    2.8851    7.9080 H   0  0  0  0  0  0  0  0  0  0  0  0
  -12.0685    3.6854    5.7056 H   0  0  0  0  0  0  0  0  0  0  0  0
  -10.8566    3.9715    3.2579 H   0  0  0  0  0  0  0  0  0  0  0  0
   -8.2681    7.6484   -0.6325 H   0  0  0  0  0  0  0  0  0  0  0  0
   -9.9321    8.0391   -1.1061 H   0  0  0  0  0  0  0  0  0  0  0  0
   -8.4347    7.8699   -3.0963 H   0  0  0  0  0  0  0  0  0  0  0  0
   -8.0292    6.2066   -2.6532 H   0  0  0  0  0  0  0  0  0  0  0  0
   -9.6768    6.6147   -3.1413 H   0  0  0  0  0  0  0  0  0  0  0  0
   -7.3560   -5.1803    4.9674 H   0  0  0  0  0  0  0  0  0  0  0  0
   -7.0313   -3.7125    5.9113 H   0  0  0  0  0  0  0  0  0  0  0  0
   -9.4445   -3.6574    6.5998 H   0  0  0  0  0  0  0  0  0  0  0  0
   -8.6263   -5.1375    7.1221 H   0  0  0  0  0  0  0  0  0  0  0  0
   -9.7116   -5.1691    5.7264 H   0  0  0  0  0  0  0  0  0  0  0  0
   -7.3031   -1.4686    0.4352 H   0  0  0  0  0  0  0  0  0  0  0  0
   -5.2042   -1.7122   -0.3646 H   0  0  0  0  0  0  0  0  0  0  0  0
   -2.5465   -4.5009    3.5554 H   0  0  0  0  0  0  0  0  0  0  0  0
   -3.4153   -5.7980    2.7341 H   0  0  0  0  0  0  0  0  0  0  0  0
   -4.5972   -3.0519    3.4120 H   0  0  0  0  0  0  0  0  0  0  0  0
   -4.8737   -4.5290    4.3338 H   0  0  0  0  0  0  0  0  0  0  0  0
   -5.4731   -4.3970    2.6778 H   0  0  0  0  0  0  0  0  0  0  0  0
   -2.4501    5.7853   -6.3984 H   0  0  0  0  0  0  0  0  0  0  0  0
   -2.8542    6.0770   -4.6954 H   0  0  0  0  0  0  0  0  0  0  0  0
   -5.1660    5.2307   -5.1000 H   0  0  0  0  0  0  0  0  0  0  0  0
   -4.7938    6.6019   -6.1526 H   0  0  0  0  0  0  0  0  0  0  0  0
   -4.7699    4.9585   -6.7994 H   0  0  0  0  0  0  0  0  0  0  0  0
    0.2219    0.9972   -4.0878 H   0  0  0  0  0  0  0  0  0  0  0  0
    2.5609    1.2834   -4.0533 H   0  0  0  0  0  0  0  0  0  0  0  0
    5.5234    6.3899   -5.1735 H   0  0  0  0  0  0  0  0  0  0  0  0
    4.1935    6.4832   -6.3454 H   0  0  0  0  0  0  0  0  0  0  0  0
    5.7526    5.7938   -8.1639 H   0  0  0  0  0  0  0  0  0  0  0  0
    6.3403    7.2494   -7.3538 H   0  0  0  0  0  0  0  0  0  0  0  0
    7.0743    5.6813   -6.9973 H   0  0  0  0  0  0  0  0  0  0  0  0
    7.2321   -7.1364   -1.2324 H   0  0  0  0  0  0  0  0  0  0  0  0
    6.5304   -6.0137   -0.0512 H   0  0  0  0  0  0  0  0  0  0  0  0
    4.2621   -6.4284   -1.0085 H   0  0  0  0  0  0  0  0  0  0  0  0
    4.9593   -7.5627   -2.1688 H   0  0  0  0  0  0  0  0  0  0  0  0
    5.0035   -7.9296   -0.4418 H   0  0  0  0  0  0  0  0  0  0  0  0
    8.8086   -2.1180   -4.0045 H   0  0  0  0  0  0  0  0  0  0  0  0
   10.7566   -2.3658   -5.3528 H   0  0  0  0  0  0  0  0  0  0  0  0
   10.9572   -6.7342   -4.1186 H   0  0  0  0  0  0  0  0  0  0  0  0
   11.7309   -7.7686   -5.3333 H   0  0  0  0  0  0  0  0  0  0  0  0
   12.4075   -8.4243   -3.0275 H   0  0  0  0  0  0  0  0  0  0  0  0
   13.0389   -6.7983   -2.7418 H   0  0  0  0  0  0  0  0  0  0  0  0
   13.8013   -7.8438   -3.9449 H   0  0  0  0  0  0  0  0  0  0  0  0
   15.1277    6.6113   -6.7593 H   0  0  0  0  0  0  0  0  0  0  0  0
   15.4885    5.6504   -8.2068 H   0  0  0  0  0  0  0  0  0  0  0  0
   17.6653    4.9586   -7.1998 H   0  0  0  0  0  0  0  0  0  0  0  0
   17.3086    5.9261   -5.7648 H   0  0  0  0  0  0  0  0  0  0  0  0
   17.5503    6.7173   -7.3255 H   0  0  0  0  0  0  0  0  0  0  0  0
   16.9735    1.0551   -6.2011 H   0  0  0  0  0  0  0  0  0  0  0  0
   18.3320   -1.1585   -6.3775 H   0  0  0  0  0  0  0  0  0  0  0  0
  1  2  2  0  0  0  0
  2  3  1  0  0  0  0
  3  4  2  0  0  0  0
  4  5  1  0  0  0  0
  5  6  1  0  0  0  0
  6  7  1  0  0  0  0
  7  8  1  0  0  0  0
  8  9  1  0  0  0  0
  7 10  2  0  0  0  0
 10 11  1  0  0  0  0
 10 12  1  0  0  0  0
 12 13  1  0  0  0  0
  4 14  1  0  0  0  0
 14 15  2  0  0  0  0
 15 16  1  0  0  0  0
 16 17  1  0  0  0  0
 17 18  1  0  0  0  0
 18 19  1  0  0  0  0
 19 20  1  0  0  0  0
 20 21  1  0  0  0  0
 19 22  2  0  0  0  0
 22 23  1  0  0  0  0
 23 24  1  0  0  0  0
 22 25  1  0  0  0  0
 16 26  2  0  0  0  0
 26 27  1  0  0  0  0
 15 28  1  0  0  0  0
 28 29  2  0  0  0  0
 29 30  1  0  0  0  0
 29 31  1  0  0  0  0
 31 32  2  0  0  0  0
 32 33  1  0  0  0  0
 32 34  1  0  0  0  0
 34 35  2  0  0  0  0
 35 36  1  0  0  0  0
 36 37  2  0  0  0  0
 37 38  1  0  0  0  0
 38 39  2  0  0  0  0
 39 40  1  0  0  0  0
 34 41  1  0  0  0  0
 41 42  2  0  0  0  0
 42 43  1  0  0  0  0
 43 44  2  0  0  0  0
 44 45  1  0  0  0  0
 45 46  2  0  0  0  0
 46 47  1  0  0  0  0
 47 48  1  0  0  0  0
 48 49  1  0  0  0  0
 49 50  1  0  0  0  0
 50 51  1  0  0  0  0
 49 52  2  0  0  0  0
 52 53  1  0  0  0  0
 52 54  1  0  0  0  0
 54 55  1  0  0  0  0
 46 56  1  0  0  0  0
 56 57  2  0  0  0  0
 57 58  1  0  0  0  0
 58 59  1  0  0  0  0
 59 60  1  0  0  0  0
 60 61  1  0  0  0  0
 61 62  1  0  0  0  0
 62 63  1  0  0  0  0
 61 64  2  0  0  0  0
 64 65  1  0  0  0  0
 65 66  1  0  0  0  0
 64 67  1  0  0  0  0
 58 68  2  0  0  0  0
 68 69  1  0  0  0  0
 57 70  1  0  0  0  0
 70 71  2  0  0  0  0
 71 72  1  0  0  0  0
 71 73  1  0  0  0  0
 73 74  2  0  0  0  0
 74 75  1  0  0  0  0
 75 76  2  0  0  0  0
 76 77  1  0  0  0  0
 77 78  1  0  0  0  0
 78 79  1  0  0  0  0
 79 80  1  0  0  0  0
 80 81  1  0  0  0  0
 79 82  2  0  0  0  0
 82 83  1  0  0  0  0
 82 84  1  0  0  0  0
 84 85  1  0  0  0  0
 76 86  1  0  0  0  0
 86 87  2  0  0  0  0
 87 88  1  0  0  0  0
 88 89  1  0  0  0  0
 89 90  1  0  0  0  0
 90 91  1  0  0  0  0
 91 92  1  0  0  0  0
 92 93  1  0  0  0  0
 91 94  2  0  0  0  0
 94 95  1  0  0  0  0
 95 96  1  0  0  0  0
 94 97  1  0  0  0  0
 88 98  2  0  0  0  0
 98 99  1  0  0  0  0
 87100  1  0  0  0  0
100101  2  0  0  0  0
101102  1  0  0  0  0
101103  1  0  0  0  0
103104  2  0  0  0  0
104105  1  0  0  0  0
105106  2  0  0  0  0
106107  1  0  0  0  0
107108  1  0  0  0  0
108109  1  0  0  0  0
109110  1  0  0  0  0
110111  1  0  0  0  0
109112  2  0  0  0  0
112113  1  0  0  0  0
112114  1  0  0  0  0
114115  1  0  0  0  0
106116  1  0  0  0  0
116117  2  0  0  0  0
117118  1  0  0  0  0
118119  1  0  0  0  0
119120  1  0  0  0  0
120121  1  0  0  0  0
121122  1  0  0  0  0
122123  1  0  0  0  0
121124  2  0  0  0  0
124125  1  0  0  0  0
125126  1  0  0  0  0
124127  1  0  0  0  0
118128  2  0  0  0  0
128129  1  0  0  0  0
117130  1  0  0  0  0
130131  2  0  0  0  0
131132  1  0  0  0  0
131133  1  0  0  0  0
133134  2  0  0  0  0
134135  1  0  0  0  0
135136  2  0  0  0  0
136137  1  0  0  0  0
137138  1  0  0  0  0
138139  1  0  0  0  0
139140  1  0  0  0  0
140141  1  0  0  0  0
139142  2  0  0  0  0
142143  1  0  0  0  0
142144  1  0  0  0  0
144145  1  0  0  0  0
136146  1  0  0  0  0
146147  2  0  0  0  0
147148  1  0  0  0  0
148149  1  0  0  0  0
149150  1  0  0  0  0
150151  1  0  0  0  0
151152  1  0  0  0  0
152153  1  0  0  0  0
151154  2  0  0  0  0
154155  1  0  0  0  0
155156  1  0  0  0  0
154157  1  0  0  0  0
148158  2  0  0  0  0
158159  1  0  0  0  0
147160  1  0  0  0  0
160161  2  0  0  0  0
161162  1  0  0  0  0
 27  1  1  0  0  0  0
 36 31  1  0  0  0  0
 69 43  1  0  0  0  0
 99 73  1  0  0  0  0
129103  1  0  0  0  0
159133  1  0  0  0  0
 26  3  1  0  0  0  0
 40 35  1  0  0  0  0
 68 45  1  0  0  0  0
 98 75  1  0  0  0  0
128105  1  0  0  0  0
158135  1  0  0  0  0
 12  5  2  0  0  0  0
 30 14  1  0  0  0  0
 54 47  2  0  0  0  0
 72 56  1  0  0  0  0
 84 77  2  0  0  0  0
102 86  1  0  0  0  0
114107  2  0  0  0  0
132116  1  0  0  0  0
144137  2  0  0  0  0
162146  1  0  0  0  0
 23 17  2  0  0  0  0
 65 59  2  0  0  0  0
 95 89  2  0  0  0  0
125119  2  0  0  0  0
155149  2  0  0  0  0
  1163  1  0  0  0  0
  2164  1  0  0  0  0
  8165  1  0  0  0  0
  8166  1  0  0  0  0
  9167  1  0  0  0  0
  9168  1  0  0  0  0
  9169  1  0  0  0  0
 20170  1  0  0  0  0
 20171  1  0  0  0  0
 21172  1  0  0  0  0
 21173  1  0  0  0  0
 21174  1  0  0  0  0
 28175  1  0  0  0  0
 33176  1  0  0  0  0
 33177  1  0  0  0  0
 33178  1  0  0  0  0
 37179  1  0  0  0  0
 38180  1  0  0  0  0
 39181  1  0  0  0  0
 41182  1  0  0  0  0
 42183  1  0  0  0  0
 44184  1  0  0  0  0
 50185  1  0  0  0  0
 50186  1  0  0  0  0
 51187  1  0  0  0  0
 51188  1  0  0  0  0
 51189  1  0  0  0  0
 62190  1  0  0  0  0
 62191  1  0  0  0  0
 63192  1  0  0  0  0
 63193  1  0  0  0  0
 63194  1  0  0  0  0
 70195  1  0  0  0  0
 74196  1  0  0  0  0
 80197  1  0  0  0  0
 80198  1  0  0  0  0
 81199  1  0  0  0  0
 81200  1  0  0  0  0
 81201  1  0  0  0  0
 92202  1  0  0  0  0
 92203  1  0  0  0  0
 93204  1  0  0  0  0
 93205  1  0  0  0  0
 93206  1  0  0  0  0
100207  1  0  0  0  0
104208  1  0  0  0  0
110209  1  0  0  0  0
110210  1  0  0  0  0
111211  1  0  0  0  0
111212  1  0  0  0  0
111213  1  0  0  0  0
122214  1  0  0  0  0
122215  1  0  0  0  0
123216  1  0  0  0  0
123217  1  0  0  0  0
123218  1  0  0  0  0
130219  1  0  0  0  0
134220  1  0  0  0  0
140221  1  0  0  0  0
140222  1  0  0  0  0
141223  1  0  0  0  0
141224  1  0  0  0  0
141225  1  0  0  0  0
152226  1  0  0  0  0
152227  1  0  0  0  0
153228  1  0  0  0  0
153229  1  0  0  0  0
153230  1  0  0  0  0
160231  1  0  0  0  0
161232  1  0  0  0  0
M  END
