
  xtb     02282215433D
 energy: -212.258665572384 gnorm: 0.000940003942 xtb: 6.4.1 (unknown)
 92103  0     0  0            999 V2000
    8.9603    4.5742   -0.8236 C   0  0  0  0  0  0  0  0  0  0  0  0
    8.6080    2.9041   -0.9351 S   0  0  0  0  0  3  0  0  0  0  0  0
    7.5623    2.9415    0.5961 C   0  0  0  0  0  0  0  0  0  0  0  0
    7.0822    1.9495    1.0508 O   0  0  0  0  0  0  0  0  0  0  0  0
    7.5539    4.3166    1.0366 C   0  0  0  0  0  0  0  0  0  0  0  0
    8.3713    5.1845    0.2444 C   0  0  0  0  0  0  0  0  0  0  0  0
    8.4564    6.5426    0.7214 C   0  0  0  0  0  0  0  0  0  0  0  0
    9.0285    7.5019    0.3058 O   0  0  0  0  0  0  0  0  0  0  0  0
    7.4416    6.5994    2.2671 S   0  0  0  0  0  3  0  0  0  0  0  0
    6.9727    4.9235    2.1240 C   0  0  0  0  0  0  0  0  0  0  0  0
    6.0838    4.3432    3.0794 C   0  0  0  0  0  0  0  0  0  0  0  0
    6.2143    4.7491    4.7691 S   0  0  0  0  0  3  0  0  0  0  0  0
    4.8417    3.6433    5.2237 C   0  0  0  0  0  0  0  0  0  0  0  0
    4.4799    3.5423    6.3696 O   0  0  0  0  0  0  0  0  0  0  0  0
    4.3608    3.0261    4.0193 C   0  0  0  0  0  0  0  0  0  0  0  0
    5.0560    3.4591    2.8486 C   0  0  0  0  0  0  0  0  0  0  0  0
    4.4891    3.0097    1.5982 C   0  0  0  0  0  0  0  0  0  0  0  0
    4.7598    3.2708    0.4645 O   0  0  0  0  0  0  0  0  0  0  0  0
    3.0939    1.9232    2.0429 S   0  0  0  0  0  3  0  0  0  0  0  0
    3.3099    2.1581    3.7654 C   0  0  0  0  0  0  0  0  0  0  0  0
    2.3714    1.4742    4.5934 C   0  0  0  0  0  0  0  0  0  0  0  0
    0.8074    1.2086    3.8743 S   0  0  0  0  0  0  0  0  0  0  0  0
    0.2592    0.2978    5.2332 C   0  0  0  0  0  0  0  0  0  0  0  0
    1.2593    0.2039    6.1926 C   0  0  0  0  0  0  0  0  0  0  0  0
    2.4500    0.8636    5.8421 C   0  0  0  0  0  0  0  0  0  0  0  0
    3.6628    0.7857    6.7083 C   0  0  0  0  0  0  0  0  0  0  0  0
    4.6850   -0.0808    6.0305 N   0  0  0  0  0  4  0  0  0  0  0  0
    5.1656   -0.9816    6.6652 O   0  0  0  0  0  1  0  0  0  0  0  0
    4.9573    0.2011    4.8898 O   0  0  0  0  0  0  0  0  0  0  0  0
    3.3554    0.2914    8.1150 C   0  0  0  0  0  0  0  0  0  0  0  0
    2.4375   -0.9240    8.0948 C   0  0  0  0  0  0  0  0  0  0  0  0
    1.0888   -0.5710    7.4591 C   0  0  0  0  0  0  0  0  0  0  0  0
    0.3248    0.2496    8.4533 N   0  0  0  0  0  4  0  0  0  0  0  0
   -0.4854   -0.3372    9.1245 O   0  0  0  0  0  1  0  0  0  0  0  0
    0.5881    1.4225    8.5242 O   0  0  0  0  0  0  0  0  0  0  0  0
   -1.0839   -0.1755    5.3734 C   0  0  0  0  0  0  0  0  0  0  0  0
   -1.9614   -0.5725    4.4206 C   0  0  0  0  0  0  0  0  0  0  0  0
   -1.7554   -0.8892    3.0511 C   0  0  0  0  0  0  0  0  0  0  0  0
   -0.2167   -1.2175    2.2901 S   0  0  0  0  0  3  0  0  0  0  0  0
   -0.9883   -1.6655    0.6854 C   0  0  0  0  0  0  0  0  0  0  0  0
   -0.3151   -1.9919   -0.2470 O   0  0  0  0  0  0  0  0  0  0  0  0
   -2.4153   -1.5466    0.8615 C   0  0  0  0  0  0  0  0  0  0  0  0
   -2.7932   -1.1397    2.1664 C   0  0  0  0  0  0  0  0  0  0  0  0
   -4.2175   -1.0765    2.3872 C   0  0  0  0  0  0  0  0  0  0  0  0
   -4.8472   -0.7498    3.3534 O   0  0  0  0  0  0  0  0  0  0  0  0
   -5.0101   -1.6608    0.8499 S   0  0  0  0  0  3  0  0  0  0  0  0
   -3.4822   -1.8541    0.0233 C   0  0  0  0  0  0  0  0  0  0  0  0
   -3.4405   -2.2262   -1.3477 C   0  0  0  0  0  0  0  0  0  0  0  0
   -2.0385   -1.8709   -2.3286 S   0  0  0  0  0  3  0  0  0  0  0  0
   -2.8075   -2.5151   -3.8369 C   0  0  0  0  0  0  0  0  0  0  0  0
   -2.2263   -2.5447   -4.8906 O   0  0  0  0  0  0  0  0  0  0  0  0
   -4.1215   -2.9874   -3.4806 C   0  0  0  0  0  0  0  0  0  0  0  0
   -4.4365   -2.8354   -2.1010 C   0  0  0  0  0  0  0  0  0  0  0  0
   -5.6856   -3.4434   -1.7131 C   0  0  0  0  0  0  0  0  0  0  0  0
   -6.2515   -3.5167   -0.6619 O   0  0  0  0  0  0  0  0  0  0  0  0
   -6.3813   -4.2286   -3.2168 S   0  0  0  0  0  3  0  0  0  0  0  0
   -5.0794   -3.6542   -4.2263 C   0  0  0  0  0  0  0  0  0  0  0  0
   -5.1333   -3.9138   -5.6246 C   0  0  0  0  0  0  0  0  0  0  0  0
   -5.8371   -5.4099   -6.1591 S   0  0  0  0  0  0  0  0  0  0  0  0
   -5.6181   -4.9884   -7.8210 C   0  0  0  0  0  0  0  0  0  0  0  0
   -5.0463   -3.7318   -7.9418 C   0  0  0  0  0  0  0  0  0  0  0  0
   -4.7812   -3.1163   -6.7030 C   0  0  0  0  0  0  0  0  0  0  0  0
   -4.3078   -1.7030   -6.6132 C   0  0  0  0  0  0  0  0  0  0  0  0
   -5.0023   -0.9865   -5.5139 N   0  0  0  0  0  4  0  0  0  0  0  0
   -6.1904   -1.1644   -5.4012 O   0  0  0  0  0  1  0  0  0  0  0  0
   -4.3370   -0.2572   -4.8221 O   0  0  0  0  0  0  0  0  0  0  0  0
   -4.6133   -0.9585   -7.9154 C   0  0  0  0  0  0  0  0  0  0  0  0
   -4.0121   -1.7401   -9.0750 C   0  0  0  0  0  0  0  0  0  0  0  0
   -4.7306   -3.0789   -9.2570 C   0  0  0  0  0  0  0  0  0  0  0  0
   -3.8207   -3.9811  -10.0361 N   0  0  0  0  0  4  0  0  0  0  0  0
   -4.2479   -4.4185  -11.0747 O   0  0  0  0  0  1  0  0  0  0  0  0
   -2.7356   -4.2008   -9.5689 O   0  0  0  0  0  0  0  0  0  0  0  0
   -6.0374   -5.8783   -8.8719 C   0  0  0  0  0  0  0  0  0  0  0  0
   -6.4862   -7.1139   -8.6599 C   0  0  0  0  0  0  0  0  0  0  0  0
    9.5980    5.0401   -1.5523 H   0  0  0  0  0  0  0  0  0  0  0  0
    4.1218    1.7836    6.7715 H   0  0  0  0  0  0  0  0  0  0  0  0
    4.2885    0.0352    8.6170 H   0  0  0  0  0  0  0  0  0  0  0  0
    2.8872    1.1119    8.6617 H   0  0  0  0  0  0  0  0  0  0  0  0
    2.8973   -1.7278    7.5173 H   0  0  0  0  0  0  0  0  0  0  0  0
    2.2774   -1.2953    9.1085 H   0  0  0  0  0  0  0  0  0  0  0  0
    0.4984   -1.4778    7.2981 H   0  0  0  0  0  0  0  0  0  0  0  0
   -1.4608   -0.1717    6.3894 H   0  0  0  0  0  0  0  0  0  0  0  0
   -2.9855   -0.7368    4.7375 H   0  0  0  0  0  0  0  0  0  0  0  0
   -3.2323   -1.6641   -6.3893 H   0  0  0  0  0  0  0  0  0  0  0  0
   -5.6958   -0.8688   -8.0383 H   0  0  0  0  0  0  0  0  0  0  0  0
   -4.1810    0.0420   -7.8766 H   0  0  0  0  0  0  0  0  0  0  0  0
   -2.9577   -1.9359   -8.8632 H   0  0  0  0  0  0  0  0  0  0  0  0
   -4.0803   -1.1592   -9.9955 H   0  0  0  0  0  0  0  0  0  0  0  0
   -5.6393   -2.9684   -9.8594 H   0  0  0  0  0  0  0  0  0  0  0  0
   -5.9768   -5.4988   -9.8823 H   0  0  0  0  0  0  0  0  0  0  0  0
   -6.7914   -7.7454   -9.4744 H   0  0  0  0  0  0  0  0  0  0  0  0
   -6.5492   -7.5306   -7.6678 H   0  0  0  0  0  0  0  0  0  0  0  0
  1  2  2  0  0  0  0
  2  3  1  0  0  0  0
  3  4  2  0  0  0  0
  3  5  1  0  0  0  0
  5  6  2  0  0  0  0
  6  7  1  0  0  0  0
  7  8  2  0  0  0  0
  7  9  1  0  0  0  0
  9 10  2  0  0  0  0
 10 11  1  0  0  0  0
 11 12  2  0  0  0  0
 12 13  1  0  0  0  0
 13 14  2  0  0  0  0
 13 15  1  0  0  0  0
 15 16  2  0  0  0  0
 16 17  1  0  0  0  0
 17 18  2  0  0  0  0
 17 19  1  0  0  0  0
 19 20  2  0  0  0  0
 20 21  1  0  0  0  0
 21 22  1  0  0  0  0
 22 23  1  0  0  0  0
 23 24  2  0  0  0  0
 24 25  1  0  0  0  0
 25 26  1  0  0  0  0
 26 27  1  0  0  0  0
 27 28  1  0  0  0  0
 27 29  2  0  0  0  0
 26 30  1  0  0  0  0
 30 31  1  0  0  0  0
 31 32  1  0  0  0  0
 32 33  1  0  0  0  0
 33 34  1  0  0  0  0
 33 35  2  0  0  0  0
 23 36  1  0  0  0  0
 36 37  2  0  0  0  0
 37 38  1  0  0  0  0
 38 39  2  0  0  0  0
 39 40  1  0  0  0  0
 40 41  2  0  0  0  0
 40 42  1  0  0  0  0
 42 43  2  0  0  0  0
 43 44  1  0  0  0  0
 44 45  2  0  0  0  0
 44 46  1  0  0  0  0
 46 47  2  0  0  0  0
 47 48  1  0  0  0  0
 48 49  2  0  0  0  0
 49 50  1  0  0  0  0
 50 51  2  0  0  0  0
 50 52  1  0  0  0  0
 52 53  2  0  0  0  0
 53 54  1  0  0  0  0
 54 55  2  0  0  0  0
 54 56  1  0  0  0  0
 56 57  2  0  0  0  0
 57 58  1  0  0  0  0
 58 59  1  0  0  0  0
 59 60  1  0  0  0  0
 60 61  2  0  0  0  0
 61 62  1  0  0  0  0
 62 63  1  0  0  0  0
 63 64  1  0  0  0  0
 64 65  1  0  0  0  0
 64 66  2  0  0  0  0
 63 67  1  0  0  0  0
 67 68  1  0  0  0  0
 68 69  1  0  0  0  0
 69 70  1  0  0  0  0
 70 71  1  0  0  0  0
 70 72  2  0  0  0  0
 60 73  1  0  0  0  0
 73 74  2  0  0  0  0
  6  1  1  0  0  0  0
 16 11  1  0  0  0  0
 25 21  2  0  0  0  0
 43 38  1  0  0  0  0
 53 48  1  0  0  0  0
 62 58  2  0  0  0  0
 10  5  1  0  0  0  0
 20 15  1  0  0  0  0
 32 24  1  0  0  0  0
 47 42  1  0  0  0  0
 57 52  1  0  0  0  0
 69 61  1  0  0  0  0
  1 75  1  0  0  0  0
 26 76  1  0  0  0  0
 30 77  1  0  0  0  0
 30 78  1  0  0  0  0
 31 79  1  0  0  0  0
 31 80  1  0  0  0  0
 32 81  1  0  0  0  0
 36 82  1  0  0  0  0
 37 83  1  0  0  0  0
 63 84  1  0  0  0  0
 67 85  1  0  0  0  0
 67 86  1  0  0  0  0
 68 87  1  0  0  0  0
 68 88  1  0  0  0  0
 69 89  1  0  0  0  0
 73 90  1  0  0  0  0
 74 91  1  0  0  0  0
 74 92  1  0  0  0  0
M  CHG  1  27   1
M  CHG  1  28  -1
M  CHG  1  33   1
M  CHG  1  34  -1
M  CHG  1  64   1
M  CHG  1  65  -1
M  CHG  1  70   1
M  CHG  1  71  -1
M  END
