92

C          8.96030        4.57420       -0.82360
S          8.60800        2.90410       -0.93510
C          7.56230        2.94150        0.59610
O          7.08220        1.94950        1.05080
C          7.55390        4.31660        1.03660
C          8.37130        5.18450        0.24440
C          8.45640        6.54260        0.72140
O          9.02850        7.50190        0.30580
S          7.44160        6.59940        2.26710
C          6.97270        4.92350        2.12400
C          6.08380        4.34320        3.07940
S          6.21430        4.74910        4.76910
C          4.84170        3.64330        5.22370
O          4.47990        3.54230        6.36960
C          4.36080        3.02610        4.01930
C          5.05600        3.45910        2.84860
C          4.48910        3.00970        1.59820
O          4.75980        3.27080        0.46450
S          3.09390        1.92320        2.04290
C          3.30990        2.15810        3.76540
C          2.37140        1.47420        4.59340
S          0.80740        1.20860        3.87430
C          0.25920        0.29780        5.23320
C          1.25930        0.20390        6.19260
C          2.45000        0.86360        5.84210
C          3.66280        0.78570        6.70830
N          4.68500       -0.08080        6.03050
O          5.16560       -0.98160        6.66520
O          4.95730        0.20110        4.88980
C          3.35540        0.29140        8.11500
C          2.43750       -0.92400        8.09480
C          1.08880       -0.57100        7.45910
N          0.32480        0.24960        8.45330
O         -0.48540       -0.33720        9.12450
O          0.58810        1.42250        8.52420
C         -1.08390       -0.17550        5.37340
C         -1.96140       -0.57250        4.42060
C         -1.75540       -0.88920        3.05110
S         -0.21670       -1.21750        2.29010
C         -0.98830       -1.66550        0.68540
O         -0.31510       -1.99190       -0.24700
C         -2.41530       -1.54660        0.86150
C         -2.79320       -1.13970        2.16640
C         -4.21750       -1.07650        2.38720
O         -4.84720       -0.74980        3.35340
S         -5.01010       -1.66080        0.84990
C         -3.48220       -1.85410        0.02330
C         -3.44050       -2.22620       -1.34770
S         -2.03850       -1.87090       -2.32860
C         -2.80750       -2.51510       -3.83690
O         -2.22630       -2.54470       -4.89060
C         -4.12150       -2.98740       -3.48060
C         -4.43650       -2.83540       -2.10100
C         -5.68560       -3.44340       -1.71310
O         -6.25150       -3.51670       -0.66190
S         -6.38130       -4.22860       -3.21680
C         -5.07940       -3.65420       -4.22630
C         -5.13330       -3.91380       -5.62460
S         -5.83710       -5.40990       -6.15910
C         -5.61810       -4.98840       -7.82100
C         -5.04630       -3.73180       -7.94180
C         -4.78120       -3.11630       -6.70300
C         -4.30780       -1.70300       -6.61320
N         -5.00230       -0.98650       -5.51390
O         -6.19040       -1.16440       -5.40120
O         -4.33700       -0.25720       -4.82210
C         -4.61330       -0.95850       -7.91540
C         -4.01210       -1.74010       -9.07500
C         -4.73060       -3.07890       -9.25700
N         -3.82070       -3.98110      -10.03610
O         -4.24790       -4.41850      -11.07470
O         -2.73560       -4.20080       -9.56890
C         -6.03740       -5.87830       -8.87190
C         -6.48620       -7.11390       -8.65990
H          9.59800        5.04010       -1.55230
H          4.12180        1.78360        6.77150
H          4.28850        0.03520        8.61700
H          2.88720        1.11190        8.66170
H          2.89730       -1.72780        7.51730
H          2.27740       -1.29530        9.10850
H          0.49840       -1.47780        7.29810
H         -1.46080       -0.17170        6.38940
H         -2.98550       -0.73680        4.73750
H         -3.23230       -1.66410       -6.38930
H         -5.69580       -0.86880       -8.03830
H         -4.18100        0.04200       -7.87660
H         -2.95770       -1.93590       -8.86320
H         -4.08030       -1.15920       -9.99550
H         -5.63930       -2.96840       -9.85940
H         -5.97680       -5.49880       -9.88230
H         -6.79140       -7.74540       -9.47440
H         -6.54920       -7.53060       -7.66780
