
  xtb     03022218593D
 energy: -450.956339387240 gnorm: 0.000286848051 xtb: 6.4.1 (unknown)
222248  0     0  0            999 V2000
    9.4822  -18.9574    5.9278 C   0  0  0  0  0  0  0  0  0  0  0  0
    9.9427  -18.0281    5.0633 C   0  0  0  0  0  0  0  0  0  0  0  0
    8.9106  -17.1917    4.5514 C   0  0  0  0  0  0  0  0  0  0  0  0
    9.0167  -16.1664    3.5979 C   0  0  0  0  0  0  0  0  0  0  0  0
   10.3009  -15.7694    3.0421 C   0  0  0  0  0  0  0  0  0  0  0  0
   11.6192  -15.2942    4.0721 S   0  0  0  0  0  0  0  0  0  0  0  0
   12.6494  -14.9451    2.7261 C   0  0  0  0  0  0  0  0  0  0  0  0
   14.0550  -14.4969    2.9256 C   0  0  0  0  0  0  0  0  0  0  0  0
   14.9833  -15.6913    3.1588 C   0  0  0  0  0  0  0  0  0  0  0  0
   12.0003  -15.2008    1.5554 C   0  0  0  0  0  0  0  0  0  0  0  0
   12.7033  -14.9882    0.0051 Cl  0  0  0  0  0  0  0  0  0  0  0  0
   10.6666  -15.6599    1.7294 C   0  0  0  0  0  0  0  0  0  0  0  0
    9.6680  -16.1038    0.4100 Cl  0  0  0  0  0  0  0  0  0  0  0  0
    7.8397  -15.5323    3.2193 C   0  0  0  0  0  0  0  0  0  0  0  0
    6.5730  -15.8802    3.7573 C   0  0  0  0  0  0  0  0  0  0  0  0
    6.4672  -16.9055    4.7173 C   0  0  0  0  0  0  0  0  0  0  0  0
    5.1807  -17.2654    5.2873 C   0  0  0  0  0  0  0  0  0  0  0  0
    3.8282  -17.6756    4.2755 S   0  0  0  0  0  0  0  0  0  0  0  0
    2.7914  -17.9339    5.6323 C   0  0  0  0  0  0  0  0  0  0  0  0
    1.3846  -18.3845    5.4518 C   0  0  0  0  0  0  0  0  0  0  0  0
    1.3120  -19.9054    5.2966 C   0  0  0  0  0  0  0  0  0  0  0  0
    3.4684  -17.7180    6.7964 C   0  0  0  0  0  0  0  0  0  0  0  0
    4.8227  -17.3375    6.6064 C   0  0  0  0  0  0  0  0  0  0  0  0
    5.8526  -16.9229    7.9107 Cl  0  0  0  0  0  0  0  0  0  0  0  0
    2.7676  -17.8743    8.3545 Cl  0  0  0  0  0  0  0  0  0  0  0  0
    7.6449  -17.5407    5.0867 C   0  0  0  0  0  0  0  0  0  0  0  0
    7.7775  -18.8824    6.1877 S   0  0  0  0  0  0  0  0  0  0  0  0
    5.5404  -15.0544    3.2675 C   0  0  0  0  0  0  0  0  0  0  0  0
    5.9768  -14.1012    2.3832 C   0  0  0  0  0  0  0  0  0  0  0  0
    7.7111  -14.1983    2.1159 S   0  0  0  0  0  0  0  0  0  0  0  0
    5.2343  -13.0954    1.7155 C   0  0  0  0  0  0  0  0  0  0  0  0
    6.0954  -12.0233    0.6303 S   0  0  0  0  0  3  0  0  0  0  0  0
    4.6077  -11.0460    0.2479 C   0  0  0  0  0  0  0  0  0  0  0  0
    4.6398  -10.1145   -0.5111 O   0  0  0  0  0  0  0  0  0  0  0  0
    3.5304  -11.6235    0.9973 C   0  0  0  0  0  0  0  0  0  0  0  0
    3.8895  -12.7639    1.7841 C   0  0  0  0  0  0  0  0  0  0  0  0
    2.7882  -13.3319    2.5150 C   0  0  0  0  0  0  0  0  0  0  0  0
    2.6998  -14.2822    3.2454 O   0  0  0  0  0  0  0  0  0  0  0  0
    1.3221  -12.3065    2.1533 S   0  0  0  0  0  3  0  0  0  0  0  0
    2.2094  -11.2271    1.0952 C   0  0  0  0  0  0  0  0  0  0  0  0
    1.5468  -10.1055    0.5444 C   0  0  0  0  0  0  0  0  0  0  0  0
    0.2431   -9.7561    0.8185 C   0  0  0  0  0  0  0  0  0  0  0  0
   -0.1491   -8.5354    0.2429 C   0  0  0  0  0  0  0  0  0  0  0  0
   -1.3911   -7.8731    0.3644 C   0  0  0  0  0  0  0  0  0  0  0  0
   -2.4569   -8.4030    1.1960 C   0  0  0  0  0  0  0  0  0  0  0  0
   -4.0693   -8.5931    0.5747 S   0  0  0  0  0  0  0  0  0  0  0  0
   -4.6629   -9.1980    2.0827 C   0  0  0  0  0  0  0  0  0  0  0  0
   -6.0786   -9.6333    2.2305 C   0  0  0  0  0  0  0  0  0  0  0  0
   -6.3048  -11.0008    1.5819 C   0  0  0  0  0  0  0  0  0  0  0  0
   -3.6588   -9.2437    3.0040 C   0  0  0  0  0  0  0  0  0  0  0  0
   -3.8619   -9.7831    4.6203 Cl  0  0  0  0  0  0  0  0  0  0  0  0
   -2.4075   -8.7900    2.5075 C   0  0  0  0  0  0  0  0  0  0  0  0
   -1.0148   -8.6630    3.5032 Cl  0  0  0  0  0  0  0  0  0  0  0  0
   -1.5279   -6.6742   -0.3160 C   0  0  0  0  0  0  0  0  0  0  0  0
   -0.4836   -6.1141   -1.0955 C   0  0  0  0  0  0  0  0  0  0  0  0
    0.7397   -6.7901   -1.2498 C   0  0  0  0  0  0  0  0  0  0  0  0
    1.7793   -6.2401   -2.1008 C   0  0  0  0  0  0  0  0  0  0  0  0
    3.4222   -6.0843   -1.5545 S   0  0  0  0  0  0  0  0  0  0  0  0
    3.9253   -5.3415   -3.0322 C   0  0  0  0  0  0  0  0  0  0  0  0
    5.3214   -4.8623   -3.2274 C   0  0  0  0  0  0  0  0  0  0  0  0
    5.4476   -3.3807   -2.8634 C   0  0  0  0  0  0  0  0  0  0  0  0
    2.8719   -5.2291   -3.8914 C   0  0  0  0  0  0  0  0  0  0  0  0
    1.6563   -5.7453   -3.3734 C   0  0  0  0  0  0  0  0  0  0  0  0
    0.2188   -5.8065   -4.3134 Cl  0  0  0  0  0  0  0  0  0  0  0  0
    2.9809   -4.5245   -5.4524 Cl  0  0  0  0  0  0  0  0  0  0  0  0
    0.8933   -7.9762   -0.5435 C   0  0  0  0  0  0  0  0  0  0  0  0
    2.3326   -8.9483   -0.5132 S   0  0  0  0  0  0  0  0  0  0  0  0
   -0.8181   -4.8307   -1.5749 C   0  0  0  0  0  0  0  0  0  0  0  0
   -2.0719   -4.4189   -1.2209 C   0  0  0  0  0  0  0  0  0  0  0  0
   -2.9099   -5.6103   -0.2546 S   0  0  0  0  0  0  0  0  0  0  0  0
   -2.6257   -3.1472   -1.5572 C   0  0  0  0  0  0  0  0  0  0  0  0
   -2.0884   -2.2856   -2.4704 C   0  0  0  0  0  0  0  0  0  0  0  0
   -2.7505   -1.0411   -2.5316 C   0  0  0  0  0  0  0  0  0  0  0  0
   -2.3666    0.0857   -3.2812 C   0  0  0  0  0  0  0  0  0  0  0  0
   -1.3016   -0.0220   -4.2610 C   0  0  0  0  0  0  0  0  0  0  0  0
    0.0612    1.0584   -4.2718 S   0  0  0  0  0  0  0  0  0  0  0  0
    0.8182    0.2143   -5.5786 C   0  0  0  0  0  0  0  0  0  0  0  0
    2.1693    0.5957   -6.0741 C   0  0  0  0  0  0  0  0  0  0  0  0
    3.2505   -0.2500   -5.3953 C   0  0  0  0  0  0  0  0  0  0  0  0
    0.0447   -0.8344   -5.9806 C   0  0  0  0  0  0  0  0  0  0  0  0
    0.4718   -1.9050   -7.2512 Cl  0  0  0  0  0  0  0  0  0  0  0  0
   -1.1589   -0.9693   -5.2400 C   0  0  0  0  0  0  0  0  0  0  0  0
   -2.3334   -2.1670   -5.6054 Cl  0  0  0  0  0  0  0  0  0  0  0  0
   -3.0137    1.2745   -2.9837 C   0  0  0  0  0  0  0  0  0  0  0  0
   -4.0765    1.3649   -2.0487 C   0  0  0  0  0  0  0  0  0  0  0  0
   -4.5319    0.2103   -1.3835 C   0  0  0  0  0  0  0  0  0  0  0  0
   -5.6448    0.2478   -0.4508 C   0  0  0  0  0  0  0  0  0  0  0  0
   -5.7179    1.3996    0.8512 S   0  0  0  0  0  0  0  0  0  0  0  0
   -7.2161    0.7656    1.4370 C   0  0  0  0  0  0  0  0  0  0  0  0
   -7.8654    1.3152    2.6586 C   0  0  0  0  0  0  0  0  0  0  0  0
   -7.3893    0.5741    3.9105 C   0  0  0  0  0  0  0  0  0  0  0  0
   -7.6203   -0.2822    0.6644 C   0  0  0  0  0  0  0  0  0  0  0  0
   -6.7347   -0.5789   -0.4054 C   0  0  0  0  0  0  0  0  0  0  0  0
   -7.0711   -1.7978   -1.5617 Cl  0  0  0  0  0  0  0  0  0  0  0  0
   -9.0667   -1.1644    0.9342 Cl  0  0  0  0  0  0  0  0  0  0  0  0
   -3.8313   -0.9678   -1.6203 C   0  0  0  0  0  0  0  0  0  0  0  0
   -4.0274   -2.4712   -0.7605 S   0  0  0  0  0  0  0  0  0  0  0  0
   -4.5227    2.7010   -1.8956 C   0  0  0  0  0  0  0  0  0  0  0  0
   -3.8216    3.5985   -2.6453 C   0  0  0  0  0  0  0  0  0  0  0  0
   -2.6141    2.8270   -3.6547 S   0  0  0  0  0  0  0  0  0  0  0  0
   -3.8708    5.0212   -2.5946 C   0  0  0  0  0  0  0  0  0  0  0  0
   -3.0305    5.8797   -3.2399 C   0  0  0  0  0  0  0  0  0  0  0  0
   -3.1919    7.2299   -2.8528 C   0  0  0  0  0  0  0  0  0  0  0  0
   -2.4693    8.3476   -3.3065 C   0  0  0  0  0  0  0  0  0  0  0  0
   -1.3924    8.1968   -4.2706 C   0  0  0  0  0  0  0  0  0  0  0  0
   -0.1178    7.0416   -4.0070 S   0  0  0  0  0  0  0  0  0  0  0  0
    0.6727    7.4522   -5.4908 C   0  0  0  0  0  0  0  0  0  0  0  0
    1.8982    6.7271   -5.9255 C   0  0  0  0  0  0  0  0  0  0  0  0
    1.5900    5.2621   -6.2426 C   0  0  0  0  0  0  0  0  0  0  0  0
   -0.0183    8.4329   -6.1368 C   0  0  0  0  0  0  0  0  0  0  0  0
    0.4486    9.1038   -7.6458 Cl  0  0  0  0  0  0  0  0  0  0  0  0
   -1.1848    8.8629   -5.4462 C   0  0  0  0  0  0  0  0  0  0  0  0
   -2.2543   10.0331   -6.0956 Cl  0  0  0  0  0  0  0  0  0  0  0  0
   -2.8082    9.5780   -2.7592 C   0  0  0  0  0  0  0  0  0  0  0  0
   -3.8333    9.7300   -1.7918 C   0  0  0  0  0  0  0  0  0  0  0  0
   -4.5611    8.6120   -1.3433 C   0  0  0  0  0  0  0  0  0  0  0  0
   -5.6044    8.7551   -0.3411 C   0  0  0  0  0  0  0  0  0  0  0  0
   -6.8959    9.9020   -0.5556 S   0  0  0  0  0  0  0  0  0  0  0  0
   -7.6328    9.4797    0.9529 C   0  0  0  0  0  0  0  0  0  0  0  0
   -8.8470   10.1905    1.4388 C   0  0  0  0  0  0  0  0  0  0  0  0
   -8.4989   11.5981    1.9281 C   0  0  0  0  0  0  0  0  0  0  0  0
   -6.9075    8.5084    1.5744 C   0  0  0  0  0  0  0  0  0  0  0  0
   -5.7605    8.0920    0.8444 C   0  0  0  0  0  0  0  0  0  0  0  0
   -4.6529    6.9430    1.4685 Cl  0  0  0  0  0  0  0  0  0  0  0  0
   -7.3171    7.8309    3.0965 Cl  0  0  0  0  0  0  0  0  0  0  0  0
   -4.2189    7.3813   -1.8870 C   0  0  0  0  0  0  0  0  0  0  0  0
   -4.9590    5.8519   -1.5054 S   0  0  0  0  0  0  0  0  0  0  0  0
   -3.9216   11.0620   -1.3246 C   0  0  0  0  0  0  0  0  0  0  0  0
   -3.0115   11.9035   -1.8971 C   0  0  0  0  0  0  0  0  0  0  0  0
   -1.9994   11.0867   -3.0647 S   0  0  0  0  0  0  0  0  0  0  0  0
   -2.8222   13.2864   -1.5958 C   0  0  0  0  0  0  0  0  0  0  0  0
   -3.5738   14.0474   -0.7485 C   0  0  0  0  0  0  0  0  0  0  0  0
   -3.0871   15.3677   -0.5929 C   0  0  0  0  0  0  0  0  0  0  0  0
   -3.6108   16.3940    0.2116 C   0  0  0  0  0  0  0  0  0  0  0  0
   -4.7416   16.1514    1.0914 C   0  0  0  0  0  0  0  0  0  0  0  0
   -6.1470   17.1741    1.0758 S   0  0  0  0  0  0  0  0  0  0  0  0
   -6.9254   16.2566    2.3185 C   0  0  0  0  0  0  0  0  0  0  0  0
   -8.2986   16.5901    2.7871 C   0  0  0  0  0  0  0  0  0  0  0  0
   -9.3524   15.8373    1.9712 C   0  0  0  0  0  0  0  0  0  0  0  0
   -6.1326   15.2185    2.7085 C   0  0  0  0  0  0  0  0  0  0  0  0
   -6.5660   14.0916    3.9273 Cl  0  0  0  0  0  0  0  0  0  0  0  0
   -4.8926   15.1572    2.0197 C   0  0  0  0  0  0  0  0  0  0  0  0
   -3.6887   13.9909    2.3970 Cl  0  0  0  0  0  0  0  0  0  0  0  0
   -2.9774   17.6287    0.1466 C   0  0  0  0  0  0  0  0  0  0  0  0
   -1.8389   17.8698   -0.6590 C   0  0  0  0  0  0  0  0  0  0  0  0
   -1.3163   16.8438   -1.4623 C   0  0  0  0  0  0  0  0  0  0  0  0
   -0.1754   17.0672   -2.3350 C   0  0  0  0  0  0  0  0  0  0  0  0
    1.2176   16.0290   -2.2906 S   0  0  0  0  0  0  0  0  0  0  0  0
    2.0128   16.9131   -3.5475 C   0  0  0  0  0  0  0  0  0  0  0  0
    3.3393   16.4821   -4.0677 C   0  0  0  0  0  0  0  0  0  0  0  0
    3.1833   15.3386   -5.0731 C   0  0  0  0  0  0  0  0  0  0  0  0
    1.2269   17.9415   -3.9747 C   0  0  0  0  0  0  0  0  0  0  0  0
   -0.0123   18.0358   -3.2861 C   0  0  0  0  0  0  0  0  0  0  0  0
   -1.2038   19.2054   -3.6849 Cl  0  0  0  0  0  0  0  0  0  0  0  0
    1.6719   19.0353   -5.2203 Cl  0  0  0  0  0  0  0  0  0  0  0  0
   -1.9448   15.6071   -1.3945 C   0  0  0  0  0  0  0  0  0  0  0  0
   -1.4886   14.1845   -2.2869 S   0  0  0  0  0  0  0  0  0  0  0  0
   -1.3376   19.1918   -0.4747 C   0  0  0  0  0  0  0  0  0  0  0  0
   -2.0666   19.9106    0.4023 C   0  0  0  0  0  0  0  0  0  0  0  0
   -3.4028   19.0402    1.0732 S   0  0  0  0  0  0  0  0  0  0  0  0
   10.0474  -19.7062    6.4477 H   0  0  0  0  0  0  0  0  0  0  0  0
   10.9754  -17.9345    4.7828 H   0  0  0  0  0  0  0  0  0  0  0  0
   14.3766  -13.9517    2.0366 H   0  0  0  0  0  0  0  0  0  0  0  0
   14.1040  -13.8263    3.7853 H   0  0  0  0  0  0  0  0  0  0  0  0
   16.0050  -15.3482    3.2966 H   0  0  0  0  0  0  0  0  0  0  0  0
   14.6766  -16.2400    4.0462 H   0  0  0  0  0  0  0  0  0  0  0  0
   14.9535  -16.3638    2.3053 H   0  0  0  0  0  0  0  0  0  0  0  0
    0.9647  -17.9061    4.5655 H   0  0  0  0  0  0  0  0  0  0  0  0
    0.8044  -18.0774    6.3238 H   0  0  0  0  0  0  0  0  0  0  0  0
    1.8853  -20.2241    4.4293 H   0  0  0  0  0  0  0  0  0  0  0  0
    0.2795  -20.2183    5.1673 H   0  0  0  0  0  0  0  0  0  0  0  0
    1.7165  -20.3940    6.1795 H   0  0  0  0  0  0  0  0  0  0  0  0
    4.5121  -15.1472    3.5610 H   0  0  0  0  0  0  0  0  0  0  0  0
   -0.3965  -10.3700    1.4262 H   0  0  0  0  0  0  0  0  0  0  0  0
   -6.7341   -8.8978    1.7602 H   0  0  0  0  0  0  0  0  0  0  0  0
   -6.3175   -9.6856    3.2940 H   0  0  0  0  0  0  0  0  0  0  0  0
   -5.6720  -11.7504    2.0503 H   0  0  0  0  0  0  0  0  0  0  0  0
   -7.3429  -11.3006    1.6961 H   0  0  0  0  0  0  0  0  0  0  0  0
   -6.0676  -10.9582    0.5215 H   0  0  0  0  0  0  0  0  0  0  0  0
    5.9939   -5.4525   -2.6041 H   0  0  0  0  0  0  0  0  0  0  0  0
    5.5994   -5.0023   -4.2741 H   0  0  0  0  0  0  0  0  0  0  0  0
    5.1741   -3.2231   -1.8230 H   0  0  0  0  0  0  0  0  0  0  0  0
    4.7930   -2.7811   -3.4908 H   0  0  0  0  0  0  0  0  0  0  0  0
    6.4714   -3.0473   -3.0098 H   0  0  0  0  0  0  0  0  0  0  0  0
   -0.1319   -4.2118   -2.1193 H   0  0  0  0  0  0  0  0  0  0  0  0
   -1.2238   -2.5201   -3.0608 H   0  0  0  0  0  0  0  0  0  0  0  0
    2.3446    1.6527   -5.8694 H   0  0  0  0  0  0  0  0  0  0  0  0
    2.2086    0.4344   -7.1533 H   0  0  0  0  0  0  0  0  0  0  0  0
    3.2277   -0.0980   -4.3186 H   0  0  0  0  0  0  0  0  0  0  0  0
    4.2324    0.0297   -5.7673 H   0  0  0  0  0  0  0  0  0  0  0  0
    3.0873   -1.3045   -5.6023 H   0  0  0  0  0  0  0  0  0  0  0  0
   -8.9474    1.2056    2.5606 H   0  0  0  0  0  0  0  0  0  0  0  0
   -7.6266    2.3760    2.7493 H   0  0  0  0  0  0  0  0  0  0  0  0
   -7.8763    0.9814    4.7923 H   0  0  0  0  0  0  0  0  0  0  0  0
   -7.6295   -0.4834    3.8361 H   0  0  0  0  0  0  0  0  0  0  0  0
   -6.3132    0.6792    4.0255 H   0  0  0  0  0  0  0  0  0  0  0  0
   -5.3084    3.0019   -1.2270 H   0  0  0  0  0  0  0  0  0  0  0  0
   -2.3042    5.5397   -3.9550 H   0  0  0  0  0  0  0  0  0  0  0  0
    2.2986    7.2239   -6.8105 H   0  0  0  0  0  0  0  0  0  0  0  0
    2.6486    6.7723   -5.1327 H   0  0  0  0  0  0  0  0  0  0  0  0
    2.4946    4.7534   -6.5648 H   0  0  0  0  0  0  0  0  0  0  0  0
    0.8516    5.1947   -7.0377 H   0  0  0  0  0  0  0  0  0  0  0  0
    1.1982    4.7581   -5.3617 H   0  0  0  0  0  0  0  0  0  0  0  0
   -9.2838    9.6136    2.2554 H   0  0  0  0  0  0  0  0  0  0  0  0
   -9.5777   10.2603    0.6303 H   0  0  0  0  0  0  0  0  0  0  0  0
   -8.0768   12.1868    1.1165 H   0  0  0  0  0  0  0  0  0  0  0  0
   -9.3931   12.0959    2.2943 H   0  0  0  0  0  0  0  0  0  0  0  0
   -7.7733   11.5496    2.7359 H   0  0  0  0  0  0  0  0  0  0  0  0
   -4.6159   11.3780   -0.5695 H   0  0  0  0  0  0  0  0  0  0  0  0
   -4.4566   13.6830   -0.2588 H   0  0  0  0  0  0  0  0  0  0  0  0
   -8.3879   16.3124    3.8393 H   0  0  0  0  0  0  0  0  0  0  0  0
   -8.4616   17.6645    2.6926 H   0  0  0  0  0  0  0  0  0  0  0  0
   -9.2049   14.7648    2.0673 H   0  0  0  0  0  0  0  0  0  0  0  0
  -10.3481   16.0871    2.3273 H   0  0  0  0  0  0  0  0  0  0  0  0
   -9.2793   16.1065    0.9203 H   0  0  0  0  0  0  0  0  0  0  0  0
    3.8202   17.3342   -4.5511 H   0  0  0  0  0  0  0  0  0  0  0  0
    3.9650   16.1510   -3.2369 H   0  0  0  0  0  0  0  0  0  0  0  0
    4.1581   15.0284   -5.4396 H   0  0  0  0  0  0  0  0  0  0  0  0
    2.6982   14.4867   -4.6026 H   0  0  0  0  0  0  0  0  0  0  0  0
    2.5790   15.6592   -5.9178 H   0  0  0  0  0  0  0  0  0  0  0  0
   -0.4621   19.5678   -0.9705 H   0  0  0  0  0  0  0  0  0  0  0  0
   -1.9069   20.9232    0.7171 H   0  0  0  0  0  0  0  0  0  0  0  0
  1  2  2  0  0  0  0
  2  3  1  0  0  0  0
  3  4  2  0  0  0  0
  4  5  1  0  0  0  0
  5  6  1  0  0  0  0
  6  7  1  0  0  0  0
  7  8  1  0  0  0  0
  8  9  1  0  0  0  0
  7 10  2  0  0  0  0
 10 11  1  0  0  0  0
 10 12  1  0  0  0  0
 12 13  1  0  0  0  0
  4 14  1  0  0  0  0
 14 15  2  0  0  0  0
 15 16  1  0  0  0  0
 16 17  1  0  0  0  0
 17 18  1  0  0  0  0
 18 19  1  0  0  0  0
 19 20  1  0  0  0  0
 20 21  1  0  0  0  0
 19 22  2  0  0  0  0
 22 23  1  0  0  0  0
 23 24  1  0  0  0  0
 22 25  1  0  0  0  0
 16 26  2  0  0  0  0
 26 27  1  0  0  0  0
 15 28  1  0  0  0  0
 28 29  2  0  0  0  0
 29 30  1  0  0  0  0
 29 31  1  0  0  0  0
 31 32  2  0  0  0  0
 32 33  1  0  0  0  0
 33 34  2  0  0  0  0
 33 35  1  0  0  0  0
 35 36  2  0  0  0  0
 36 37  1  0  0  0  0
 37 38  2  0  0  0  0
 37 39  1  0  0  0  0
 39 40  2  0  0  0  0
 40 41  1  0  0  0  0
 41 42  2  0  0  0  0
 42 43  1  0  0  0  0
 43 44  2  0  0  0  0
 44 45  1  0  0  0  0
 45 46  1  0  0  0  0
 46 47  1  0  0  0  0
 47 48  1  0  0  0  0
 48 49  1  0  0  0  0
 47 50  2  0  0  0  0
 50 51  1  0  0  0  0
 50 52  1  0  0  0  0
 52 53  1  0  0  0  0
 44 54  1  0  0  0  0
 54 55  2  0  0  0  0
 55 56  1  0  0  0  0
 56 57  1  0  0  0  0
 57 58  1  0  0  0  0
 58 59  1  0  0  0  0
 59 60  1  0  0  0  0
 60 61  1  0  0  0  0
 59 62  2  0  0  0  0
 62 63  1  0  0  0  0
 63 64  1  0  0  0  0
 62 65  1  0  0  0  0
 56 66  2  0  0  0  0
 66 67  1  0  0  0  0
 55 68  1  0  0  0  0
 68 69  2  0  0  0  0
 69 70  1  0  0  0  0
 69 71  1  0  0  0  0
 71 72  2  0  0  0  0
 72 73  1  0  0  0  0
 73 74  2  0  0  0  0
 74 75  1  0  0  0  0
 75 76  1  0  0  0  0
 76 77  1  0  0  0  0
 77 78  1  0  0  0  0
 78 79  1  0  0  0  0
 77 80  2  0  0  0  0
 80 81  1  0  0  0  0
 80 82  1  0  0  0  0
 82 83  1  0  0  0  0
 74 84  1  0  0  0  0
 84 85  2  0  0  0  0
 85 86  1  0  0  0  0
 86 87  1  0  0  0  0
 87 88  1  0  0  0  0
 88 89  1  0  0  0  0
 89 90  1  0  0  0  0
 90 91  1  0  0  0  0
 89 92  2  0  0  0  0
 92 93  1  0  0  0  0
 93 94  1  0  0  0  0
 92 95  1  0  0  0  0
 86 96  2  0  0  0  0
 96 97  1  0  0  0  0
 85 98  1  0  0  0  0
 98 99  2  0  0  0  0
 99100  1  0  0  0  0
 99101  1  0  0  0  0
101102  2  0  0  0  0
102103  1  0  0  0  0
103104  2  0  0  0  0
104105  1  0  0  0  0
105106  1  0  0  0  0
106107  1  0  0  0  0
107108  1  0  0  0  0
108109  1  0  0  0  0
107110  2  0  0  0  0
110111  1  0  0  0  0
110112  1  0  0  0  0
112113  1  0  0  0  0
104114  1  0  0  0  0
114115  2  0  0  0  0
115116  1  0  0  0  0
116117  1  0  0  0  0
117118  1  0  0  0  0
118119  1  0  0  0  0
119120  1  0  0  0  0
120121  1  0  0  0  0
119122  2  0  0  0  0
122123  1  0  0  0  0
123124  1  0  0  0  0
122125  1  0  0  0  0
116126  2  0  0  0  0
126127  1  0  0  0  0
115128  1  0  0  0  0
128129  2  0  0  0  0
129130  1  0  0  0  0
129131  1  0  0  0  0
131132  2  0  0  0  0
132133  1  0  0  0  0
133134  2  0  0  0  0
134135  1  0  0  0  0
135136  1  0  0  0  0
136137  1  0  0  0  0
137138  1  0  0  0  0
138139  1  0  0  0  0
137140  2  0  0  0  0
140141  1  0  0  0  0
140142  1  0  0  0  0
142143  1  0  0  0  0
134144  1  0  0  0  0
144145  2  0  0  0  0
145146  1  0  0  0  0
146147  1  0  0  0  0
147148  1  0  0  0  0
148149  1  0  0  0  0
149150  1  0  0  0  0
150151  1  0  0  0  0
149152  2  0  0  0  0
152153  1  0  0  0  0
153154  1  0  0  0  0
152155  1  0  0  0  0
146156  2  0  0  0  0
156157  1  0  0  0  0
145158  1  0  0  0  0
158159  2  0  0  0  0
159160  1  0  0  0  0
 27  1  1  0  0  0  0
 36 31  1  0  0  0  0
 67 41  1  0  0  0  0
 97 71  1  0  0  0  0
127101  1  0  0  0  0
157131  1  0  0  0  0
 26  3  1  0  0  0  0
 40 35  1  0  0  0  0
 66 43  1  0  0  0  0
 96 73  1  0  0  0  0
126103  1  0  0  0  0
156133  1  0  0  0  0
 12  5  2  0  0  0  0
 30 14  1  0  0  0  0
 52 45  2  0  0  0  0
 70 54  1  0  0  0  0
 82 75  2  0  0  0  0
100 84  1  0  0  0  0
112105  2  0  0  0  0
130114  1  0  0  0  0
142135  2  0  0  0  0
160144  1  0  0  0  0
 23 17  2  0  0  0  0
 63 57  2  0  0  0  0
 93 87  2  0  0  0  0
123117  2  0  0  0  0
153147  2  0  0  0  0
  1161  1  0  0  0  0
  2162  1  0  0  0  0
  8163  1  0  0  0  0
  8164  1  0  0  0  0
  9165  1  0  0  0  0
  9166  1  0  0  0  0
  9167  1  0  0  0  0
 20168  1  0  0  0  0
 20169  1  0  0  0  0
 21170  1  0  0  0  0
 21171  1  0  0  0  0
 21172  1  0  0  0  0
 28173  1  0  0  0  0
 42174  1  0  0  0  0
 48175  1  0  0  0  0
 48176  1  0  0  0  0
 49177  1  0  0  0  0
 49178  1  0  0  0  0
 49179  1  0  0  0  0
 60180  1  0  0  0  0
 60181  1  0  0  0  0
 61182  1  0  0  0  0
 61183  1  0  0  0  0
 61184  1  0  0  0  0
 68185  1  0  0  0  0
 72186  1  0  0  0  0
 78187  1  0  0  0  0
 78188  1  0  0  0  0
 79189  1  0  0  0  0
 79190  1  0  0  0  0
 79191  1  0  0  0  0
 90192  1  0  0  0  0
 90193  1  0  0  0  0
 91194  1  0  0  0  0
 91195  1  0  0  0  0
 91196  1  0  0  0  0
 98197  1  0  0  0  0
102198  1  0  0  0  0
108199  1  0  0  0  0
108200  1  0  0  0  0
109201  1  0  0  0  0
109202  1  0  0  0  0
109203  1  0  0  0  0
120204  1  0  0  0  0
120205  1  0  0  0  0
121206  1  0  0  0  0
121207  1  0  0  0  0
121208  1  0  0  0  0
128209  1  0  0  0  0
132210  1  0  0  0  0
138211  1  0  0  0  0
138212  1  0  0  0  0
139213  1  0  0  0  0
139214  1  0  0  0  0
139215  1  0  0  0  0
150216  1  0  0  0  0
150217  1  0  0  0  0
151218  1  0  0  0  0
151219  1  0  0  0  0
151220  1  0  0  0  0
158221  1  0  0  0  0
159222  1  0  0  0  0
M  END
