
  xtb     03052205213D
 energy: -415.378374105124 gnorm: 0.001721760251 xtb: 6.4.1 (unknown)
232253  0     0  0            999 V2000
  -12.1866   -6.3412    7.6275 C   0  0  0  0  0  0  0  0  0  0  0  0
  -12.1469   -5.1499    6.9986 C   0  0  0  0  0  0  0  0  0  0  0  0
  -10.8688   -4.8621    6.4321 C   0  0  0  0  0  0  0  0  0  0  0  0
  -10.4732   -3.7181    5.7242 C   0  0  0  0  0  0  0  0  0  0  0  0
  -11.3731   -2.5711    5.5486 C   0  0  0  0  0  0  0  0  0  0  0  0
  -12.0063   -1.9946    6.6459 C   0  0  0  0  0  0  0  0  0  0  0  0
  -12.8308   -0.8957    6.5006 C   0  0  0  0  0  0  0  0  0  0  0  0
  -13.0518   -0.3330    5.2487 C   0  0  0  0  0  0  0  0  0  0  0  0
  -14.0908    1.0508    4.9183 S   0  0  0  0  0  0  0  0  0  0  0  0
  -14.3325    1.8275    6.5534 C   0  0  0  0  0  0  0  0  0  0  0  0
  -13.0629    2.4687    7.0805 C   0  0  0  0  0  0  0  0  0  0  0  0
  -12.4208   -0.9304    4.1555 C   0  0  0  0  0  0  0  0  0  0  0  0
  -12.6305   -0.4247    2.9253 F   0  0  0  0  0  0  0  0  0  0  0  0
  -11.5919   -2.0216    4.2875 C   0  0  0  0  0  0  0  0  0  0  0  0
   -9.1768   -3.7091    5.2295 C   0  0  0  0  0  0  0  0  0  0  0  0
   -8.2564   -4.7620    5.4570 C   0  0  0  0  0  0  0  0  0  0  0  0
   -8.6415   -5.8918    6.1973 C   0  0  0  0  0  0  0  0  0  0  0  0
   -7.6908   -6.9711    6.4909 C   0  0  0  0  0  0  0  0  0  0  0  0
   -8.0083   -8.3047    6.2381 C   0  0  0  0  0  0  0  0  0  0  0  0
   -7.1070   -9.3074    6.5223 C   0  0  0  0  0  0  0  0  0  0  0  0
   -5.8526   -9.0267    7.0629 C   0  0  0  0  0  0  0  0  0  0  0  0
   -4.7682  -10.3945    7.3369 S   0  0  0  0  0  0  0  0  0  0  0  0
   -3.7607   -9.8883    8.7886 C   0  0  0  0  0  0  0  0  0  0  0  0
   -3.1819  -11.1311    9.4349 C   0  0  0  0  0  0  0  0  0  0  0  0
   -5.5416   -7.6901    7.2935 C   0  0  0  0  0  0  0  0  0  0  0  0
   -6.4420   -6.6779    7.0300 C   0  0  0  0  0  0  0  0  0  0  0  0
   -4.3315   -7.3311    7.7788 F   0  0  0  0  0  0  0  0  0  0  0  0
   -9.9542   -5.9214    6.6460 C   0  0  0  0  0  0  0  0  0  0  0  0
  -10.6866   -7.2037    7.5768 S   0  0  0  0  0  0  0  0  0  0  0  0
   -6.9987   -4.5003    4.8574 C   0  0  0  0  0  0  0  0  0  0  0  0
   -6.9325   -3.2925    4.2265 C   0  0  0  0  0  0  0  0  0  0  0  0
   -8.4445   -2.4144    4.3189 S   0  0  0  0  0  0  0  0  0  0  0  0
   -5.7883   -2.7215    3.5868 C   0  0  0  0  0  0  0  0  0  0  0  0
   -4.5099   -3.1972    3.6345 C   0  0  0  0  0  0  0  0  0  0  0  0
   -3.5700   -2.3766    2.9643 C   0  0  0  0  0  0  0  0  0  0  0  0
   -2.1814   -2.5710    2.8540 C   0  0  0  0  0  0  0  0  0  0  0  0
   -1.5399   -3.7441    3.4613 C   0  0  0  0  0  0  0  0  0  0  0  0
   -0.7419   -4.5974    2.7027 C   0  0  0  0  0  0  0  0  0  0  0  0
   -0.2207   -5.7476    3.2590 C   0  0  0  0  0  0  0  0  0  0  0  0
   -0.4625   -6.0767    4.5888 C   0  0  0  0  0  0  0  0  0  0  0  0
    0.1933   -7.5923    5.2316 S   0  0  0  0  0  0  0  0  0  0  0  0
   -1.3028   -8.3397    5.9833 C   0  0  0  0  0  0  0  0  0  0  0  0
   -2.3913   -8.5738    4.9547 C   0  0  0  0  0  0  0  0  0  0  0  0
   -1.1987   -5.1777    5.3547 C   0  0  0  0  0  0  0  0  0  0  0  0
   -1.4034   -5.4020    6.6691 F   0  0  0  0  0  0  0  0  0  0  0  0
   -1.7478   -4.0376    4.8058 C   0  0  0  0  0  0  0  0  0  0  0  0
   -1.4739   -1.6189    2.1389 C   0  0  0  0  0  0  0  0  0  0  0  0
   -2.0971   -0.4915    1.5468 C   0  0  0  0  0  0  0  0  0  0  0  0
   -3.4871   -0.3051    1.6391 C   0  0  0  0  0  0  0  0  0  0  0  0
   -4.1081    0.8274    0.9432 C   0  0  0  0  0  0  0  0  0  0  0  0
   -3.6189    2.1207    1.1070 C   0  0  0  0  0  0  0  0  0  0  0  0
   -4.0931    3.1648    0.3396 C   0  0  0  0  0  0  0  0  0  0  0  0
   -5.0632    2.9496   -0.6330 C   0  0  0  0  0  0  0  0  0  0  0  0
   -5.6749    4.1889   -1.7246 S   0  0  0  0  0  0  0  0  0  0  0  0
   -4.3402    5.4389   -1.7434 C   0  0  0  0  0  0  0  0  0  0  0  0
   -3.0532    4.9094   -2.3473 C   0  0  0  0  0  0  0  0  0  0  0  0
   -5.5955    1.6635   -0.7362 C   0  0  0  0  0  0  0  0  0  0  0  0
   -5.1410    0.6160    0.0338 C   0  0  0  0  0  0  0  0  0  0  0  0
   -6.5674    1.4241   -1.6363 F   0  0  0  0  0  0  0  0  0  0  0  0
   -4.1933   -1.2592    2.3523 C   0  0  0  0  0  0  0  0  0  0  0  0
   -5.9088   -1.2386    2.6637 S   0  0  0  0  0  0  0  0  0  0  0  0
   -1.1648    0.3226    0.8626 C   0  0  0  0  0  0  0  0  0  0  0  0
    0.1201   -0.1241    0.9410 C   0  0  0  0  0  0  0  0  0  0  0  0
    0.2515   -1.6145    1.8537 S   0  0  0  0  0  0  0  0  0  0  0  0
    1.2381    0.5111    0.3250 C   0  0  0  0  0  0  0  0  0  0  0  0
    2.4989    0.0504    0.0940 C   0  0  0  0  0  0  0  0  0  0  0  0
    3.2945    0.9354   -0.6830 C   0  0  0  0  0  0  0  0  0  0  0  0
    4.5974    0.7506   -1.1833 C   0  0  0  0  0  0  0  0  0  0  0  0
    5.3755   -0.4623   -0.9107 C   0  0  0  0  0  0  0  0  0  0  0  0
    6.7174   -0.3802   -0.5451 C   0  0  0  0  0  0  0  0  0  0  0  0
    7.4785   -1.5126   -0.3252 C   0  0  0  0  0  0  0  0  0  0  0  0
    6.9169   -2.7793   -0.4480 C   0  0  0  0  0  0  0  0  0  0  0  0
    7.7662   -4.3022   -0.2453 S   0  0  0  0  0  0  0  0  0  0  0  0
    9.5139   -3.7954   -0.0385 C   0  0  0  0  0  0  0  0  0  0  0  0
   10.3769   -5.0432   -0.0175 C   0  0  0  0  0  0  0  0  0  0  0  0
    5.5583   -2.8467   -0.7671 C   0  0  0  0  0  0  0  0  0  0  0  0
    4.9719   -4.0592   -0.8406 F   0  0  0  0  0  0  0  0  0  0  0  0
    4.7977   -1.7280   -1.0143 C   0  0  0  0  0  0  0  0  0  0  0  0
    5.1127    1.7764   -1.9674 C   0  0  0  0  0  0  0  0  0  0  0  0
    4.3909    2.9510   -2.2997 C   0  0  0  0  0  0  0  0  0  0  0  0
    3.0989    3.1441   -1.7860 C   0  0  0  0  0  0  0  0  0  0  0  0
    2.2826    4.3169   -2.1156 C   0  0  0  0  0  0  0  0  0  0  0  0
    1.6209    5.0350   -1.1189 C   0  0  0  0  0  0  0  0  0  0  0  0
    0.8187    6.1034   -1.4425 C   0  0  0  0  0  0  0  0  0  0  0  0
    0.6322    6.5176   -2.7659 C   0  0  0  0  0  0  0  0  0  0  0  0
   -0.4176    7.9244   -2.9406 S   0  0  0  0  0  0  0  0  0  0  0  0
   -0.7393    8.2019   -4.7153 C   0  0  0  0  0  0  0  0  0  0  0  0
   -1.6991    7.1902   -5.3070 C   0  0  0  0  0  0  0  0  0  0  0  0
    1.3080    5.7969   -3.7447 C   0  0  0  0  0  0  0  0  0  0  0  0
    2.1119    4.7170   -3.4349 C   0  0  0  0  0  0  0  0  0  0  0  0
    1.2064    6.1083   -5.0612 F   0  0  0  0  0  0  0  0  0  0  0  0
    2.5982    2.1348   -0.9782 C   0  0  0  0  0  0  0  0  0  0  0  0
    0.9934    2.1252   -0.3092 S   0  0  0  0  0  0  0  0  0  0  0  0
    5.1282    3.8179   -3.1435 C   0  0  0  0  0  0  0  0  0  0  0  0
    6.3615    3.3356   -3.4705 C   0  0  0  0  0  0  0  0  0  0  0  0
    6.6838    1.7817   -2.7261 S   0  0  0  0  0  0  0  0  0  0  0  0
    7.3561    3.9327   -4.2982 C   0  0  0  0  0  0  0  0  0  0  0  0
    8.8814    3.1530   -4.5270 S   0  0  0  0  0  0  0  0  0  0  0  0
    9.4336    4.4324   -5.5458 C   0  0  0  0  0  0  0  0  0  0  0  0
   10.7569    4.3866   -6.1510 C   0  0  0  0  0  0  0  0  0  0  0  0
   11.2055    5.2208   -6.8976 O   0  0  0  0  0  0  0  0  0  0  0  0
   11.4375    3.2898   -5.7795 O   0  0  0  0  0  0  0  0  0  0  0  0
    8.4805    5.4083   -5.7086 C   0  0  0  0  0  0  0  0  0  0  0  0
    7.2968    5.1289   -5.0086 C   0  0  0  0  0  0  0  0  0  0  0  0
    6.1654    5.8893   -5.0599 O   0  0  0  0  0  0  0  0  0  0  0  0
    6.3060    7.2348   -5.1748 C   0  0  0  0  0  0  0  0  0  0  0  0
    5.3874    8.0289   -5.7402 C   0  0  0  0  0  0  0  0  0  0  0  0
    4.2350    7.6068   -6.4961 C   0  0  0  0  0  0  0  0  0  0  0  0
    2.7983    8.5677   -6.5445 S   0  0  0  0  0  0  0  0  0  0  0  0
    2.0459    7.4717   -7.6522 C   0  0  0  0  0  0  0  0  0  0  0  0
    0.6998    7.7350   -8.1353 C   0  0  0  0  0  0  0  0  0  0  0  0
    0.0209    8.6821   -7.8190 O   0  0  0  0  0  0  0  0  0  0  0  0
    0.2741    6.7960   -8.9969 O   0  0  0  0  0  0  0  0  0  0  0  0
    2.8718    6.4264   -7.9773 C   0  0  0  0  0  0  0  0  0  0  0  0
    4.1150    6.5071   -7.3310 C   0  0  0  0  0  0  0  0  0  0  0  0
    5.1828    5.6853   -7.5865 O   0  0  0  0  0  0  0  0  0  0  0  0
    5.1244    4.3886   -7.2210 C   0  0  0  0  0  0  0  0  0  0  0  0
    4.1105    3.7336   -6.6458 C   0  0  0  0  0  0  0  0  0  0  0  0
    4.2507    2.3870   -6.1757 C   0  0  0  0  0  0  0  0  0  0  0  0
    3.3032    1.5732   -5.6359 C   0  0  0  0  0  0  0  0  0  0  0  0
    3.8047    0.3173   -5.1890 C   0  0  0  0  0  0  0  0  0  0  0  0
    3.1056   -0.7466   -4.5950 C   0  0  0  0  0  0  0  0  0  0  0  0
    1.6953   -0.6324   -4.2094 C   0  0  0  0  0  0  0  0  0  0  0  0
    1.2337    0.5062   -3.5468 C   0  0  0  0  0  0  0  0  0  0  0  0
   -0.0599    0.5786   -3.0840 C   0  0  0  0  0  0  0  0  0  0  0  0
   -0.9622   -0.4730   -3.2516 C   0  0  0  0  0  0  0  0  0  0  0  0
   -2.5625   -0.2197   -2.5470 S   0  0  0  0  0  0  0  0  0  0  0  0
   -3.2791   -1.8837   -2.3007 C   0  0  0  0  0  0  0  0  0  0  0  0
   -2.4862   -2.7148   -1.3118 C   0  0  0  0  0  0  0  0  0  0  0  0
   -0.5107   -1.5716   -3.9770 C   0  0  0  0  0  0  0  0  0  0  0  0
   -1.3317   -2.6052   -4.2725 F   0  0  0  0  0  0  0  0  0  0  0  0
    0.7887   -1.6624   -4.4368 C   0  0  0  0  0  0  0  0  0  0  0  0
    3.8415   -1.9001   -4.3338 C   0  0  0  0  0  0  0  0  0  0  0  0
    5.2438   -1.9797   -4.5029 C   0  0  0  0  0  0  0  0  0  0  0  0
    5.9555   -0.8835   -5.0099 C   0  0  0  0  0  0  0  0  0  0  0  0
    7.4206   -0.8225   -5.0040 C   0  0  0  0  0  0  0  0  0  0  0  0
    8.1575   -0.3441   -6.0858 C   0  0  0  0  0  0  0  0  0  0  0  0
    9.5189   -0.1574   -5.9805 C   0  0  0  0  0  0  0  0  0  0  0  0
   10.2062   -0.4510   -4.8041 C   0  0  0  0  0  0  0  0  0  0  0  0
   11.9485   -0.1627   -4.7980 S   0  0  0  0  0  0  0  0  0  0  0  0
   12.3207    0.3987   -3.0952 C   0  0  0  0  0  0  0  0  0  0  0  0
   11.4851    1.5952   -2.6886 C   0  0  0  0  0  0  0  0  0  0  0  0
    9.4664   -0.9865   -3.7554 C   0  0  0  0  0  0  0  0  0  0  0  0
    8.1012   -1.1580   -3.8372 C   0  0  0  0  0  0  0  0  0  0  0  0
   10.0637   -1.3555   -2.5947 F   0  0  0  0  0  0  0  0  0  0  0  0
    5.1975    0.2053   -5.4148 C   0  0  0  0  0  0  0  0  0  0  0  0
    5.8335    1.6344   -6.1809 S   0  0  0  0  0  0  0  0  0  0  0  0
    5.7514   -3.2629   -4.1401 C   0  0  0  0  0  0  0  0  0  0  0  0
    4.7913   -4.1075   -3.7163 C   0  0  0  0  0  0  0  0  0  0  0  0
    3.2140   -3.4020   -3.6999 S   0  0  0  0  0  0  0  0  0  0  0  0
  -13.0190   -6.7954    8.1288 H   0  0  0  0  0  0  0  0  0  0  0  0
  -12.9913   -4.4903    6.9134 H   0  0  0  0  0  0  0  0  0  0  0  0
  -11.8340   -2.3986    7.6323 H   0  0  0  0  0  0  0  0  0  0  0  0
  -13.3050   -0.4827    7.3762 H   0  0  0  0  0  0  0  0  0  0  0  0
  -15.0970    2.5810    6.3639 H   0  0  0  0  0  0  0  0  0  0  0  0
  -14.7417    1.0860    7.2385 H   0  0  0  0  0  0  0  0  0  0  0  0
  -12.2775    1.7282    7.2174 H   0  0  0  0  0  0  0  0  0  0  0  0
  -13.2601    2.9482    8.0376 H   0  0  0  0  0  0  0  0  0  0  0  0
  -12.7052    3.2207    6.3814 H   0  0  0  0  0  0  0  0  0  0  0  0
  -11.1368   -2.4439    3.4057 H   0  0  0  0  0  0  0  0  0  0  0  0
   -8.9640   -8.5546    5.8048 H   0  0  0  0  0  0  0  0  0  0  0  0
   -7.3577  -10.3380    6.3257 H   0  0  0  0  0  0  0  0  0  0  0  0
   -2.9710   -9.2212    8.4469 H   0  0  0  0  0  0  0  0  0  0  0  0
   -4.4242   -9.3590    9.4712 H   0  0  0  0  0  0  0  0  0  0  0  0
   -3.9759  -11.7958    9.7688 H   0  0  0  0  0  0  0  0  0  0  0  0
   -2.5766  -10.8479   10.2934 H   0  0  0  0  0  0  0  0  0  0  0  0
   -2.5544  -11.6711    8.7288 H   0  0  0  0  0  0  0  0  0  0  0  0
   -6.1593   -5.6623    7.2603 H   0  0  0  0  0  0  0  0  0  0  0  0
   -6.1826   -5.1984    4.8784 H   0  0  0  0  0  0  0  0  0  0  0  0
   -4.2416   -4.1056    4.1407 H   0  0  0  0  0  0  0  0  0  0  0  0
   -0.5621   -4.3770    1.6617 H   0  0  0  0  0  0  0  0  0  0  0  0
    0.3737   -6.4219    2.6628 H   0  0  0  0  0  0  0  0  0  0  0  0
   -0.9395   -9.2824    6.3922 H   0  0  0  0  0  0  0  0  0  0  0  0
   -1.6427   -7.7021    6.7971 H   0  0  0  0  0  0  0  0  0  0  0  0
   -3.2214   -9.1092    5.4112 H   0  0  0  0  0  0  0  0  0  0  0  0
   -2.7632   -7.6286    4.5609 H   0  0  0  0  0  0  0  0  0  0  0  0
   -2.0123   -9.1677    4.1253 H   0  0  0  0  0  0  0  0  0  0  0  0
   -2.3121   -3.3709    5.4399 H   0  0  0  0  0  0  0  0  0  0  0  0
   -2.8638    2.3138    1.8540 H   0  0  0  0  0  0  0  0  0  0  0  0
   -3.6929    4.1531    0.4984 H   0  0  0  0  0  0  0  0  0  0  0  0
   -4.7571    6.2390   -2.3557 H   0  0  0  0  0  0  0  0  0  0  0  0
   -4.1975    5.8194   -0.7323 H   0  0  0  0  0  0  0  0  0  0  0  0
   -2.3079    5.7022   -2.3737 H   0  0  0  0  0  0  0  0  0  0  0  0
   -3.2299    4.5566   -3.3615 H   0  0  0  0  0  0  0  0  0  0  0  0
   -2.6556    4.0820   -1.7627 H   0  0  0  0  0  0  0  0  0  0  0  0
   -5.5696   -0.3640   -0.1063 H   0  0  0  0  0  0  0  0  0  0  0  0
   -1.4397    1.1964    0.3008 H   0  0  0  0  0  0  0  0  0  0  0  0
    2.8364   -0.9002    0.4643 H   0  0  0  0  0  0  0  0  0  0  0  0
    7.1777    0.5865   -0.4120 H   0  0  0  0  0  0  0  0  0  0  0  0
    8.5163   -1.4001   -0.0595 H   0  0  0  0  0  0  0  0  0  0  0  0
    9.5981   -3.2482    0.9005 H   0  0  0  0  0  0  0  0  0  0  0  0
    9.7795   -3.1523   -0.8760 H   0  0  0  0  0  0  0  0  0  0  0  0
   11.4216   -4.7667    0.1052 H   0  0  0  0  0  0  0  0  0  0  0  0
   10.2695   -5.5950   -0.9483 H   0  0  0  0  0  0  0  0  0  0  0  0
   10.0886   -5.6950    0.8042 H   0  0  0  0  0  0  0  0  0  0  0  0
    3.7696   -1.8506   -1.3146 H   0  0  0  0  0  0  0  0  0  0  0  0
    1.7521    4.7618   -0.0837 H   0  0  0  0  0  0  0  0  0  0  0  0
    0.3108    6.6564   -0.6674 H   0  0  0  0  0  0  0  0  0  0  0  0
   -1.1776    9.2002   -4.7305 H   0  0  0  0  0  0  0  0  0  0  0  0
    0.2084    8.2370   -5.2453 H   0  0  0  0  0  0  0  0  0  0  0  0
   -1.9082    7.4712   -6.3362 H   0  0  0  0  0  0  0  0  0  0  0  0
   -1.2732    6.1895   -5.2998 H   0  0  0  0  0  0  0  0  0  0  0  0
   -2.6339    7.1764   -4.7507 H   0  0  0  0  0  0  0  0  0  0  0  0
    2.5866    4.1781   -4.2397 H   0  0  0  0  0  0  0  0  0  0  0  0
    4.7645    4.7678   -3.4872 H   0  0  0  0  0  0  0  0  0  0  0  0
   12.3015    3.2574   -6.2185 H   0  0  0  0  0  0  0  0  0  0  0  0
    8.6301    6.2717   -6.3320 H   0  0  0  0  0  0  0  0  0  0  0  0
    7.1924    7.6579   -4.7145 H   0  0  0  0  0  0  0  0  0  0  0  0
    5.5116    9.0949   -5.6249 H   0  0  0  0  0  0  0  0  0  0  0  0
   -0.6208    7.0134   -9.3007 H   0  0  0  0  0  0  0  0  0  0  0  0
    2.5981    5.6499   -8.6681 H   0  0  0  0  0  0  0  0  0  0  0  0
    6.0689    3.9028   -7.4299 H   0  0  0  0  0  0  0  0  0  0  0  0
    3.1588    4.2176   -6.4776 H   0  0  0  0  0  0  0  0  0  0  0  0
    2.2639    1.8445   -5.5824 H   0  0  0  0  0  0  0  0  0  0  0  0
    1.9111    1.3237   -3.3598 H   0  0  0  0  0  0  0  0  0  0  0  0
   -0.4037    1.4603   -2.5658 H   0  0  0  0  0  0  0  0  0  0  0  0
   -4.2764   -1.6649   -1.9185 H   0  0  0  0  0  0  0  0  0  0  0  0
   -3.3724   -2.3740   -3.2671 H   0  0  0  0  0  0  0  0  0  0  0  0
   -1.4783   -2.9021   -1.6767 H   0  0  0  0  0  0  0  0  0  0  0  0
   -2.9793   -3.6732   -1.1623 H   0  0  0  0  0  0  0  0  0  0  0  0
   -2.4197   -2.2038   -0.3542 H   0  0  0  0  0  0  0  0  0  0  0  0
    1.0677   -2.5402   -4.9979 H   0  0  0  0  0  0  0  0  0  0  0  0
    7.6611   -0.1195   -7.0168 H   0  0  0  0  0  0  0  0  0  0  0  0
   10.0821    0.2324   -6.8137 H   0  0  0  0  0  0  0  0  0  0  0  0
   12.1983   -0.4387   -2.4114 H   0  0  0  0  0  0  0  0  0  0  0  0
   13.3784    0.6580   -3.1492 H   0  0  0  0  0  0  0  0  0  0  0  0
   11.8264    1.9691   -1.7253 H   0  0  0  0  0  0  0  0  0  0  0  0
   11.5727    2.3872   -3.4282 H   0  0  0  0  0  0  0  0  0  0  0  0
   10.4342    1.3266   -2.6008 H   0  0  0  0  0  0  0  0  0  0  0  0
    7.5697   -1.5285   -2.9749 H   0  0  0  0  0  0  0  0  0  0  0  0
    6.7873   -3.5341   -4.2315 H   0  0  0  0  0  0  0  0  0  0  0  0
    4.8979   -5.1240   -3.3927 H   0  0  0  0  0  0  0  0  0  0  0  0
  1  2  2  0  0  0  0
  2  3  1  0  0  0  0
  3  4  2  0  0  0  0
  4  5  1  0  0  0  0
  5  6  2  0  0  0  0
  6  7  1  0  0  0  0
  7  8  2  0  0  0  0
  8  9  1  0  0  0  0
  9 10  1  0  0  0  0
 10 11  1  0  0  0  0
  8 12  1  0  0  0  0
 12 13  1  0  0  0  0
 12 14  2  0  0  0  0
  4 15  1  0  0  0  0
 15 16  2  0  0  0  0
 16 17  1  0  0  0  0
 17 18  1  0  0  0  0
 18 19  2  0  0  0  0
 19 20  1  0  0  0  0
 20 21  2  0  0  0  0
 21 22  1  0  0  0  0
 22 23  1  0  0  0  0
 23 24  1  0  0  0  0
 21 25  1  0  0  0  0
 25 26  2  0  0  0  0
 25 27  1  0  0  0  0
 17 28  2  0  0  0  0
 28 29  1  0  0  0  0
 16 30  1  0  0  0  0
 30 31  2  0  0  0  0
 31 32  1  0  0  0  0
 31 33  1  0  0  0  0
 33 34  2  0  0  0  0
 34 35  1  0  0  0  0
 35 36  2  0  0  0  0
 36 37  1  0  0  0  0
 37 38  2  0  0  0  0
 38 39  1  0  0  0  0
 39 40  2  0  0  0  0
 40 41  1  0  0  0  0
 41 42  1  0  0  0  0
 42 43  1  0  0  0  0
 40 44  1  0  0  0  0
 44 45  1  0  0  0  0
 44 46  2  0  0  0  0
 36 47  1  0  0  0  0
 47 48  2  0  0  0  0
 48 49  1  0  0  0  0
 49 50  1  0  0  0  0
 50 51  2  0  0  0  0
 51 52  1  0  0  0  0
 52 53  2  0  0  0  0
 53 54  1  0  0  0  0
 54 55  1  0  0  0  0
 55 56  1  0  0  0  0
 53 57  1  0  0  0  0
 57 58  2  0  0  0  0
 57 59  1  0  0  0  0
 49 60  2  0  0  0  0
 60 61  1  0  0  0  0
 48 62  1  0  0  0  0
 62 63  2  0  0  0  0
 63 64  1  0  0  0  0
 63 65  1  0  0  0  0
 65 66  2  0  0  0  0
 66 67  1  0  0  0  0
 67 68  2  0  0  0  0
 68 69  1  0  0  0  0
 69 70  2  0  0  0  0
 70 71  1  0  0  0  0
 71 72  2  0  0  0  0
 72 73  1  0  0  0  0
 73 74  1  0  0  0  0
 74 75  1  0  0  0  0
 72 76  1  0  0  0  0
 76 77  1  0  0  0  0
 76 78  2  0  0  0  0
 68 79  1  0  0  0  0
 79 80  2  0  0  0  0
 80 81  1  0  0  0  0
 81 82  1  0  0  0  0
 82 83  2  0  0  0  0
 83 84  1  0  0  0  0
 84 85  2  0  0  0  0
 85 86  1  0  0  0  0
 86 87  1  0  0  0  0
 87 88  1  0  0  0  0
 85 89  1  0  0  0  0
 89 90  2  0  0  0  0
 89 91  1  0  0  0  0
 81 92  2  0  0  0  0
 92 93  1  0  0  0  0
 80 94  1  0  0  0  0
 94 95  2  0  0  0  0
 95 96  1  0  0  0  0
 95 97  1  0  0  0  0
 97 98  1  0  0  0  0
 98 99  1  0  0  0  0
 99100  1  0  0  0  0
100101  2  0  0  0  0
100102  1  0  0  0  0
 99103  2  0  0  0  0
103104  1  0  0  0  0
104105  1  0  0  0  0
105106  1  0  0  0  0
106107  2  0  0  0  0
107108  1  0  0  0  0
108109  1  0  0  0  0
109110  1  0  0  0  0
110111  1  0  0  0  0
111112  2  0  0  0  0
111113  1  0  0  0  0
110114  2  0  0  0  0
114115  1  0  0  0  0
115116  1  0  0  0  0
116117  1  0  0  0  0
117118  2  0  0  0  0
118119  1  0  0  0  0
119120  2  0  0  0  0
120121  1  0  0  0  0
121122  2  0  0  0  0
122123  1  0  0  0  0
123124  2  0  0  0  0
124125  1  0  0  0  0
125126  2  0  0  0  0
126127  1  0  0  0  0
127128  1  0  0  0  0
128129  1  0  0  0  0
126130  1  0  0  0  0
130131  1  0  0  0  0
130132  2  0  0  0  0
122133  1  0  0  0  0
133134  2  0  0  0  0
134135  1  0  0  0  0
135136  1  0  0  0  0
136137  2  0  0  0  0
137138  1  0  0  0  0
138139  2  0  0  0  0
139140  1  0  0  0  0
140141  1  0  0  0  0
141142  1  0  0  0  0
139143  1  0  0  0  0
143144  2  0  0  0  0
143145  1  0  0  0  0
135146  2  0  0  0  0
146147  1  0  0  0  0
134148  1  0  0  0  0
148149  2  0  0  0  0
149150  1  0  0  0  0
 29  1  1  0  0  0  0
 61 33  1  0  0  0  0
 93 65  1  0  0  0  0
104 97  2  0  0  0  0
115108  2  0  0  0  0
147119  1  0  0  0  0
 28  3  1  0  0  0  0
 60 35  1  0  0  0  0
 92 67  1  0  0  0  0
146121  1  0  0  0  0
 14  5  1  0  0  0  0
 32 15  1  0  0  0  0
 46 37  1  0  0  0  0
 64 47  1  0  0  0  0
 78 69  1  0  0  0  0
 96 79  1  0  0  0  0
132123  1  0  0  0  0
150133  1  0  0  0  0
 26 18  1  0  0  0  0
 58 50  1  0  0  0  0
 90 82  1  0  0  0  0
144136  1  0  0  0  0
  1151  1  0  0  0  0
  2152  1  0  0  0  0
  6153  1  0  0  0  0
  7154  1  0  0  0  0
 10155  1  0  0  0  0
 10156  1  0  0  0  0
 11157  1  0  0  0  0
 11158  1  0  0  0  0
 11159  1  0  0  0  0
 14160  1  0  0  0  0
 19161  1  0  0  0  0
 20162  1  0  0  0  0
 23163  1  0  0  0  0
 23164  1  0  0  0  0
 24165  1  0  0  0  0
 24166  1  0  0  0  0
 24167  1  0  0  0  0
 26168  1  0  0  0  0
 30169  1  0  0  0  0
 34170  1  0  0  0  0
 38171  1  0  0  0  0
 39172  1  0  0  0  0
 42173  1  0  0  0  0
 42174  1  0  0  0  0
 43175  1  0  0  0  0
 43176  1  0  0  0  0
 43177  1  0  0  0  0
 46178  1  0  0  0  0
 51179  1  0  0  0  0
 52180  1  0  0  0  0
 55181  1  0  0  0  0
 55182  1  0  0  0  0
 56183  1  0  0  0  0
 56184  1  0  0  0  0
 56185  1  0  0  0  0
 58186  1  0  0  0  0
 62187  1  0  0  0  0
 66188  1  0  0  0  0
 70189  1  0  0  0  0
 71190  1  0  0  0  0
 74191  1  0  0  0  0
 74192  1  0  0  0  0
 75193  1  0  0  0  0
 75194  1  0  0  0  0
 75195  1  0  0  0  0
 78196  1  0  0  0  0
 83197  1  0  0  0  0
 84198  1  0  0  0  0
 87199  1  0  0  0  0
 87200  1  0  0  0  0
 88201  1  0  0  0  0
 88202  1  0  0  0  0
 88203  1  0  0  0  0
 90204  1  0  0  0  0
 94205  1  0  0  0  0
102206  1  0  0  0  0
103207  1  0  0  0  0
106208  1  0  0  0  0
107209  1  0  0  0  0
113210  1  0  0  0  0
114211  1  0  0  0  0
117212  1  0  0  0  0
118213  1  0  0  0  0
120214  1  0  0  0  0
124215  1  0  0  0  0
125216  1  0  0  0  0
128217  1  0  0  0  0
128218  1  0  0  0  0
129219  1  0  0  0  0
129220  1  0  0  0  0
129221  1  0  0  0  0
132222  1  0  0  0  0
137223  1  0  0  0  0
138224  1  0  0  0  0
141225  1  0  0  0  0
141226  1  0  0  0  0
142227  1  0  0  0  0
142228  1  0  0  0  0
142229  1  0  0  0  0
144230  1  0  0  0  0
148231  1  0  0  0  0
149232  1  0  0  0  0
M  END
