
  xtb     03042208393D
 energy: -415.353673983555 gnorm: 0.000519556032 xtb: 6.4.1 (unknown)
232253  0     0  0            999 V2000
   -3.3939   -2.4855    7.2270 C   0  0  0  0  0  0  0  0  0  0  0  0
   -2.1157   -2.4615    6.8007 C   0  0  0  0  0  0  0  0  0  0  0  0
   -1.9437   -3.0697    5.5215 C   0  0  0  0  0  0  0  0  0  0  0  0
   -0.7644   -3.1685    4.7677 C   0  0  0  0  0  0  0  0  0  0  0  0
    0.4680   -2.4787    5.1692 C   0  0  0  0  0  0  0  0  0  0  0  0
    0.4271   -1.1280    5.5074 C   0  0  0  0  0  0  0  0  0  0  0  0
    1.5772   -0.4292    5.8100 C   0  0  0  0  0  0  0  0  0  0  0  0
    2.8160   -1.0588    5.7952 C   0  0  0  0  0  0  0  0  0  0  0  0
    4.3408   -0.2544    6.1673 S   0  0  0  0  0  0  0  0  0  0  0  0
    4.0016    1.4989    5.7783 C   0  0  0  0  0  0  0  0  0  0  0  0
    3.7205    1.7102    4.3044 C   0  0  0  0  0  0  0  0  0  0  0  0
    2.8396   -2.4197    5.4933 C   0  0  0  0  0  0  0  0  0  0  0  0
    4.0183   -3.0752    5.5104 F   0  0  0  0  0  0  0  0  0  0  0  0
    1.7004   -3.1261    5.1737 C   0  0  0  0  0  0  0  0  0  0  0  0
   -0.8496   -3.8760    3.5773 C   0  0  0  0  0  0  0  0  0  0  0  0
   -2.0678   -4.4039    3.0838 C   0  0  0  0  0  0  0  0  0  0  0  0
   -3.2684   -4.2179    3.7888 C   0  0  0  0  0  0  0  0  0  0  0  0
   -4.5566   -4.5884    3.1964 C   0  0  0  0  0  0  0  0  0  0  0  0
   -4.8417   -4.2460    1.8720 C   0  0  0  0  0  0  0  0  0  0  0  0
   -6.0755   -4.5137    1.3273 C   0  0  0  0  0  0  0  0  0  0  0  0
   -7.0965   -5.1192    2.0673 C   0  0  0  0  0  0  0  0  0  0  0  0
   -8.6235   -5.2719    1.2051 S   0  0  0  0  0  0  0  0  0  0  0  0
   -9.9020   -5.7942    2.4076 C   0  0  0  0  0  0  0  0  0  0  0  0
  -10.0238   -7.3009    2.5191 C   0  0  0  0  0  0  0  0  0  0  0  0
   -6.7836   -5.4928    3.3706 C   0  0  0  0  0  0  0  0  0  0  0  0
   -5.5454   -5.2336    3.9289 C   0  0  0  0  0  0  0  0  0  0  0  0
   -7.6779   -6.1232    4.1648 F   0  0  0  0  0  0  0  0  0  0  0  0
   -3.1626   -3.5875    5.0207 C   0  0  0  0  0  0  0  0  0  0  0  0
   -4.4771   -3.2495    6.1156 S   0  0  0  0  0  0  0  0  0  0  0  0
   -1.8951   -5.0764    1.8508 C   0  0  0  0  0  0  0  0  0  0  0  0
   -0.6169   -5.0302    1.3767 C   0  0  0  0  0  0  0  0  0  0  0  0
    0.4583   -4.1650    2.4598 S   0  0  0  0  0  0  0  0  0  0  0  0
   -0.1354   -5.5736    0.1490 C   0  0  0  0  0  0  0  0  0  0  0  0
    1.5513   -5.6259   -0.2293 S   0  0  0  0  0  0  0  0  0  0  0  0
    1.2271   -6.3234   -1.7772 C   0  0  0  0  0  0  0  0  0  0  0  0
    2.3335   -6.6470   -2.6639 C   0  0  0  0  0  0  0  0  0  0  0  0
    3.4987   -6.4664   -2.4113 O   0  0  0  0  0  0  0  0  0  0  0  0
    1.9177   -7.1804   -3.8289 O   0  0  0  0  0  0  0  0  0  0  0  0
   -0.1178   -6.5119   -1.9864 C   0  0  0  0  0  0  0  0  0  0  0  0
   -0.8954   -6.0919   -0.8984 C   0  0  0  0  0  0  0  0  0  0  0  0
   -2.2573   -6.1800   -0.8324 O   0  0  0  0  0  0  0  0  0  0  0  0
   -2.9694   -5.8949   -1.9463 C   0  0  0  0  0  0  0  0  0  0  0  0
   -4.2826   -6.1566   -2.0314 C   0  0  0  0  0  0  0  0  0  0  0  0
   -5.0571   -6.8115   -1.0235 C   0  0  0  0  0  0  0  0  0  0  0  0
   -4.3681   -7.4489    0.4260 S   0  0  0  0  0  0  0  0  0  0  0  0
   -5.9150   -8.0081    0.9647 C   0  0  0  0  0  0  0  0  0  0  0  0
   -6.0825   -8.6347    2.2627 C   0  0  0  0  0  0  0  0  0  0  0  0
   -7.1267   -9.0678    2.6882 O   0  0  0  0  0  0  0  0  0  0  0  0
   -4.9399   -8.6708    2.9709 O   0  0  0  0  0  0  0  0  0  0  0  0
   -6.9097   -7.7275    0.0590 C   0  0  0  0  0  0  0  0  0  0  0  0
   -6.4295   -7.0355   -1.0586 C   0  0  0  0  0  0  0  0  0  0  0  0
   -7.2379   -6.4751   -2.0179 O   0  0  0  0  0  0  0  0  0  0  0  0
   -7.2982   -7.0265   -3.2613 C   0  0  0  0  0  0  0  0  0  0  0  0
   -7.2428   -6.2748   -4.3690 C   0  0  0  0  0  0  0  0  0  0  0  0
   -6.8923   -4.8796   -4.3548 C   0  0  0  0  0  0  0  0  0  0  0  0
   -6.9076   -4.0074   -3.3086 C   0  0  0  0  0  0  0  0  0  0  0  0
   -6.2019   -2.8014   -3.5584 C   0  0  0  0  0  0  0  0  0  0  0  0
   -5.8821   -1.7911   -2.6337 C   0  0  0  0  0  0  0  0  0  0  0  0
   -6.4994   -1.7550   -1.3026 C   0  0  0  0  0  0  0  0  0  0  0  0
   -7.8731   -1.9648   -1.1548 C   0  0  0  0  0  0  0  0  0  0  0  0
   -8.4598   -1.9511    0.0898 C   0  0  0  0  0  0  0  0  0  0  0  0
   -7.7204   -1.7034    1.2489 C   0  0  0  0  0  0  0  0  0  0  0  0
   -8.6308   -1.7432    2.7589 S   0  0  0  0  0  0  0  0  0  0  0  0
   -7.4288   -2.0416    4.1101 C   0  0  0  0  0  0  0  0  0  0  0  0
   -7.0354   -0.7666    4.8280 C   0  0  0  0  0  0  0  0  0  0  0  0
   -6.3654   -1.4431    1.0828 C   0  0  0  0  0  0  0  0  0  0  0  0
   -5.5746   -1.1248    2.1332 F   0  0  0  0  0  0  0  0  0  0  0  0
   -5.7573   -1.4920   -0.1562 C   0  0  0  0  0  0  0  0  0  0  0  0
   -4.9254   -0.8733   -3.0459 C   0  0  0  0  0  0  0  0  0  0  0  0
   -4.3475   -0.8588   -4.3414 C   0  0  0  0  0  0  0  0  0  0  0  0
   -4.7509   -1.8094   -5.2931 C   0  0  0  0  0  0  0  0  0  0  0  0
   -4.1936   -1.8501   -6.6512 C   0  0  0  0  0  0  0  0  0  0  0  0
   -2.8210   -1.8977   -6.8733 C   0  0  0  0  0  0  0  0  0  0  0  0
   -2.3049   -1.9483   -8.1539 C   0  0  0  0  0  0  0  0  0  0  0  0
   -3.1453   -1.9425   -9.2611 C   0  0  0  0  0  0  0  0  0  0  0  0
   -2.6243   -2.0079  -10.9424 S   0  0  0  0  0  0  0  0  0  0  0  0
   -0.8453   -1.6007  -10.8755 C   0  0  0  0  0  0  0  0  0  0  0  0
   -0.5986   -0.1495  -10.5096 C   0  0  0  0  0  0  0  0  0  0  0  0
   -4.5210   -1.9160   -9.0222 C   0  0  0  0  0  0  0  0  0  0  0  0
   -5.0479   -1.8761   -7.7515 C   0  0  0  0  0  0  0  0  0  0  0  0
   -5.3659   -1.9243  -10.0717 F   0  0  0  0  0  0  0  0  0  0  0  0
   -5.6520   -2.7726   -4.8632 C   0  0  0  0  0  0  0  0  0  0  0  0
   -6.0970   -4.1983   -5.7672 S   0  0  0  0  0  0  0  0  0  0  0  0
   -3.3120    0.1102   -4.4564 C   0  0  0  0  0  0  0  0  0  0  0  0
   -3.0544    0.7652   -3.2911 C   0  0  0  0  0  0  0  0  0  0  0  0
   -4.2010    0.3415   -2.0308 S   0  0  0  0  0  0  0  0  0  0  0  0
   -1.8826    1.4717   -2.8743 C   0  0  0  0  0  0  0  0  0  0  0  0
   -1.4423    1.4523   -1.5854 C   0  0  0  0  0  0  0  0  0  0  0  0
   -0.1294    1.9452   -1.4159 C   0  0  0  0  0  0  0  0  0  0  0  0
    0.6392    1.9008   -0.2414 C   0  0  0  0  0  0  0  0  0  0  0  0
    0.0283    1.3083    0.9576 C   0  0  0  0  0  0  0  0  0  0  0  0
   -0.1449    2.0385    2.1282 C   0  0  0  0  0  0  0  0  0  0  0  0
   -0.9516    1.5603    3.1438 C   0  0  0  0  0  0  0  0  0  0  0  0
   -1.6158    0.3446    3.0196 C   0  0  0  0  0  0  0  0  0  0  0  0
   -2.8033   -0.2603    4.1774 S   0  0  0  0  0  0  0  0  0  0  0  0
   -3.5866    1.2754    4.7857 C   0  0  0  0  0  0  0  0  0  0  0  0
   -4.2429    2.0619    3.6686 C   0  0  0  0  0  0  0  0  0  0  0  0
   -1.3343   -0.4292    1.8955 C   0  0  0  0  0  0  0  0  0  0  0  0
   -1.9100   -1.6404    1.7565 F   0  0  0  0  0  0  0  0  0  0  0  0
   -0.5299    0.0328    0.8786 C   0  0  0  0  0  0  0  0  0  0  0  0
    1.9112    2.4347   -0.3203 C   0  0  0  0  0  0  0  0  0  0  0  0
    2.4299    3.0096   -1.5102 C   0  0  0  0  0  0  0  0  0  0  0  0
    1.6686    3.0186   -2.6939 C   0  0  0  0  0  0  0  0  0  0  0  0
    2.1918    3.6020   -3.9348 C   0  0  0  0  0  0  0  0  0  0  0  0
    1.4407    4.5353   -4.6433 C   0  0  0  0  0  0  0  0  0  0  0  0
    1.9316    5.1311   -5.7889 C   0  0  0  0  0  0  0  0  0  0  0  0
    3.1967    4.8112   -6.2689 C   0  0  0  0  0  0  0  0  0  0  0  0
    3.9495    5.5076   -7.6987 S   0  0  0  0  0  0  0  0  0  0  0  0
    2.8313    6.8925   -8.1355 C   0  0  0  0  0  0  0  0  0  0  0  0
    3.4926    7.7240   -9.2184 C   0  0  0  0  0  0  0  0  0  0  0  0
    3.9281    3.8521   -5.5646 C   0  0  0  0  0  0  0  0  0  0  0  0
    3.4508    3.2529   -4.4215 C   0  0  0  0  0  0  0  0  0  0  0  0
    5.1508    3.5035   -6.0145 F   0  0  0  0  0  0  0  0  0  0  0  0
    0.4003    2.4622   -2.6207 C   0  0  0  0  0  0  0  0  0  0  0  0
   -0.7155    2.2153   -3.9510 S   0  0  0  0  0  0  0  0  0  0  0  0
    3.7399    3.5154   -1.3117 C   0  0  0  0  0  0  0  0  0  0  0  0
    4.2314    3.2924   -0.0597 C   0  0  0  0  0  0  0  0  0  0  0  0
    3.0806    2.4657    0.9694 S   0  0  0  0  0  0  0  0  0  0  0  0
    5.5173    3.6698    0.4399 C   0  0  0  0  0  0  0  0  0  0  0  0
    6.3469    4.6210   -0.0712 C   0  0  0  0  0  0  0  0  0  0  0  0
    7.5448    4.7905    0.6700 C   0  0  0  0  0  0  0  0  0  0  0  0
    8.6005    5.6756    0.4007 C   0  0  0  0  0  0  0  0  0  0  0  0
    8.5531    6.5742   -0.7588 C   0  0  0  0  0  0  0  0  0  0  0  0
    9.5992    6.6071   -1.6789 C   0  0  0  0  0  0  0  0  0  0  0  0
    9.5108    7.3837   -2.8149 C   0  0  0  0  0  0  0  0  0  0  0  0
    8.3872    8.1651   -3.0702 C   0  0  0  0  0  0  0  0  0  0  0  0
    8.3469    9.1108   -4.5668 S   0  0  0  0  0  0  0  0  0  0  0  0
    6.6688    8.7578   -5.2148 C   0  0  0  0  0  0  0  0  0  0  0  0
    6.4364    7.2738   -5.4131 C   0  0  0  0  0  0  0  0  0  0  0  0
    7.3795    8.1736   -2.1110 C   0  0  0  0  0  0  0  0  0  0  0  0
    6.2865    8.9548   -2.2644 F   0  0  0  0  0  0  0  0  0  0  0  0
    7.4444    7.3860   -0.9802 C   0  0  0  0  0  0  0  0  0  0  0  0
    9.6816    5.6315    1.2684 C   0  0  0  0  0  0  0  0  0  0  0  0
    9.7681    4.7257    2.3530 C   0  0  0  0  0  0  0  0  0  0  0  0
    8.7418    3.7936    2.5842 C   0  0  0  0  0  0  0  0  0  0  0  0
    8.8857    2.7241    3.5771 C   0  0  0  0  0  0  0  0  0  0  0  0
    7.8417    2.3343    4.4133 C   0  0  0  0  0  0  0  0  0  0  0  0
    7.9829    1.2707    5.2829 C   0  0  0  0  0  0  0  0  0  0  0  0
    9.1748    0.5575    5.3549 C   0  0  0  0  0  0  0  0  0  0  0  0
    9.4536   -0.8016    6.4410 S   0  0  0  0  0  0  0  0  0  0  0  0
    7.8107   -1.5974    6.5288 C   0  0  0  0  0  0  0  0  0  0  0  0
    7.3519   -2.0946    5.1740 C   0  0  0  0  0  0  0  0  0  0  0  0
   10.2208    0.9720    4.5302 C   0  0  0  0  0  0  0  0  0  0  0  0
   10.0891    2.0213    3.6495 C   0  0  0  0  0  0  0  0  0  0  0  0
   11.3972    0.3168    4.5714 F   0  0  0  0  0  0  0  0  0  0  0  0
    7.6272    3.8886    1.7596 C   0  0  0  0  0  0  0  0  0  0  0  0
    6.1942    2.8987    1.8578 S   0  0  0  0  0  0  0  0  0  0  0  0
   10.9525    4.9453    3.1189 C   0  0  0  0  0  0  0  0  0  0  0  0
   11.7179    5.9424    2.6316 C   0  0  0  0  0  0  0  0  0  0  0  0
   11.0698    6.6861    1.2102 S   0  0  0  0  0  0  0  0  0  0  0  0
   -3.7900   -2.1062    8.1489 H   0  0  0  0  0  0  0  0  0  0  0  0
   -1.3040   -2.0445    7.3685 H   0  0  0  0  0  0  0  0  0  0  0  0
   -0.5204   -0.6138    5.5093 H   0  0  0  0  0  0  0  0  0  0  0  0
    1.5019    0.6163    6.0627 H   0  0  0  0  0  0  0  0  0  0  0  0
    4.9162    2.0103    6.0780 H   0  0  0  0  0  0  0  0  0  0  0  0
    3.1899    1.8502    6.4143 H   0  0  0  0  0  0  0  0  0  0  0  0
    3.6000    2.7713    4.0970 H   0  0  0  0  0  0  0  0  0  0  0  0
    2.8132    1.1941    3.9970 H   0  0  0  0  0  0  0  0  0  0  0  0
    4.5466    1.3351    3.7054 H   0  0  0  0  0  0  0  0  0  0  0  0
    1.7840   -4.1764    4.9441 H   0  0  0  0  0  0  0  0  0  0  0  0
   -4.1006   -3.7249    1.2872 H   0  0  0  0  0  0  0  0  0  0  0  0
   -6.2909   -4.2407    0.3054 H   0  0  0  0  0  0  0  0  0  0  0  0
  -10.8167   -5.3580    2.0033 H   0  0  0  0  0  0  0  0  0  0  0  0
   -9.6839   -5.3208    3.3606 H   0  0  0  0  0  0  0  0  0  0  0  0
  -10.7886   -7.5484    3.2521 H   0  0  0  0  0  0  0  0  0  0  0  0
  -10.3125   -7.7287    1.5612 H   0  0  0  0  0  0  0  0  0  0  0  0
   -9.0881   -7.7564    2.8337 H   0  0  0  0  0  0  0  0  0  0  0  0
   -5.3702   -5.5550    4.9437 H   0  0  0  0  0  0  0  0  0  0  0  0
   -2.6840   -5.6027    1.3507 H   0  0  0  0  0  0  0  0  0  0  0  0
    2.6891   -7.3879   -4.3790 H   0  0  0  0  0  0  0  0  0  0  0  0
   -0.5128   -6.9544   -2.8831 H   0  0  0  0  0  0  0  0  0  0  0  0
   -2.4395   -5.4133   -2.7589 H   0  0  0  0  0  0  0  0  0  0  0  0
   -4.8081   -5.8496   -2.9212 H   0  0  0  0  0  0  0  0  0  0  0  0
   -5.1014   -9.0869    3.8315 H   0  0  0  0  0  0  0  0  0  0  0  0
   -7.9390   -7.9921    0.2125 H   0  0  0  0  0  0  0  0  0  0  0  0
   -7.4233   -8.1034   -3.3072 H   0  0  0  0  0  0  0  0  0  0  0  0
   -7.3499   -6.7519   -5.3302 H   0  0  0  0  0  0  0  0  0  0  0  0
   -7.3655   -4.2384   -2.3660 H   0  0  0  0  0  0  0  0  0  0  0  0
   -8.4843   -2.1324   -2.0278 H   0  0  0  0  0  0  0  0  0  0  0  0
   -9.5171   -2.1370    0.1940 H   0  0  0  0  0  0  0  0  0  0  0  0
   -6.5681   -2.5592    3.6957 H   0  0  0  0  0  0  0  0  0  0  0  0
   -7.9531   -2.7174    4.7865 H   0  0  0  0  0  0  0  0  0  0  0  0
   -7.9146   -0.2669    5.2287 H   0  0  0  0  0  0  0  0  0  0  0  0
   -6.5259   -0.0882    4.1502 H   0  0  0  0  0  0  0  0  0  0  0  0
   -6.3627   -1.0114    5.6474 H   0  0  0  0  0  0  0  0  0  0  0  0
   -4.6904   -1.3426   -0.1941 H   0  0  0  0  0  0  0  0  0  0  0  0
   -2.1445   -1.9258   -6.0322 H   0  0  0  0  0  0  0  0  0  0  0  0
   -1.2358   -2.0029   -8.2803 H   0  0  0  0  0  0  0  0  0  0  0  0
   -0.3519   -2.2932  -10.1947 H   0  0  0  0  0  0  0  0  0  0  0  0
   -0.5008   -1.8082  -11.8885 H   0  0  0  0  0  0  0  0  0  0  0  0
    0.4697    0.0584  -10.5193 H   0  0  0  0  0  0  0  0  0  0  0  0
   -0.9874    0.0767   -9.5189 H   0  0  0  0  0  0  0  0  0  0  0  0
   -1.0875    0.5053  -11.2269 H   0  0  0  0  0  0  0  0  0  0  0  0
   -6.1187   -1.8467   -7.6259 H   0  0  0  0  0  0  0  0  0  0  0  0
   -2.7344    0.2639   -5.3499 H   0  0  0  0  0  0  0  0  0  0  0  0
   -2.0321    1.0509   -0.7825 H   0  0  0  0  0  0  0  0  0  0  0  0
    0.3164    3.0097    2.2248 H   0  0  0  0  0  0  0  0  0  0  0  0
   -1.0947    2.1607    4.0285 H   0  0  0  0  0  0  0  0  0  0  0  0
   -4.3288    0.9087    5.4946 H   0  0  0  0  0  0  0  0  0  0  0  0
   -2.8484    1.8653    5.3282 H   0  0  0  0  0  0  0  0  0  0  0  0
   -3.4982    2.4566    2.9800 H   0  0  0  0  0  0  0  0  0  0  0  0
   -4.9201    1.4219    3.1080 H   0  0  0  0  0  0  0  0  0  0  0  0
   -4.8086    2.8936    4.0835 H   0  0  0  0  0  0  0  0  0  0  0  0
   -0.3657   -0.5898    0.0126 H   0  0  0  0  0  0  0  0  0  0  0  0
    0.4636    4.8174   -4.2823 H   0  0  0  0  0  0  0  0  0  0  0  0
    1.3188    5.8511   -6.3059 H   0  0  0  0  0  0  0  0  0  0  0  0
    1.8890    6.4723   -8.4876 H   0  0  0  0  0  0  0  0  0  0  0  0
    2.6665    7.4849   -7.2352 H   0  0  0  0  0  0  0  0  0  0  0  0
    4.4427    8.1203   -8.8674 H   0  0  0  0  0  0  0  0  0  0  0  0
    2.8465    8.5552   -9.4922 H   0  0  0  0  0  0  0  0  0  0  0  0
    3.6780    7.1197  -10.1032 H   0  0  0  0  0  0  0  0  0  0  0  0
    4.0528    2.5053   -3.9291 H   0  0  0  0  0  0  0  0  0  0  0  0
    4.3013    4.0181   -2.0772 H   0  0  0  0  0  0  0  0  0  0  0  0
    6.1102    5.1918   -0.9497 H   0  0  0  0  0  0  0  0  0  0  0  0
   10.4696    5.9898   -1.5200 H   0  0  0  0  0  0  0  0  0  0  0  0
   10.3105    7.3863   -3.5387 H   0  0  0  0  0  0  0  0  0  0  0  0
    5.9334    9.2015   -4.5467 H   0  0  0  0  0  0  0  0  0  0  0  0
    6.6511    9.2900   -6.1658 H   0  0  0  0  0  0  0  0  0  0  0  0
    5.4627    7.1102   -5.8692 H   0  0  0  0  0  0  0  0  0  0  0  0
    7.1965    6.8476   -6.0637 H   0  0  0  0  0  0  0  0  0  0  0  0
    6.4625    6.7440   -4.4622 H   0  0  0  0  0  0  0  0  0  0  0  0
    6.6380    7.4342   -0.2644 H   0  0  0  0  0  0  0  0  0  0  0  0
    6.9127    2.8837    4.4002 H   0  0  0  0  0  0  0  0  0  0  0  0
    7.1571    0.9885    5.9164 H   0  0  0  0  0  0  0  0  0  0  0  0
    7.9692   -2.4265    7.2177 H   0  0  0  0  0  0  0  0  0  0  0  0
    7.0969   -0.9062    6.9737 H   0  0  0  0  0  0  0  0  0  0  0  0
    6.4059   -2.6173    5.2809 H   0  0  0  0  0  0  0  0  0  0  0  0
    7.2116   -1.2647    4.4843 H   0  0  0  0  0  0  0  0  0  0  0  0
    8.0858   -2.7773    4.7521 H   0  0  0  0  0  0  0  0  0  0  0  0
   10.9134    2.2605    2.9962 H   0  0  0  0  0  0  0  0  0  0  0  0
   11.1923    4.3956    4.0106 H   0  0  0  0  0  0  0  0  0  0  0  0
   12.6482    6.3077    3.0206 H   0  0  0  0  0  0  0  0  0  0  0  0
  1  2  2  0  0  0  0
  2  3  1  0  0  0  0
  3  4  2  0  0  0  0
  4  5  1  0  0  0  0
  5  6  2  0  0  0  0
  6  7  1  0  0  0  0
  7  8  2  0  0  0  0
  8  9  1  0  0  0  0
  9 10  1  0  0  0  0
 10 11  1  0  0  0  0
  8 12  1  0  0  0  0
 12 13  1  0  0  0  0
 12 14  2  0  0  0  0
  4 15  1  0  0  0  0
 15 16  2  0  0  0  0
 16 17  1  0  0  0  0
 17 18  1  0  0  0  0
 18 19  2  0  0  0  0
 19 20  1  0  0  0  0
 20 21  2  0  0  0  0
 21 22  1  0  0  0  0
 22 23  1  0  0  0  0
 23 24  1  0  0  0  0
 21 25  1  0  0  0  0
 25 26  2  0  0  0  0
 25 27  1  0  0  0  0
 17 28  2  0  0  0  0
 28 29  1  0  0  0  0
 16 30  1  0  0  0  0
 30 31  2  0  0  0  0
 31 32  1  0  0  0  0
 31 33  1  0  0  0  0
 33 34  1  0  0  0  0
 34 35  1  0  0  0  0
 35 36  1  0  0  0  0
 36 37  2  0  0  0  0
 36 38  1  0  0  0  0
 35 39  2  0  0  0  0
 39 40  1  0  0  0  0
 40 41  1  0  0  0  0
 41 42  1  0  0  0  0
 42 43  2  0  0  0  0
 43 44  1  0  0  0  0
 44 45  1  0  0  0  0
 45 46  1  0  0  0  0
 46 47  1  0  0  0  0
 47 48  2  0  0  0  0
 47 49  1  0  0  0  0
 46 50  2  0  0  0  0
 50 51  1  0  0  0  0
 51 52  1  0  0  0  0
 52 53  1  0  0  0  0
 53 54  2  0  0  0  0
 54 55  1  0  0  0  0
 55 56  2  0  0  0  0
 56 57  1  0  0  0  0
 57 58  2  0  0  0  0
 58 59  1  0  0  0  0
 59 60  2  0  0  0  0
 60 61  1  0  0  0  0
 61 62  2  0  0  0  0
 62 63  1  0  0  0  0
 63 64  1  0  0  0  0
 64 65  1  0  0  0  0
 62 66  1  0  0  0  0
 66 67  1  0  0  0  0
 66 68  2  0  0  0  0
 58 69  1  0  0  0  0
 69 70  2  0  0  0  0
 70 71  1  0  0  0  0
 71 72  1  0  0  0  0
 72 73  2  0  0  0  0
 73 74  1  0  0  0  0
 74 75  2  0  0  0  0
 75 76  1  0  0  0  0
 76 77  1  0  0  0  0
 77 78  1  0  0  0  0
 75 79  1  0  0  0  0
 79 80  2  0  0  0  0
 79 81  1  0  0  0  0
 71 82  2  0  0  0  0
 82 83  1  0  0  0  0
 70 84  1  0  0  0  0
 84 85  2  0  0  0  0
 85 86  1  0  0  0  0
 85 87  1  0  0  0  0
 87 88  2  0  0  0  0
 88 89  1  0  0  0  0
 89 90  2  0  0  0  0
 90 91  1  0  0  0  0
 91 92  2  0  0  0  0
 92 93  1  0  0  0  0
 93 94  2  0  0  0  0
 94 95  1  0  0  0  0
 95 96  1  0  0  0  0
 96 97  1  0  0  0  0
 94 98  1  0  0  0  0
 98 99  1  0  0  0  0
 98100  2  0  0  0  0
 90101  1  0  0  0  0
101102  2  0  0  0  0
102103  1  0  0  0  0
103104  1  0  0  0  0
104105  2  0  0  0  0
105106  1  0  0  0  0
106107  2  0  0  0  0
107108  1  0  0  0  0
108109  1  0  0  0  0
109110  1  0  0  0  0
107111  1  0  0  0  0
111112  2  0  0  0  0
111113  1  0  0  0  0
103114  2  0  0  0  0
114115  1  0  0  0  0
102116  1  0  0  0  0
116117  2  0  0  0  0
117118  1  0  0  0  0
117119  1  0  0  0  0
119120  2  0  0  0  0
120121  1  0  0  0  0
121122  2  0  0  0  0
122123  1  0  0  0  0
123124  2  0  0  0  0
124125  1  0  0  0  0
125126  2  0  0  0  0
126127  1  0  0  0  0
127128  1  0  0  0  0
128129  1  0  0  0  0
126130  1  0  0  0  0
130131  1  0  0  0  0
130132  2  0  0  0  0
122133  1  0  0  0  0
133134  2  0  0  0  0
134135  1  0  0  0  0
135136  1  0  0  0  0
136137  2  0  0  0  0
137138  1  0  0  0  0
138139  2  0  0  0  0
139140  1  0  0  0  0
140141  1  0  0  0  0
141142  1  0  0  0  0
139143  1  0  0  0  0
143144  2  0  0  0  0
143145  1  0  0  0  0
135146  2  0  0  0  0
146147  1  0  0  0  0
134148  1  0  0  0  0
148149  2  0  0  0  0
149150  1  0  0  0  0
 29  1  1  0  0  0  0
 40 33  2  0  0  0  0
 51 44  2  0  0  0  0
 83 55  1  0  0  0  0
115 87  1  0  0  0  0
147119  1  0  0  0  0
 28  3  1  0  0  0  0
 82 57  1  0  0  0  0
114 89  1  0  0  0  0
146121  1  0  0  0  0
 14  5  1  0  0  0  0
 32 15  1  0  0  0  0
 68 59  1  0  0  0  0
 86 69  1  0  0  0  0
100 91  1  0  0  0  0
118101  1  0  0  0  0
132123  1  0  0  0  0
150133  1  0  0  0  0
 26 18  1  0  0  0  0
 80 72  1  0  0  0  0
112104  1  0  0  0  0
144136  1  0  0  0  0
  1151  1  0  0  0  0
  2152  1  0  0  0  0
  6153  1  0  0  0  0
  7154  1  0  0  0  0
 10155  1  0  0  0  0
 10156  1  0  0  0  0
 11157  1  0  0  0  0
 11158  1  0  0  0  0
 11159  1  0  0  0  0
 14160  1  0  0  0  0
 19161  1  0  0  0  0
 20162  1  0  0  0  0
 23163  1  0  0  0  0
 23164  1  0  0  0  0
 24165  1  0  0  0  0
 24166  1  0  0  0  0
 24167  1  0  0  0  0
 26168  1  0  0  0  0
 30169  1  0  0  0  0
 38170  1  0  0  0  0
 39171  1  0  0  0  0
 42172  1  0  0  0  0
 43173  1  0  0  0  0
 49174  1  0  0  0  0
 50175  1  0  0  0  0
 53176  1  0  0  0  0
 54177  1  0  0  0  0
 56178  1  0  0  0  0
 60179  1  0  0  0  0
 61180  1  0  0  0  0
 64181  1  0  0  0  0
 64182  1  0  0  0  0
 65183  1  0  0  0  0
 65184  1  0  0  0  0
 65185  1  0  0  0  0
 68186  1  0  0  0  0
 73187  1  0  0  0  0
 74188  1  0  0  0  0
 77189  1  0  0  0  0
 77190  1  0  0  0  0
 78191  1  0  0  0  0
 78192  1  0  0  0  0
 78193  1  0  0  0  0
 80194  1  0  0  0  0
 84195  1  0  0  0  0
 88196  1  0  0  0  0
 92197  1  0  0  0  0
 93198  1  0  0  0  0
 96199  1  0  0  0  0
 96200  1  0  0  0  0
 97201  1  0  0  0  0
 97202  1  0  0  0  0
 97203  1  0  0  0  0
100204  1  0  0  0  0
105205  1  0  0  0  0
106206  1  0  0  0  0
109207  1  0  0  0  0
109208  1  0  0  0  0
110209  1  0  0  0  0
110210  1  0  0  0  0
110211  1  0  0  0  0
112212  1  0  0  0  0
116213  1  0  0  0  0
120214  1  0  0  0  0
124215  1  0  0  0  0
125216  1  0  0  0  0
128217  1  0  0  0  0
128218  1  0  0  0  0
129219  1  0  0  0  0
129220  1  0  0  0  0
129221  1  0  0  0  0
132222  1  0  0  0  0
137223  1  0  0  0  0
138224  1  0  0  0  0
141225  1  0  0  0  0
141226  1  0  0  0  0
142227  1  0  0  0  0
142228  1  0  0  0  0
142229  1  0  0  0  0
144230  1  0  0  0  0
148231  1  0  0  0  0
149232  1  0  0  0  0
M  END
