203

C         12.94280       -9.28170       20.56450
C         12.51930       -7.98210       20.32070
C         11.98180       -7.68040       19.08760
C         11.86560       -8.67120       18.09900
C         12.29000       -9.96720       18.34780
C         12.82910      -10.26120       19.58900
C         11.27260       -8.07340       16.91760
C         11.02560       -6.71570       17.18000
C         11.45680       -6.37040       18.57550
C         10.46400       -5.90650       16.22270
C         10.13340       -6.44110       14.97110
C         10.38090       -7.79700       14.72220
C         10.94640       -8.61240       15.68190
C          9.53920       -5.59670       13.95750
C          9.22790       -5.89730       12.66730
C          8.63940       -4.82510       11.94520
C          8.24880       -4.81040       10.59710
C          8.32170       -6.01330        9.75780
C          7.72310       -7.21220       10.20430
C          7.75880       -8.33720        9.43370
C          8.39420       -8.33410        8.17370
C          8.44760       -9.47960        7.35420
C          9.06670       -9.43780        6.13610
C          9.66010       -8.24890        5.68290
C          9.62590       -7.12170        6.45470
C          8.99440       -7.13180        7.71620
C          8.94080       -5.98560        8.53190
C          7.76750       -3.60730       10.10570
C          7.63660       -2.43680       10.89090
C          8.02710       -2.45020       12.24450
C          7.94850       -1.28140       13.09500
C          7.61230       -1.21870       14.41900
C          7.71270        0.06970       14.97200
C          8.14100        1.00270       14.07300
S          8.29600        2.71410       14.38830
C          9.55700        3.20060       13.15590
C         10.92640        2.64580       13.49270
S          8.39790        0.29820       12.50450
C          8.51700       -3.65840       12.73440
S          9.11210       -3.93720       14.34660
C          7.04600       -1.37850       10.15440
C          6.74450       -1.69130        8.86320
S          7.18500       -3.34750        8.48500
C          6.13030       -0.85740        7.85350
C          5.79740       -1.39750        6.60430
C          5.19430       -0.60280        5.66020
C          4.90810        0.74520        5.93420
C          5.24500        1.29230        7.16370
C          5.85210        0.49160        8.10940
C          4.25790        1.32310        4.77610
C          4.14360        0.33260        3.78660
C          4.74030       -0.95690        4.27350
C          3.54280        0.61060        2.58030
C          3.04380        1.89420        2.34180
C          3.16890        2.87230        3.33120
C          3.76970        2.60000        4.54500
C          2.36820        2.21380        1.07760
C          1.49840        1.29020        0.49050
C          0.83010        1.63010       -0.66310
C          1.01640        2.89030       -1.25450
C          1.89880        3.80090       -0.69370
C          2.56430        3.45420        0.46640
C          0.15010        2.98970       -2.41130
C         -0.56370        1.78590       -2.54130
C         -0.16790        0.83080       -1.45150
C         -1.49200        1.62110       -3.54120
C         -1.73370        2.67740       -4.42990
C         -1.01630        3.87000       -4.29060
C         -0.07380        4.03370       -3.29630
C         -2.74170        2.55530       -5.46170
C         -3.29690        1.42670       -5.98170
C         -4.29840        1.67170       -6.95920
C         -5.03800        0.73190       -7.69660
C         -4.89390       -0.71310       -7.47780
C         -4.99220       -1.23820       -6.17030
C         -4.87700       -2.57920       -5.94830
C         -4.65910       -3.47600       -7.01590
C         -4.53480       -4.86620       -6.81890
C         -4.33450       -5.70580       -7.87890
C         -4.25040       -5.19340       -9.18330
C         -4.36450       -3.85010       -9.40670
C         -4.57050       -2.95710       -8.33410
C         -4.69160       -1.56880       -8.53330
C         -5.93710        1.23740       -8.62370
C         -6.13960        2.62310       -8.82840
C         -5.37870        3.56600       -8.11150
C         -5.54900        4.98290       -8.36140
C         -5.65010        5.60450       -9.57480
C         -5.84470        6.99420       -9.48610
C         -5.91140        7.43220       -8.19510
S         -6.16510        9.05060       -7.58070
C         -7.14130        9.80820       -8.93180
C         -8.48920        9.14050       -9.11810
S         -5.70650        6.13430       -7.06180
C         -4.48410        3.05820       -7.17930
S         -3.42580        4.00460       -6.17540
C         -7.19070        2.87490       -9.74090
C         -7.76490        1.74450      -10.24500
S         -7.01990        0.29060       -9.61560
C         -8.85990        1.69720      -11.16110
C         -9.60760        2.75800      -11.57870
C        -10.64850        2.40570      -12.47310
C        -11.57290        3.26730      -13.08360
C        -11.59460        4.70040      -12.76280
C        -11.64520        5.10590      -11.40990
C        -11.64090        6.42840      -11.07720
C        -11.58810        7.42600      -12.07380
C        -11.57230        8.80030      -11.76130
C        -11.52690        9.74050      -12.75260
C        -11.49830        9.34800      -14.10020
C        -11.51370        8.02300      -14.43500
C        -11.55730        7.02780      -13.43600
C        -11.56340        5.65480      -13.75010
C        -12.46410        2.68540      -13.97180
C        -12.48160        1.30030      -14.26150
C        -11.54030        0.43940      -13.66410
C        -11.48460       -0.96610      -14.00240
C        -11.63650       -1.55370      -15.22860
C        -11.49850       -2.95150      -15.20940
C        -11.23890       -3.44070      -13.96000
S        -10.96240       -5.12390      -13.58670
C        -10.81980       -5.10640      -11.76540
C        -12.16900       -5.00220      -11.08200
S        -11.15290       -2.16780      -12.78330
C        -10.65640        1.02010      -12.75840
S         -9.39950        0.19270      -11.87390
C        -13.55990        0.96680      -15.13390
C        -14.29650        2.03630      -15.49700
S        -13.74160        3.52560      -14.81370
H         13.36640       -9.53330       21.52580
H         12.61100       -7.22400       21.08520
H         12.20290      -10.73190       17.59030
H         13.16590      -11.26530       19.80190
H         12.22650       -5.59470       18.58100
H         10.62110       -6.00540       19.17760
H         10.27570       -4.86120       16.42390
H         10.12150       -8.21630       13.76270
H         11.12880       -9.65540       15.46980
H          9.42850       -6.84920       12.21070
H          7.21400       -7.21660       11.15750
H          7.29240       -9.24990        9.77770
H          7.98850      -10.39240        7.70720
H          9.10380      -10.31920        5.51260
H         10.14430       -8.23430        4.71730
H         10.07970       -6.20340        6.11030
H          9.41390       -5.07860        8.18350
H          7.27820       -2.07250       14.98000
H          7.48630        0.30770       15.99490
H          9.20970        2.86100       12.18000
H          9.55270        4.28970       13.18090
H         10.91080        1.55790       13.49560
H         11.65030        2.97780       12.75140
H         11.24510        2.99090       14.47360
H          6.82910       -0.42100       10.58890
H          6.01260       -2.43650        6.39730
H          5.03480        2.32860        7.38200
H          6.11770        0.91670        9.06440
H          5.57470       -1.27960        3.64590
H          4.00640       -1.76640        4.28280
H          3.47040       -0.14790        1.81400
H          2.76080        3.85590        3.15000
H          3.84920        3.36690        5.30100
H          1.33000        0.33270        0.96210
H          2.05940        4.76650       -1.14980
H          3.26230        4.15110        0.90660
H         -1.02490        0.53590       -0.84120
H          0.27570       -0.08250       -1.85610
H         -2.05130        0.70150       -3.62680
H         -1.21220        4.67730       -4.98160
H          0.46890        4.96230       -3.20470
H         -2.98480        0.43470       -5.70960
H         -5.18690       -0.56150       -5.35070
H         -4.95890       -2.97610       -4.94600
H         -4.60180       -5.25610       -5.81290
H         -4.24010       -6.77030       -7.72120
H         -4.09410       -5.87230      -10.00900
H         -4.30200       -3.45020      -10.40860
H         -4.60420       -1.18000       -9.53780
H         -5.54510        5.08480      -10.51070
H         -5.92500        7.63320      -10.34660
H         -7.25570       10.84500       -8.61720
H         -6.54130        9.78010       -9.84030
H         -8.36790        8.09340       -9.38850
H         -9.04010        9.63910       -9.91340
H         -9.06800        9.19600       -8.19900
H         -7.52340        3.86390       -9.99350
H         -9.42390        3.76930      -11.26690
H        -11.70850        4.34860      -10.64180
H        -11.68140        6.73160      -10.04030
H        -11.60090        9.09510      -10.72150
H        -11.51570       10.79270      -12.50720
H        -11.46520       10.10470      -14.87040
H        -11.49420        7.71630      -15.47100
H        -11.51930        5.35950      -14.78870
H        -11.79880       -0.99170      -16.13090
H        -11.57830       -3.58000      -16.07710
H        -10.32920       -6.04930      -11.52480
H        -10.16190       -4.27970      -11.49670
H        -12.03450       -5.02730      -10.00280
H        -12.66420       -4.07050      -11.34520
H        -12.80810       -5.83180      -11.37560
H        -13.78380       -0.03710      -15.44400
H        -15.15660        2.05620      -16.13740
