
  xtb     03022207543D
 energy: -210.317043574000 gnorm: 0.000184266426 xtb: 6.4.1 (unknown)
136151  0     0  0            999 V2000
   14.9991    5.1403    1.7757 C   0  0  0  0  0  0  0  0  0  0  0  0
   14.1371    5.4595    2.7609 C   0  0  0  0  0  0  0  0  0  0  0  0
   13.1977    4.4210    3.0415 C   0  0  0  0  0  0  0  0  0  0  0  0
   12.1686    4.4101    3.9883 C   0  0  0  0  0  0  0  0  0  0  0  0
   11.8773    5.5883    4.8687 C   0  0  0  0  0  0  0  0  0  0  0  0
   10.9735    6.5899    4.1471 C   0  0  0  0  0  0  0  0  0  0  0  0
   11.3898    3.2681    4.0337 C   0  0  0  0  0  0  0  0  0  0  0  0
   11.5927    2.1437    3.1944 C   0  0  0  0  0  0  0  0  0  0  0  0
   12.6243    2.1548    2.2472 C   0  0  0  0  0  0  0  0  0  0  0  0
   12.9020    0.9810    1.3570 C   0  0  0  0  0  0  0  0  0  0  0  0
   13.7709   -0.0521    2.0768 C   0  0  0  0  0  0  0  0  0  0  0  0
   13.4023    3.2972    2.2034 C   0  0  0  0  0  0  0  0  0  0  0  0
   14.7429    3.5624    1.1138 S   0  0  0  0  0  0  0  0  0  0  0  0
   10.6448    1.1188    3.4504 C   0  0  0  0  0  0  0  0  0  0  0  0
    9.7482    1.4305    4.4302 C   0  0  0  0  0  0  0  0  0  0  0  0
   10.0377    3.0187    5.1079 S   0  0  0  0  0  0  0  0  0  0  0  0
    8.6367    0.6515    4.8769 C   0  0  0  0  0  0  0  0  0  0  0  0
    8.2399   -0.5724    4.4216 C   0  0  0  0  0  0  0  0  0  0  0  0
    7.0316   -1.0347    5.0009 C   0  0  0  0  0  0  0  0  0  0  0  0
    6.3224   -2.2067    4.7051 C   0  0  0  0  0  0  0  0  0  0  0  0
    6.8480   -3.2358    3.7500 C   0  0  0  0  0  0  0  0  0  0  0  0
    7.8482   -4.1602    4.4465 C   0  0  0  0  0  0  0  0  0  0  0  0
    5.1113   -2.3675    5.3495 C   0  0  0  0  0  0  0  0  0  0  0  0
    4.5843   -1.4375    6.2843 C   0  0  0  0  0  0  0  0  0  0  0  0
    5.3126   -0.2824    6.6067 C   0  0  0  0  0  0  0  0  0  0  0  0
    4.8227    0.7086    7.6190 C   0  0  0  0  0  0  0  0  0  0  0  0
    5.1385    0.2340    9.0386 C   0  0  0  0  0  0  0  0  0  0  0  0
    6.5125   -0.1107    5.9450 C   0  0  0  0  0  0  0  0  0  0  0  0
    7.5531    1.2831    6.0980 S   0  0  0  0  0  0  0  0  0  0  0  0
    3.2858   -1.8038    6.7137 C   0  0  0  0  0  0  0  0  0  0  0  0
    2.8066   -2.9443    6.1299 C   0  0  0  0  0  0  0  0  0  0  0  0
    3.9941   -3.6746    5.0648 S   0  0  0  0  0  0  0  0  0  0  0  0
    1.4768   -3.4600    6.1655 C   0  0  0  0  0  0  0  0  0  0  0  0
    0.4047   -2.9627    6.8559 C   0  0  0  0  0  0  0  0  0  0  0  0
   -0.7740   -3.6223    6.3471 C   0  0  0  0  0  0  0  0  0  0  0  0
   -2.1148   -3.5840    6.2407 C   0  0  0  0  0  0  0  0  0  0  0  0
   -2.4423   -4.5743    5.1680 C   0  0  0  0  0  0  0  0  0  0  0  0
   -1.3774   -5.1938    4.7141 N   0  0  0  0  0  0  0  0  0  0  0  0
   -0.3145   -4.6189    5.3620 C   0  0  0  0  0  0  0  0  0  0  0  0
    1.0264   -4.5273    5.2431 C   0  0  0  0  0  0  0  0  0  0  0  0
   -3.6826   -4.6458    4.4901 C   0  0  0  0  0  0  0  0  0  0  0  0
   -4.7818   -3.8399    4.6640 C   0  0  0  0  0  0  0  0  0  0  0  0
   -5.6002   -3.9856    3.4892 C   0  0  0  0  0  0  0  0  0  0  0  0
   -6.5767   -3.4340    2.7388 C   0  0  0  0  0  0  0  0  0  0  0  0
   -6.5117   -4.1582    1.4418 C   0  0  0  0  0  0  0  0  0  0  0  0
   -5.5999   -5.0976    1.4233 N   0  0  0  0  0  0  0  0  0  0  0  0
   -4.9630   -5.0104    2.6415 C   0  0  0  0  0  0  0  0  0  0  0  0
   -3.8180   -5.4135    3.2250 C   0  0  0  0  0  0  0  0  0  0  0  0
   -7.1961   -3.7507    0.2634 C   0  0  0  0  0  0  0  0  0  0  0  0
   -6.9707   -4.2308   -0.9988 C   0  0  0  0  0  0  0  0  0  0  0  0
   -7.5741   -3.4596   -2.0166 C   0  0  0  0  0  0  0  0  0  0  0  0
   -7.4492   -3.6130   -3.4070 C   0  0  0  0  0  0  0  0  0  0  0  0
   -6.7336   -4.7830   -4.0091 C   0  0  0  0  0  0  0  0  0  0  0  0
   -7.6323   -6.0212   -4.0155 C   0  0  0  0  0  0  0  0  0  0  0  0
   -8.0238   -2.6273   -4.1824 C   0  0  0  0  0  0  0  0  0  0  0  0
   -8.7402   -1.5221   -3.6513 C   0  0  0  0  0  0  0  0  0  0  0  0
   -8.9182   -1.4015   -2.2665 C   0  0  0  0  0  0  0  0  0  0  0  0
   -9.6483   -0.2433   -1.6558 C   0  0  0  0  0  0  0  0  0  0  0  0
   -8.7134    0.9540   -1.4726 C   0  0  0  0  0  0  0  0  0  0  0  0
   -8.3059   -2.3634   -1.4858 C   0  0  0  0  0  0  0  0  0  0  0  0
   -8.2476   -2.3501    0.2581 S   0  0  0  0  0  0  0  0  0  0  0  0
   -9.1386   -0.6174   -4.6678 C   0  0  0  0  0  0  0  0  0  0  0  0
   -8.7442   -0.9875   -5.9193 C   0  0  0  0  0  0  0  0  0  0  0  0
   -7.8981   -2.5222   -5.9219 S   0  0  0  0  0  0  0  0  0  0  0  0
   -8.8854   -0.2562   -7.1350 C   0  0  0  0  0  0  0  0  0  0  0  0
   -8.4309   -0.6037   -8.3711 C   0  0  0  0  0  0  0  0  0  0  0  0
   -8.6597    0.3836   -9.3648 C   0  0  0  0  0  0  0  0  0  0  0  0
   -8.3004    0.3504  -10.7174 C   0  0  0  0  0  0  0  0  0  0  0  0
   -7.5637   -0.8094  -11.3162 C   0  0  0  0  0  0  0  0  0  0  0  0
   -6.0592   -0.6811  -11.0679 C   0  0  0  0  0  0  0  0  0  0  0  0
   -8.6153    1.4733  -11.4612 C   0  0  0  0  0  0  0  0  0  0  0  0
   -9.2720    2.6099  -10.9289 C   0  0  0  0  0  0  0  0  0  0  0  0
   -9.6337    2.6422   -9.5778 C   0  0  0  0  0  0  0  0  0  0  0  0
  -10.3588    3.8066   -8.9725 C   0  0  0  0  0  0  0  0  0  0  0  0
  -11.8651    3.6910   -9.2121 C   0  0  0  0  0  0  0  0  0  0  0  0
   -9.3194    1.5204   -8.8335 C   0  0  0  0  0  0  0  0  0  0  0  0
   -9.6489    1.3225   -7.1293 S   0  0  0  0  0  0  0  0  0  0  0  0
   -9.4688    3.6133  -11.9256 C   0  0  0  0  0  0  0  0  0  0  0  0
   -8.9897    3.2583  -13.1342 C   0  0  0  0  0  0  0  0  0  0  0  0
   -8.2653    1.6877  -13.1597 S   0  0  0  0  0  0  0  0  0  0  0  0
   15.7953    5.7375    1.3754 H   0  0  0  0  0  0  0  0  0  0  0  0
   14.1561    6.4019    3.2777 H   0  0  0  0  0  0  0  0  0  0  0  0
   12.8085    6.0770    5.1600 H   0  0  0  0  0  0  0  0  0  0  0  0
   11.3755    5.2409    5.7748 H   0  0  0  0  0  0  0  0  0  0  0  0
   10.7658    7.4426    4.7889 H   0  0  0  0  0  0  0  0  0  0  0  0
   11.4495    6.9456    3.2359 H   0  0  0  0  0  0  0  0  0  0  0  0
   10.0301    6.1190    3.8806 H   0  0  0  0  0  0  0  0  0  0  0  0
   11.9632    0.5190    1.0464 H   0  0  0  0  0  0  0  0  0  0  0  0
   13.4237    1.3273    0.4621 H   0  0  0  0  0  0  0  0  0  0  0  0
   14.7224    0.3914    2.3604 H   0  0  0  0  0  0  0  0  0  0  0  0
   13.9648   -0.9019    1.4267 H   0  0  0  0  0  0  0  0  0  0  0  0
   13.2750   -0.4064    2.9778 H   0  0  0  0  0  0  0  0  0  0  0  0
   10.6247    0.1855    2.9186 H   0  0  0  0  0  0  0  0  0  0  0  0
    8.7844   -1.1189    3.6739 H   0  0  0  0  0  0  0  0  0  0  0  0
    7.3299   -2.7457    2.9021 H   0  0  0  0  0  0  0  0  0  0  0  0
    6.0138   -3.8298    3.3700 H   0  0  0  0  0  0  0  0  0  0  0  0
    8.2274   -4.9020    3.7477 H   0  0  0  0  0  0  0  0  0  0  0  0
    8.6864   -3.5889    4.8395 H   0  0  0  0  0  0  0  0  0  0  0  0
    7.3677   -4.6776    5.2737 H   0  0  0  0  0  0  0  0  0  0  0  0
    3.7457    0.8500    7.5108 H   0  0  0  0  0  0  0  0  0  0  0  0
    5.3116    1.6695    7.4438 H   0  0  0  0  0  0  0  0  0  0  0  0
    4.7760    0.9550    9.7673 H   0  0  0  0  0  0  0  0  0  0  0  0
    4.6677   -0.7271    9.2334 H   0  0  0  0  0  0  0  0  0  0  0  0
    6.2127    0.1225    9.1665 H   0  0  0  0  0  0  0  0  0  0  0  0
    2.6995   -1.2179    7.3976 H   0  0  0  0  0  0  0  0  0  0  0  0
    0.4144   -2.1896    7.6000 H   0  0  0  0  0  0  0  0  0  0  0  0
   -2.8359   -2.9713    6.7461 H   0  0  0  0  0  0  0  0  0  0  0  0
    1.6834   -5.0597    4.5812 H   0  0  0  0  0  0  0  0  0  0  0  0
   -4.9768   -3.1709    5.4807 H   0  0  0  0  0  0  0  0  0  0  0  0
   -7.2526   -2.6255    2.9446 H   0  0  0  0  0  0  0  0  0  0  0  0
   -3.0636   -6.0907    2.8762 H   0  0  0  0  0  0  0  0  0  0  0  0
   -6.3392   -5.0845   -1.1605 H   0  0  0  0  0  0  0  0  0  0  0  0
   -5.8256   -4.9948   -3.4420 H   0  0  0  0  0  0  0  0  0  0  0  0
   -6.4486   -4.5384   -5.0349 H   0  0  0  0  0  0  0  0  0  0  0  0
   -8.5334   -5.8296   -4.5939 H   0  0  0  0  0  0  0  0  0  0  0  0
   -7.1081   -6.8638   -4.4594 H   0  0  0  0  0  0  0  0  0  0  0  0
   -7.9229   -6.2862   -3.0017 H   0  0  0  0  0  0  0  0  0  0  0  0
  -10.4897    0.0415   -2.2895 H   0  0  0  0  0  0  0  0  0  0  0  0
  -10.0397   -0.5441   -0.6812 H   0  0  0  0  0  0  0  0  0  0  0  0
   -8.3081    1.2724   -2.4303 H   0  0  0  0  0  0  0  0  0  0  0  0
   -7.8851    0.6871   -0.8203 H   0  0  0  0  0  0  0  0  0  0  0  0
   -9.2510    1.7872   -1.0268 H   0  0  0  0  0  0  0  0  0  0  0  0
   -9.6726    0.2982   -4.4855 H   0  0  0  0  0  0  0  0  0  0  0  0
   -7.9325   -1.5391   -8.5541 H   0  0  0  0  0  0  0  0  0  0  0  0
   -7.7487   -0.8327  -12.3924 H   0  0  0  0  0  0  0  0  0  0  0  0
   -7.9273   -1.7440  -10.8860 H   0  0  0  0  0  0  0  0  0  0  0  0
   -5.5317   -1.5255  -11.5046 H   0  0  0  0  0  0  0  0  0  0  0  0
   -5.6811    0.2340  -11.5178 H   0  0  0  0  0  0  0  0  0  0  0  0
   -5.8494   -0.6522  -10.0010 H   0  0  0  0  0  0  0  0  0  0  0  0
   -9.9891    4.7396   -9.4012 H   0  0  0  0  0  0  0  0  0  0  0  0
  -10.1668    3.8256   -7.8971 H   0  0  0  0  0  0  0  0  0  0  0  0
  -12.0806    3.6644  -10.2780 H   0  0  0  0  0  0  0  0  0  0  0  0
  -12.2473    2.7779   -8.7616 H   0  0  0  0  0  0  0  0  0  0  0  0
  -12.3842    4.5386   -8.7716 H   0  0  0  0  0  0  0  0  0  0  0  0
   -9.9502    4.5557  -11.7365 H   0  0  0  0  0  0  0  0  0  0  0  0
   -9.0090    3.8256  -14.0445 H   0  0  0  0  0  0  0  0  0  0  0  0
  1  2  2  0  0  0  0
  2  3  1  0  0  0  0
  3  4  2  0  0  0  0
  4  5  1  0  0  0  0
  5  6  1  0  0  0  0
  4  7  1  0  0  0  0
  7  8  2  0  0  0  0
  8  9  1  0  0  0  0
  9 10  1  0  0  0  0
 10 11  1  0  0  0  0
  9 12  2  0  0  0  0
 12 13  1  0  0  0  0
  8 14  1  0  0  0  0
 14 15  2  0  0  0  0
 15 16  1  0  0  0  0
 15 17  1  0  0  0  0
 17 18  2  0  0  0  0
 18 19  1  0  0  0  0
 19 20  2  0  0  0  0
 20 21  1  0  0  0  0
 21 22  1  0  0  0  0
 20 23  1  0  0  0  0
 23 24  2  0  0  0  0
 24 25  1  0  0  0  0
 25 26  1  0  0  0  0
 26 27  1  0  0  0  0
 25 28  2  0  0  0  0
 28 29  1  0  0  0  0
 24 30  1  0  0  0  0
 30 31  2  0  0  0  0
 31 32  1  0  0  0  0
 31 33  1  0  0  0  0
 33 34  2  0  0  0  0
 34 35  1  0  0  0  0
 35 36  2  0  0  0  0
 36 37  1  0  0  0  0
 37 38  2  0  0  0  0
 38 39  1  0  0  0  0
 39 40  2  0  0  0  0
 37 41  1  0  0  0  0
 41 42  2  0  0  0  0
 42 43  1  0  0  0  0
 43 44  2  0  0  0  0
 44 45  1  0  0  0  0
 45 46  2  0  0  0  0
 46 47  1  0  0  0  0
 47 48  2  0  0  0  0
 45 49  1  0  0  0  0
 49 50  2  0  0  0  0
 50 51  1  0  0  0  0
 51 52  2  0  0  0  0
 52 53  1  0  0  0  0
 53 54  1  0  0  0  0
 52 55  1  0  0  0  0
 55 56  2  0  0  0  0
 56 57  1  0  0  0  0
 57 58  1  0  0  0  0
 58 59  1  0  0  0  0
 57 60  2  0  0  0  0
 60 61  1  0  0  0  0
 56 62  1  0  0  0  0
 62 63  2  0  0  0  0
 63 64  1  0  0  0  0
 63 65  1  0  0  0  0
 65 66  2  0  0  0  0
 66 67  1  0  0  0  0
 67 68  2  0  0  0  0
 68 69  1  0  0  0  0
 69 70  1  0  0  0  0
 68 71  1  0  0  0  0
 71 72  2  0  0  0  0
 72 73  1  0  0  0  0
 73 74  1  0  0  0  0
 74 75  1  0  0  0  0
 73 76  2  0  0  0  0
 76 77  1  0  0  0  0
 72 78  1  0  0  0  0
 78 79  2  0  0  0  0
 79 80  1  0  0  0  0
 13  1  1  0  0  0  0
 29 17  1  0  0  0  0
 40 33  1  0  0  0  0
 48 41  1  0  0  0  0
 61 49  1  0  0  0  0
 77 65  1  0  0  0  0
 12  3  1  0  0  0  0
 28 19  1  0  0  0  0
 39 35  1  0  0  0  0
 47 43  1  0  0  0  0
 60 51  1  0  0  0  0
 76 67  1  0  0  0  0
 16  7  1  0  0  0  0
 32 23  1  0  0  0  0
 64 55  1  0  0  0  0
 80 71  1  0  0  0  0
  1 81  1  0  0  0  0
  2 82  1  0  0  0  0
  5 83  1  0  0  0  0
  5 84  1  0  0  0  0
  6 85  1  0  0  0  0
  6 86  1  0  0  0  0
  6 87  1  0  0  0  0
 10 88  1  0  0  0  0
 10 89  1  0  0  0  0
 11 90  1  0  0  0  0
 11 91  1  0  0  0  0
 11 92  1  0  0  0  0
 14 93  1  0  0  0  0
 18 94  1  0  0  0  0
 21 95  1  0  0  0  0
 21 96  1  0  0  0  0
 22 97  1  0  0  0  0
 22 98  1  0  0  0  0
 22 99  1  0  0  0  0
 26100  1  0  0  0  0
 26101  1  0  0  0  0
 27102  1  0  0  0  0
 27103  1  0  0  0  0
 27104  1  0  0  0  0
 30105  1  0  0  0  0
 34106  1  0  0  0  0
 36107  1  0  0  0  0
 40108  1  0  0  0  0
 42109  1  0  0  0  0
 44110  1  0  0  0  0
 48111  1  0  0  0  0
 50112  1  0  0  0  0
 53113  1  0  0  0  0
 53114  1  0  0  0  0
 54115  1  0  0  0  0
 54116  1  0  0  0  0
 54117  1  0  0  0  0
 58118  1  0  0  0  0
 58119  1  0  0  0  0
 59120  1  0  0  0  0
 59121  1  0  0  0  0
 59122  1  0  0  0  0
 62123  1  0  0  0  0
 66124  1  0  0  0  0
 69125  1  0  0  0  0
 69126  1  0  0  0  0
 70127  1  0  0  0  0
 70128  1  0  0  0  0
 70129  1  0  0  0  0
 74130  1  0  0  0  0
 74131  1  0  0  0  0
 75132  1  0  0  0  0
 75133  1  0  0  0  0
 75134  1  0  0  0  0
 78135  1  0  0  0  0
 79136  1  0  0  0  0
M  END
