231

C          7.71370       -2.92620        4.09100
C          7.04510       -3.72730        3.23710
C          5.79540       -3.17610        2.83230
C          4.82450       -3.74760        1.99990
C          4.95260       -5.07880        1.42480
S          5.08600       -6.47760        2.44800
C          4.92080       -7.56670        1.10980
C          4.90600       -9.04040        1.32580
C          6.29630       -9.58410        1.65790
C          4.80840       -6.86780       -0.05470
Cl         4.63500       -7.59950       -1.59740
C          4.81630       -5.45670        0.12000
Cl         4.70860       -4.35070       -1.18600
C          3.64850       -3.03340        1.81750
C          3.39350       -1.78810        2.44280
C          4.37620       -1.20510        3.26270
C          4.14800        0.06410        3.93360
S          5.30100        1.36000        3.79800
C          4.32530        2.43760        4.73160
C          4.73000        3.85730        4.92210
C          4.18380        4.73480        3.79240
C          3.18930        1.80640        5.14770
C          3.09080        0.45920        4.70900
Cl         1.80750       -0.57280        5.19850
Cl         1.98340        2.55340        6.11250
C          5.56480       -1.90950        3.41820
S          6.89890       -1.44000        4.43550
C          2.08570       -1.32190        2.15970
C          1.35490       -2.17600        1.38830
S          2.27160       -3.58910        0.91390
C         -0.00810       -2.05310        0.98440
C         -0.90840       -1.08930        1.33650
C         -2.19210       -1.27920        0.76850
C         -3.34870       -0.48390        0.91890
C         -3.36640        0.57360        1.91530
S         -2.71440        0.21980        3.49610
C         -3.09650        1.78890        4.10700
C         -2.80360        2.14890        5.52130
C         -3.65880        1.32160        6.48290
C         -3.70410        2.53090        3.13930
Cl        -4.24200        4.14050        3.37240
C         -3.85740        1.85100        1.90020
Cl        -4.53840        2.65440        0.54700
C         -4.45860       -0.84830        0.16300
C         -4.47490       -1.97120       -0.70500
C         -3.34910       -2.80670       -0.78750
C         -3.33690       -4.04250       -1.55230
S         -3.70780       -4.09900       -3.24960
C         -3.41180       -5.80080       -3.33820
C         -3.63290       -6.56950       -4.59410
C         -5.03490       -7.18340       -4.60880
C         -3.05030       -6.28450       -2.11700
C         -3.00490       -5.29210       -1.10380
Cl        -2.67170       -5.67640        0.53390
Cl        -2.67630       -7.93120       -1.81510
C         -2.23110       -2.42850       -0.05500
S         -0.71100       -3.26470       -0.05550
C         -5.73980       -2.15880       -1.31530
C         -6.68620       -1.25690       -0.92030
S         -6.02830       -0.09870        0.21720
C         -8.05290       -1.17850       -1.33290
N         -8.52830       -1.87810       -2.41600
C         -9.83170       -1.58430       -2.61330
C        -10.24250       -0.68870       -1.63970
C         -9.11350       -0.45320       -0.80540
C         -9.07130        0.36750        0.43470
C        -11.54120       -0.09270       -1.43400
C        -12.53430        0.20540       -2.28900
C        -12.67440        0.08780       -3.72320
C        -11.78000        0.22470       -4.71430
C        -10.37380        0.51140       -4.58250
C         -9.38170       -0.19800       -5.18530
C         -8.08280        0.14630       -4.73600
C         -6.88030       -0.52020       -5.02610
C         -6.83250       -1.56000       -6.03810
S         -6.20760       -3.14860       -5.70070
C         -6.48990       -3.68770       -7.32160
C         -6.07420       -5.04650       -7.76370
C         -4.61910       -5.03250       -8.24070
C         -7.03370       -2.68500       -8.06690
Cl        -7.43910       -2.84150       -9.72730
C         -7.23930       -1.48120       -7.34090
Cl        -7.87040       -0.05790       -8.06190
C         -5.76880       -0.15780       -4.27910
C         -5.80270        0.91470       -3.35800
C         -6.97000        1.68100       -3.17460
C         -6.93750        2.87440       -2.35460
S         -8.19510        3.24890       -1.21540
C         -7.40770        4.69330       -0.68790
C         -7.95570        5.50990        0.42920
C         -7.35350        5.06520        1.76390
C         -6.24640        4.87550       -1.37840
C         -5.98180        3.85990       -2.33240
Cl        -4.64180        3.96020       -3.40380
Cl        -5.19430        6.20520       -1.13430
C         -8.11580        1.21430       -3.80780
S         -9.74480        1.76360       -3.53710
C         -4.58440        1.03570       -2.65780
C         -3.63300        0.13520       -3.03950
S         -4.19970       -0.91650       -4.31600
C         -2.32160        0.06740       -2.48380
C         -1.86550        0.89540       -1.49940
C         -0.51640        0.68080       -1.15170
C          0.25060        1.40840       -0.22530
C         -0.29980        2.52340        0.52660
S         -1.24590        3.76250       -0.25010
C         -1.41230        4.68400        1.19970
C         -2.09990        6.00300        1.21270
C         -1.08190        7.14760        1.18970
C         -0.76470        4.06000        2.22390
Cl        -0.67960        4.66830        3.82190
C         -0.14820        2.83830        1.84880
Cl         0.60800        1.86050        3.03250
C          1.58770        1.04520       -0.12000
C          2.15890       -0.04600       -0.82310
C          1.38100       -0.77760       -1.74080
C          1.95530       -1.85480       -2.53070
S          1.19580       -3.41590       -2.61550
C          2.43280       -4.05490       -3.63400
C          2.41910       -5.47230       -4.09410
C          1.40930       -6.31940       -3.32980
C          3.36360       -3.09560       -3.90810
C          3.09570       -1.84780       -3.28900
Cl         4.07110       -0.46170       -3.56950
Cl         4.74370       -3.36590       -4.89150
C          0.05540       -0.38650       -1.88600
S         -1.09730       -1.06540       -3.00730
C          3.53880       -0.19760       -0.52230
C          4.02640        0.79490        0.27190
S          2.78670        1.91030        0.78850
C          5.37930        1.08790        0.63290
C          6.43290        0.25260        0.83640
C          7.64870        0.93470        1.11490
C          8.93140        0.40780        1.35580
C          9.20450       -1.01490        1.28850
S         10.23520       -1.75010        2.48240
C         10.05560       -3.32700        1.79950
C         10.79360       -4.48840        2.36630
C         12.24680       -4.48470        1.88560
C          9.24920       -3.27270        0.70390
Cl         8.80090       -4.64650       -0.22230
C          8.77640       -1.96700        0.40020
Cl         7.88380       -1.66920       -1.03800
C          9.93330        1.32240        1.68370
C          9.71350        2.71650        1.77950
C          8.43950        3.23880        1.52630
C          8.14780        4.65910        1.66470
S          7.55310        5.61490        0.34270
C          7.45950        7.04170        1.31770
C          6.94310        8.32420        0.76500
C          5.42760        8.42640        0.95340
C          7.85130        6.77010        2.59470
C          8.24930        5.42170        2.79280
Cl         8.75170        4.80320        4.31350
Cl         7.87470        7.93520        3.85600
C          7.45040        2.33640        1.17160
S          5.81280        2.77300        0.81090
C         10.90620        3.42950        2.09650
C         11.97520        2.62000        2.22940
S         11.60890        0.94770        1.98370
H          8.65970       -3.10390        4.56260
H          7.40140       -4.68380        2.90220
H          4.52500       -9.52070        0.42240
H          4.22700       -9.26930        2.15130
H          6.24100      -10.65310        1.84690
H          6.69010       -9.09270        2.54510
H          6.97990       -9.41150        0.83000
H          5.81790        3.92280        4.93730
H          4.34190        4.21190        5.87690
H          4.54870        4.38010        2.82630
H          4.50670        5.76240        3.93470
H          3.09480        4.70660        3.78560
H          1.69740       -0.38830        2.51910
H         -0.64930       -0.26440        1.97090
H         -3.00360        3.21290        5.66190
H         -1.74690        1.96670        5.72960
H         -3.44160        1.59750        7.51180
H         -3.44880        0.26180        6.35410
H         -4.71590        1.49120        6.29160
H         -3.51220       -5.90630       -5.45070
H         -2.88920       -7.36650       -4.65660
H         -5.15270       -7.86750       -3.77280
H         -5.78730       -6.40240       -4.52620
H         -5.19380       -7.73540       -5.53170
H         -5.93260       -2.96120       -2.00480
H         -7.98170       -2.49360       -2.99600
H        -10.40480       -2.05460       -3.38660
H         -8.77910       -0.25270        1.28290
H         -8.34290        1.17070        0.34710
H        -10.03970        0.81240        0.64120
H        -11.73610        0.14650       -0.39510
H        -13.44640        0.57320       -1.82810
H        -13.69750       -0.10400       -4.02990
H        -12.10770        0.04270       -5.73180
H         -9.57440       -1.00700       -5.86700
H         -6.72360       -5.36830       -8.58000
H         -6.17970       -5.74520       -6.93310
H         -4.29770       -6.03900       -8.49550
H         -4.51710       -4.40160       -9.12010
H         -3.97010       -4.64130       -7.46040
H         -9.04040        5.39780        0.45920
H         -7.71430        6.56040        0.25470
H         -7.57530        4.01690        1.94920
H         -7.76200        5.65840        2.57730
H         -6.27510        5.19400        1.74710
H         -4.43630        1.74200       -1.86740
H         -2.47320        1.64980       -1.04250
H         -2.76250        6.07440        0.34700
H         -2.70450        6.08140        2.12120
H         -0.44520        7.10240        2.07150
H         -1.59990        8.10270        1.18420
H         -0.45300        7.08450        0.30370
H          3.42630       -5.88100       -3.97660
H          2.18560       -5.49440       -5.16440
H          0.40300       -5.92690       -3.46680
H          1.43480       -7.34630       -3.68730
H          1.63540       -6.31550       -2.26620
H          4.15240       -0.98950       -0.90910
H          6.32700       -0.81520        0.82750
H         10.77410       -4.43420        3.45700
H         10.30250       -5.41060        2.05160
H         12.74070       -3.56600        2.19330
H         12.78390       -5.32980        2.30700
H         12.28420       -4.55260        0.80150
H          7.43130        9.15360        1.28080
H          7.18300        8.38300       -0.29760
H          5.17610        8.38110        2.00990
H          5.06400        9.36710        0.54890
H          4.92760        7.60770        0.44180
H         10.94250        4.49810        2.20450
H         12.98700        2.89010        2.46120
