244

C         -1.60740       -1.18330        9.99510
C         -0.94750       -0.51250        9.03100
C         -1.55580       -0.64480        7.74620
C         -1.13070       -0.09370        6.53030
C          0.00290        0.83850        6.46070
C          1.05020        0.64360        5.56780
C          2.05710        1.57910        5.45060
C          2.03880        2.74210        6.20650
S          3.25200        4.01630        5.98840
C          3.24280        4.18480        4.16530
C          4.46990        3.57380        3.51980
C          1.01910        2.90040        7.13780
F          0.98750        3.99810        7.92300
C          0.00980        1.97100        7.27120
C         -1.87230       -0.42470        5.40380
C         -3.05070       -1.20610        5.46290
C         -3.48190       -1.75010        6.68220
C         -4.68460       -2.59020        6.74860
C         -5.90360       -2.14680        6.23690
C         -7.01260       -2.96470        6.25740
C         -6.95800       -4.25030        6.79420
S         -8.46150       -5.18320        6.78950
C         -7.93660       -6.90640        6.46130
C         -7.17540       -7.03250        5.15700
C         -5.74620       -4.66310        7.33880
C         -4.62280       -3.86110        7.30930
F         -5.62140       -5.88130        7.91210
C         -2.70190       -1.47460        7.79530
S         -3.00730       -2.02770        9.42250
C         -3.64740       -1.36500        4.18500
C         -2.96800       -0.76220        3.17220
S         -1.54030        0.07810        3.77140
C         -3.30180       -0.71160        1.75890
C         -4.31820       -1.49940        1.19120
O         -4.98510       -2.45410        1.93740
C         -4.26760       -3.67120        2.08210
C         -5.10350       -4.62160        2.92370
C         -4.69740       -1.33210       -0.15410
C         -3.98340       -0.42720       -0.94300
C         -2.93390        0.29650       -0.41260
C         -2.61040        0.16910        0.92320
C         -5.80540       -2.12200       -0.66400
C         -6.42640       -1.95710       -1.83980
C         -7.50950       -2.78480       -2.34290
C         -8.29200       -2.30940       -3.41000
O         -8.02630       -1.04710       -3.89300
C         -9.07020       -0.09670       -3.75100
C         -8.64220        1.18220       -4.45030
C         -9.27080       -3.12500       -3.99640
C         -9.51960       -4.37790       -3.44440
C         -8.77510       -4.84310       -2.37470
C         -7.76920       -4.06350       -1.84490
C        -10.00750       -2.73380       -5.20900
C         -9.44200       -2.33350       -6.35430
C         -8.01300       -2.21310       -6.51660
C         -7.05460       -2.98290       -5.94210
C         -5.74600       -2.45000       -6.05970
C         -4.59880       -2.86760       -5.36810
C         -4.66650       -4.03270       -4.47900
C         -4.27250       -3.93810       -3.14870
C         -4.45690       -4.98860       -2.27090
C         -5.03540       -6.17840       -2.69350
S         -5.41120       -7.56930       -1.68050
C         -4.72690       -7.14200       -0.04280
C         -3.21750       -7.28360        0.01430
C         -5.38620       -6.27460       -4.04160
F         -5.93190       -7.42330       -4.49290
C         -5.21310       -5.23550       -4.92520
C         -3.48670       -2.04620       -5.47140
C         -3.45970       -0.86610       -6.25360
C         -4.60370       -0.46010       -6.95650
C         -4.64690        0.78370       -7.73580
C         -4.27050        2.00210       -7.17930
C         -4.33120        3.17230       -7.91180
C         -4.76060        3.16330       -9.23370
S         -4.89730        4.57650      -10.27800
C         -3.92270        5.86150       -9.42170
C         -2.43390        5.57310       -9.45450
C         -5.15080        1.93620       -9.77350
C         -5.10550        0.76560       -9.05140
F         -5.58290        1.89240      -11.04920
C         -5.72910       -1.26100       -6.82580
S         -7.32750       -0.85930       -7.39570
C         -2.21250       -0.18540       -6.13710
C         -1.33850       -0.79720       -5.30530
S         -1.97600       -2.29110       -4.63750
C         -0.10680       -0.29130       -4.73280
C          1.19200       -0.52780       -5.02280
C          2.10000        0.04380       -4.07990
C          3.49580       -0.10350       -4.02220
C          4.23270       -0.75590       -5.11070
C          4.04180       -0.35500       -6.43020
C          4.73950       -0.94520       -7.46610
C          5.65310       -1.96380       -7.21940
S          6.58930       -2.81940       -8.44060
C          6.46410       -1.76110       -9.92370
C          7.23090       -0.46140       -9.76980
C          5.82160       -2.36680       -5.89260
F          6.67870       -3.36850       -5.61930
C          5.13910       -1.78140       -4.85080
C          4.12720        0.37700       -2.88150
C          3.42870        1.02160       -1.83120
C          2.04070        1.21040       -1.90850
C          1.28380        1.80620       -0.80460
C          0.31060        2.77930       -1.02010
C         -0.39820        3.32630        0.03250
C         -0.15610        2.91920        1.34010
S         -0.98790        3.57210        2.75330
C         -2.69490        3.80760        2.11680
C         -3.68690        3.34390        3.16540
C          0.82670        1.95210        1.53980
C          1.52480        1.38390        0.50080
F          1.10910        1.54440        2.78880
C          1.41520        0.71580       -3.04110
S         -0.30560        0.69190       -3.28970
C          4.28930        1.37600       -0.76470
C          5.58350        0.99910       -0.95140
S          5.83370        0.24870       -2.51480
C          6.60180        1.07590        0.05040
C          7.95720        1.07140       -0.04840
C          8.61660        1.11760        1.21180
C          9.99490        1.17680        1.46850
C         10.98540        1.13190        0.38700
C         12.00480        2.07640        0.31300
C         12.95020        2.03140       -0.69280
C         12.91880        1.02860       -1.65490
S         14.05490        0.86210       -2.99130
C         15.49340        1.86060       -2.47330
C         16.21680        1.25420       -1.28620
C         11.88600        0.09240       -1.57370
F         11.82010       -0.89000       -2.49320
C         10.93240        0.13100       -0.58180
C         10.37520        1.26450        2.80130
C          9.45560        1.26620        3.87760
C          8.07730        1.20890        3.62520
C          7.09140        1.18480        4.71540
C          7.10800        2.13000        5.73730
C          6.20310        2.07710        6.78130
C          5.25330        1.06410        6.85150
S          4.09490        0.82210        8.15430
C          4.68340        1.91230        9.49890
C          4.10300        3.31170        9.43230
C          5.22510        0.14340        5.80170
C          6.11410        0.19080        4.75180
F          4.30770       -0.84590        5.82120
C          7.69930        1.14130        2.29150
S          6.05690        1.11580        1.71930
C         10.12360        1.27340        5.13890
C         11.46610        1.29020        5.02270
S         12.02100        1.29750        3.38340
H         -1.36280       -1.25300       11.03700
H         -0.04550        0.04730        9.19890
H          1.08590       -0.24790        4.96290
H          2.85660        1.41250        4.74820
H          3.20300        5.25840        3.97870
H          2.32220        3.72450        3.81130
H          4.44140        3.73770        2.44380
H          4.51890        2.50340        3.70470
H          5.37600        4.02630        3.91650
H         -0.78720        2.15660        7.97490
H         -5.98110       -1.15040        5.82930
H         -7.95190       -2.62110        5.85280
H         -7.35890       -7.27030        7.30790
H         -8.88210       -7.44730        6.41800
H         -6.96610       -8.08120        4.95580
H         -7.75930       -6.62690        4.33340
H         -6.22960       -6.49680        5.20690
H         -3.70330       -4.24300        7.72480
H         -4.56690       -1.89740        4.03870
H         -3.29610       -3.48820        2.56120
H         -4.07460       -4.10100        1.08720
H         -4.60130       -5.58190        3.00500
H         -6.08020       -4.76510        2.46830
H         -5.24930       -4.21130        3.92000
H         -4.24220       -0.30790       -1.98360
H         -2.36570        0.96820       -1.03980
H         -1.80260        0.75160        1.33960
H         -6.16210       -2.87880        0.02030
H         -6.14290       -1.15310       -2.50430
H         -9.24540        0.09070       -2.68040
H        -10.00050       -0.48020       -4.19070
H         -7.71610        1.54990       -4.01640
H         -8.47710        0.99220       -5.50730
H         -9.41390        1.93850       -4.33940
H        -10.27890       -5.00370       -3.88990
H         -8.96700       -5.82660       -1.97350
H         -7.16540       -4.44940       -1.03910
H        -11.08480       -2.83230       -5.15760
H        -10.05950       -2.02450       -7.18690
H         -7.27800       -3.87800       -5.39330
H         -3.84680       -3.01960       -2.77660
H         -4.15920       -4.85520       -1.24410
H         -5.20600       -7.85460        0.62890
H         -5.06320       -6.14040        0.21970
H         -2.92970       -8.30700       -0.21340
H         -2.85820       -7.03460        1.01140
H         -2.73200       -6.62620       -0.70360
H         -5.49530       -5.37090       -5.95770
H         -3.95320        2.04140       -6.14810
H         -4.04930        4.09780       -7.43610
H         -4.15350        6.76830       -9.98060
H         -4.30420        5.97440       -8.40770
H         -2.09120        5.49260      -10.48330
H         -2.20500        4.64020       -8.94350
H         -1.88880        6.37970       -8.96780
H         -5.41040       -0.15540       -9.52260
H         -1.98810        0.73370       -6.64770
H          1.50720       -1.12830       -5.85710
H          3.35020        0.44530       -6.64800
H          4.55850       -0.60630       -8.47330
H          6.90020       -2.37690      -10.71030
H          5.41160       -1.60150      -10.15430
H          7.16170        0.12020      -10.68720
H          8.27890       -0.66710       -9.56600
H          6.83370        0.13320       -8.94970
H          5.30390       -2.14310       -3.84850
H          0.12270        3.13340       -2.02220
H         -1.13510        4.09010       -0.16160
H         -2.78820        3.21450        1.20910
H         -2.82650        4.86530        1.88870
H         -3.56460        3.90960        4.08580
H         -4.70240        3.48290        2.80000
H         -3.53730        2.28970        3.38510
H          2.22870        0.59600        0.71540
H          3.96740        1.89740        0.11810
H          8.47230        1.06330       -0.99210
H         12.04810        2.87280        1.04010
H         13.71130        2.79390       -0.72480
H         15.16390        2.88150       -2.28410
H         16.13090        1.86150       -3.35750
H         16.54770        0.24610       -1.52450
H         17.08790        1.85690       -1.03630
H         15.56660        1.20480       -0.41520
H         10.17400       -0.63560       -0.55210
H          7.82900        2.93330        5.70630
H          6.24200        2.83850        7.54250
H          4.35440        1.40330       10.40570
H          5.77220        1.90930        9.47450
H          3.02060        3.27810        9.52090
H          4.49720        3.91190       10.25030
H          4.34400        3.79990        8.49130
H          6.05970       -0.56800        3.98700
H          9.60590        1.24790        6.08040
H         12.19630        1.29830        5.80830
