
  xtb     03032210473D
 energy: -411.533359668916 gnorm: 0.000618853125 xtb: 6.4.1 (unknown)
244265  0     0  0            999 V2000
   -1.6074   -1.1833    9.9951 C   0  0  0  0  0  0  0  0  0  0  0  0
   -0.9475   -0.5125    9.0310 C   0  0  0  0  0  0  0  0  0  0  0  0
   -1.5558   -0.6448    7.7462 C   0  0  0  0  0  0  0  0  0  0  0  0
   -1.1307   -0.0937    6.5303 C   0  0  0  0  0  0  0  0  0  0  0  0
    0.0029    0.8385    6.4607 C   0  0  0  0  0  0  0  0  0  0  0  0
    1.0502    0.6436    5.5678 C   0  0  0  0  0  0  0  0  0  0  0  0
    2.0571    1.5791    5.4506 C   0  0  0  0  0  0  0  0  0  0  0  0
    2.0388    2.7421    6.2065 C   0  0  0  0  0  0  0  0  0  0  0  0
    3.2520    4.0163    5.9884 S   0  0  0  0  0  0  0  0  0  0  0  0
    3.2428    4.1848    4.1653 C   0  0  0  0  0  0  0  0  0  0  0  0
    4.4699    3.5738    3.5198 C   0  0  0  0  0  0  0  0  0  0  0  0
    1.0191    2.9004    7.1378 C   0  0  0  0  0  0  0  0  0  0  0  0
    0.9875    3.9981    7.9230 F   0  0  0  0  0  0  0  0  0  0  0  0
    0.0098    1.9710    7.2712 C   0  0  0  0  0  0  0  0  0  0  0  0
   -1.8723   -0.4247    5.4038 C   0  0  0  0  0  0  0  0  0  0  0  0
   -3.0507   -1.2061    5.4629 C   0  0  0  0  0  0  0  0  0  0  0  0
   -3.4819   -1.7501    6.6822 C   0  0  0  0  0  0  0  0  0  0  0  0
   -4.6846   -2.5902    6.7486 C   0  0  0  0  0  0  0  0  0  0  0  0
   -5.9036   -2.1468    6.2369 C   0  0  0  0  0  0  0  0  0  0  0  0
   -7.0126   -2.9647    6.2574 C   0  0  0  0  0  0  0  0  0  0  0  0
   -6.9580   -4.2503    6.7942 C   0  0  0  0  0  0  0  0  0  0  0  0
   -8.4615   -5.1832    6.7895 S   0  0  0  0  0  0  0  0  0  0  0  0
   -7.9366   -6.9064    6.4613 C   0  0  0  0  0  0  0  0  0  0  0  0
   -7.1754   -7.0325    5.1570 C   0  0  0  0  0  0  0  0  0  0  0  0
   -5.7462   -4.6631    7.3388 C   0  0  0  0  0  0  0  0  0  0  0  0
   -4.6228   -3.8611    7.3093 C   0  0  0  0  0  0  0  0  0  0  0  0
   -5.6214   -5.8813    7.9121 F   0  0  0  0  0  0  0  0  0  0  0  0
   -2.7019   -1.4746    7.7953 C   0  0  0  0  0  0  0  0  0  0  0  0
   -3.0073   -2.0277    9.4225 S   0  0  0  0  0  0  0  0  0  0  0  0
   -3.6474   -1.3650    4.1850 C   0  0  0  0  0  0  0  0  0  0  0  0
   -2.9680   -0.7622    3.1722 C   0  0  0  0  0  0  0  0  0  0  0  0
   -1.5403    0.0781    3.7714 S   0  0  0  0  0  0  0  0  0  0  0  0
   -3.3018   -0.7116    1.7589 C   0  0  0  0  0  0  0  0  0  0  0  0
   -4.3182   -1.4994    1.1912 C   0  0  0  0  0  0  0  0  0  0  0  0
   -4.9851   -2.4541    1.9374 O   0  0  0  0  0  0  0  0  0  0  0  0
   -4.2676   -3.6712    2.0821 C   0  0  0  0  0  0  0  0  0  0  0  0
   -5.1035   -4.6216    2.9237 C   0  0  0  0  0  0  0  0  0  0  0  0
   -4.6974   -1.3321   -0.1541 C   0  0  0  0  0  0  0  0  0  0  0  0
   -3.9834   -0.4272   -0.9430 C   0  0  0  0  0  0  0  0  0  0  0  0
   -2.9339    0.2965   -0.4126 C   0  0  0  0  0  0  0  0  0  0  0  0
   -2.6104    0.1691    0.9232 C   0  0  0  0  0  0  0  0  0  0  0  0
   -5.8054   -2.1220   -0.6640 C   0  0  0  0  0  0  0  0  0  0  0  0
   -6.4264   -1.9571   -1.8398 C   0  0  0  0  0  0  0  0  0  0  0  0
   -7.5095   -2.7848   -2.3429 C   0  0  0  0  0  0  0  0  0  0  0  0
   -8.2920   -2.3094   -3.4100 C   0  0  0  0  0  0  0  0  0  0  0  0
   -8.0263   -1.0471   -3.8930 O   0  0  0  0  0  0  0  0  0  0  0  0
   -9.0702   -0.0967   -3.7510 C   0  0  0  0  0  0  0  0  0  0  0  0
   -8.6422    1.1822   -4.4503 C   0  0  0  0  0  0  0  0  0  0  0  0
   -9.2708   -3.1250   -3.9964 C   0  0  0  0  0  0  0  0  0  0  0  0
   -9.5196   -4.3779   -3.4444 C   0  0  0  0  0  0  0  0  0  0  0  0
   -8.7751   -4.8431   -2.3747 C   0  0  0  0  0  0  0  0  0  0  0  0
   -7.7692   -4.0635   -1.8449 C   0  0  0  0  0  0  0  0  0  0  0  0
  -10.0075   -2.7338   -5.2090 C   0  0  0  0  0  0  0  0  0  0  0  0
   -9.4420   -2.3335   -6.3543 C   0  0  0  0  0  0  0  0  0  0  0  0
   -8.0130   -2.2131   -6.5166 C   0  0  0  0  0  0  0  0  0  0  0  0
   -7.0546   -2.9829   -5.9421 C   0  0  0  0  0  0  0  0  0  0  0  0
   -5.7460   -2.4500   -6.0597 C   0  0  0  0  0  0  0  0  0  0  0  0
   -4.5988   -2.8676   -5.3681 C   0  0  0  0  0  0  0  0  0  0  0  0
   -4.6665   -4.0327   -4.4790 C   0  0  0  0  0  0  0  0  0  0  0  0
   -4.2725   -3.9381   -3.1487 C   0  0  0  0  0  0  0  0  0  0  0  0
   -4.4569   -4.9886   -2.2709 C   0  0  0  0  0  0  0  0  0  0  0  0
   -5.0354   -6.1784   -2.6935 C   0  0  0  0  0  0  0  0  0  0  0  0
   -5.4112   -7.5693   -1.6805 S   0  0  0  0  0  0  0  0  0  0  0  0
   -4.7269   -7.1420   -0.0428 C   0  0  0  0  0  0  0  0  0  0  0  0
   -3.2175   -7.2836    0.0143 C   0  0  0  0  0  0  0  0  0  0  0  0
   -5.3862   -6.2746   -4.0416 C   0  0  0  0  0  0  0  0  0  0  0  0
   -5.9319   -7.4233   -4.4929 F   0  0  0  0  0  0  0  0  0  0  0  0
   -5.2131   -5.2355   -4.9252 C   0  0  0  0  0  0  0  0  0  0  0  0
   -3.4867   -2.0462   -5.4714 C   0  0  0  0  0  0  0  0  0  0  0  0
   -3.4597   -0.8661   -6.2536 C   0  0  0  0  0  0  0  0  0  0  0  0
   -4.6037   -0.4601   -6.9565 C   0  0  0  0  0  0  0  0  0  0  0  0
   -4.6469    0.7837   -7.7358 C   0  0  0  0  0  0  0  0  0  0  0  0
   -4.2705    2.0021   -7.1793 C   0  0  0  0  0  0  0  0  0  0  0  0
   -4.3312    3.1723   -7.9118 C   0  0  0  0  0  0  0  0  0  0  0  0
   -4.7606    3.1633   -9.2337 C   0  0  0  0  0  0  0  0  0  0  0  0
   -4.8973    4.5765  -10.2780 S   0  0  0  0  0  0  0  0  0  0  0  0
   -3.9227    5.8615   -9.4217 C   0  0  0  0  0  0  0  0  0  0  0  0
   -2.4339    5.5731   -9.4545 C   0  0  0  0  0  0  0  0  0  0  0  0
   -5.1508    1.9362   -9.7735 C   0  0  0  0  0  0  0  0  0  0  0  0
   -5.1055    0.7656   -9.0514 C   0  0  0  0  0  0  0  0  0  0  0  0
   -5.5829    1.8924  -11.0492 F   0  0  0  0  0  0  0  0  0  0  0  0
   -5.7291   -1.2610   -6.8258 C   0  0  0  0  0  0  0  0  0  0  0  0
   -7.3275   -0.8593   -7.3957 S   0  0  0  0  0  0  0  0  0  0  0  0
   -2.2125   -0.1854   -6.1371 C   0  0  0  0  0  0  0  0  0  0  0  0
   -1.3385   -0.7972   -5.3053 C   0  0  0  0  0  0  0  0  0  0  0  0
   -1.9760   -2.2911   -4.6375 S   0  0  0  0  0  0  0  0  0  0  0  0
   -0.1068   -0.2913   -4.7328 C   0  0  0  0  0  0  0  0  0  0  0  0
    1.1920   -0.5278   -5.0228 C   0  0  0  0  0  0  0  0  0  0  0  0
    2.1000    0.0438   -4.0799 C   0  0  0  0  0  0  0  0  0  0  0  0
    3.4958   -0.1035   -4.0222 C   0  0  0  0  0  0  0  0  0  0  0  0
    4.2327   -0.7559   -5.1107 C   0  0  0  0  0  0  0  0  0  0  0  0
    4.0418   -0.3550   -6.4302 C   0  0  0  0  0  0  0  0  0  0  0  0
    4.7395   -0.9452   -7.4661 C   0  0  0  0  0  0  0  0  0  0  0  0
    5.6531   -1.9638   -7.2194 C   0  0  0  0  0  0  0  0  0  0  0  0
    6.5893   -2.8194   -8.4406 S   0  0  0  0  0  0  0  0  0  0  0  0
    6.4641   -1.7611   -9.9237 C   0  0  0  0  0  0  0  0  0  0  0  0
    7.2309   -0.4614   -9.7698 C   0  0  0  0  0  0  0  0  0  0  0  0
    5.8216   -2.3668   -5.8926 C   0  0  0  0  0  0  0  0  0  0  0  0
    6.6787   -3.3685   -5.6193 F   0  0  0  0  0  0  0  0  0  0  0  0
    5.1391   -1.7814   -4.8508 C   0  0  0  0  0  0  0  0  0  0  0  0
    4.1272    0.3770   -2.8815 C   0  0  0  0  0  0  0  0  0  0  0  0
    3.4287    1.0216   -1.8312 C   0  0  0  0  0  0  0  0  0  0  0  0
    2.0407    1.2104   -1.9085 C   0  0  0  0  0  0  0  0  0  0  0  0
    1.2838    1.8062   -0.8046 C   0  0  0  0  0  0  0  0  0  0  0  0
    0.3106    2.7793   -1.0201 C   0  0  0  0  0  0  0  0  0  0  0  0
   -0.3982    3.3263    0.0325 C   0  0  0  0  0  0  0  0  0  0  0  0
   -0.1561    2.9192    1.3401 C   0  0  0  0  0  0  0  0  0  0  0  0
   -0.9879    3.5721    2.7533 S   0  0  0  0  0  0  0  0  0  0  0  0
   -2.6949    3.8076    2.1168 C   0  0  0  0  0  0  0  0  0  0  0  0
   -3.6869    3.3439    3.1654 C   0  0  0  0  0  0  0  0  0  0  0  0
    0.8267    1.9521    1.5398 C   0  0  0  0  0  0  0  0  0  0  0  0
    1.5248    1.3839    0.5008 C   0  0  0  0  0  0  0  0  0  0  0  0
    1.1091    1.5444    2.7888 F   0  0  0  0  0  0  0  0  0  0  0  0
    1.4152    0.7158   -3.0411 C   0  0  0  0  0  0  0  0  0  0  0  0
   -0.3056    0.6919   -3.2897 S   0  0  0  0  0  0  0  0  0  0  0  0
    4.2893    1.3760   -0.7647 C   0  0  0  0  0  0  0  0  0  0  0  0
    5.5835    0.9991   -0.9514 C   0  0  0  0  0  0  0  0  0  0  0  0
    5.8337    0.2487   -2.5148 S   0  0  0  0  0  0  0  0  0  0  0  0
    6.6018    1.0759    0.0504 C   0  0  0  0  0  0  0  0  0  0  0  0
    7.9572    1.0714   -0.0484 C   0  0  0  0  0  0  0  0  0  0  0  0
    8.6166    1.1176    1.2118 C   0  0  0  0  0  0  0  0  0  0  0  0
    9.9949    1.1768    1.4685 C   0  0  0  0  0  0  0  0  0  0  0  0
   10.9854    1.1319    0.3870 C   0  0  0  0  0  0  0  0  0  0  0  0
   12.0048    2.0764    0.3130 C   0  0  0  0  0  0  0  0  0  0  0  0
   12.9502    2.0314   -0.6928 C   0  0  0  0  0  0  0  0  0  0  0  0
   12.9188    1.0286   -1.6549 C   0  0  0  0  0  0  0  0  0  0  0  0
   14.0549    0.8621   -2.9913 S   0  0  0  0  0  0  0  0  0  0  0  0
   15.4934    1.8606   -2.4733 C   0  0  0  0  0  0  0  0  0  0  0  0
   16.2168    1.2542   -1.2862 C   0  0  0  0  0  0  0  0  0  0  0  0
   11.8860    0.0924   -1.5737 C   0  0  0  0  0  0  0  0  0  0  0  0
   11.8201   -0.8900   -2.4932 F   0  0  0  0  0  0  0  0  0  0  0  0
   10.9324    0.1310   -0.5818 C   0  0  0  0  0  0  0  0  0  0  0  0
   10.3752    1.2645    2.8013 C   0  0  0  0  0  0  0  0  0  0  0  0
    9.4556    1.2662    3.8776 C   0  0  0  0  0  0  0  0  0  0  0  0
    8.0773    1.2089    3.6252 C   0  0  0  0  0  0  0  0  0  0  0  0
    7.0914    1.1848    4.7154 C   0  0  0  0  0  0  0  0  0  0  0  0
    7.1080    2.1300    5.7373 C   0  0  0  0  0  0  0  0  0  0  0  0
    6.2031    2.0771    6.7813 C   0  0  0  0  0  0  0  0  0  0  0  0
    5.2533    1.0641    6.8515 C   0  0  0  0  0  0  0  0  0  0  0  0
    4.0949    0.8221    8.1543 S   0  0  0  0  0  0  0  0  0  0  0  0
    4.6834    1.9123    9.4989 C   0  0  0  0  0  0  0  0  0  0  0  0
    4.1030    3.3117    9.4323 C   0  0  0  0  0  0  0  0  0  0  0  0
    5.2251    0.1434    5.8017 C   0  0  0  0  0  0  0  0  0  0  0  0
    6.1141    0.1908    4.7518 C   0  0  0  0  0  0  0  0  0  0  0  0
    4.3077   -0.8459    5.8212 F   0  0  0  0  0  0  0  0  0  0  0  0
    7.6993    1.1413    2.2915 C   0  0  0  0  0  0  0  0  0  0  0  0
    6.0569    1.1158    1.7193 S   0  0  0  0  0  0  0  0  0  0  0  0
   10.1236    1.2734    5.1389 C   0  0  0  0  0  0  0  0  0  0  0  0
   11.4661    1.2902    5.0227 C   0  0  0  0  0  0  0  0  0  0  0  0
   12.0210    1.2975    3.3834 S   0  0  0  0  0  0  0  0  0  0  0  0
   -1.3628   -1.2530   11.0370 H   0  0  0  0  0  0  0  0  0  0  0  0
   -0.0455    0.0473    9.1989 H   0  0  0  0  0  0  0  0  0  0  0  0
    1.0859   -0.2479    4.9629 H   0  0  0  0  0  0  0  0  0  0  0  0
    2.8566    1.4125    4.7482 H   0  0  0  0  0  0  0  0  0  0  0  0
    3.2030    5.2584    3.9787 H   0  0  0  0  0  0  0  0  0  0  0  0
    2.3222    3.7245    3.8113 H   0  0  0  0  0  0  0  0  0  0  0  0
    4.4414    3.7377    2.4438 H   0  0  0  0  0  0  0  0  0  0  0  0
    4.5189    2.5034    3.7047 H   0  0  0  0  0  0  0  0  0  0  0  0
    5.3760    4.0263    3.9165 H   0  0  0  0  0  0  0  0  0  0  0  0
   -0.7872    2.1566    7.9749 H   0  0  0  0  0  0  0  0  0  0  0  0
   -5.9811   -1.1504    5.8293 H   0  0  0  0  0  0  0  0  0  0  0  0
   -7.9519   -2.6211    5.8528 H   0  0  0  0  0  0  0  0  0  0  0  0
   -7.3589   -7.2703    7.3079 H   0  0  0  0  0  0  0  0  0  0  0  0
   -8.8821   -7.4473    6.4180 H   0  0  0  0  0  0  0  0  0  0  0  0
   -6.9661   -8.0812    4.9558 H   0  0  0  0  0  0  0  0  0  0  0  0
   -7.7593   -6.6269    4.3334 H   0  0  0  0  0  0  0  0  0  0  0  0
   -6.2296   -6.4968    5.2069 H   0  0  0  0  0  0  0  0  0  0  0  0
   -3.7033   -4.2430    7.7248 H   0  0  0  0  0  0  0  0  0  0  0  0
   -4.5669   -1.8974    4.0387 H   0  0  0  0  0  0  0  0  0  0  0  0
   -3.2961   -3.4882    2.5612 H   0  0  0  0  0  0  0  0  0  0  0  0
   -4.0746   -4.1010    1.0872 H   0  0  0  0  0  0  0  0  0  0  0  0
   -4.6013   -5.5819    3.0050 H   0  0  0  0  0  0  0  0  0  0  0  0
   -6.0802   -4.7651    2.4683 H   0  0  0  0  0  0  0  0  0  0  0  0
   -5.2493   -4.2113    3.9200 H   0  0  0  0  0  0  0  0  0  0  0  0
   -4.2422   -0.3079   -1.9836 H   0  0  0  0  0  0  0  0  0  0  0  0
   -2.3657    0.9682   -1.0398 H   0  0  0  0  0  0  0  0  0  0  0  0
   -1.8026    0.7516    1.3396 H   0  0  0  0  0  0  0  0  0  0  0  0
   -6.1621   -2.8788    0.0203 H   0  0  0  0  0  0  0  0  0  0  0  0
   -6.1429   -1.1531   -2.5043 H   0  0  0  0  0  0  0  0  0  0  0  0
   -9.2454    0.0907   -2.6804 H   0  0  0  0  0  0  0  0  0  0  0  0
  -10.0005   -0.4802   -4.1907 H   0  0  0  0  0  0  0  0  0  0  0  0
   -7.7161    1.5499   -4.0164 H   0  0  0  0  0  0  0  0  0  0  0  0
   -8.4771    0.9922   -5.5073 H   0  0  0  0  0  0  0  0  0  0  0  0
   -9.4139    1.9385   -4.3394 H   0  0  0  0  0  0  0  0  0  0  0  0
  -10.2789   -5.0037   -3.8899 H   0  0  0  0  0  0  0  0  0  0  0  0
   -8.9670   -5.8266   -1.9735 H   0  0  0  0  0  0  0  0  0  0  0  0
   -7.1654   -4.4494   -1.0391 H   0  0  0  0  0  0  0  0  0  0  0  0
  -11.0848   -2.8323   -5.1576 H   0  0  0  0  0  0  0  0  0  0  0  0
  -10.0595   -2.0245   -7.1869 H   0  0  0  0  0  0  0  0  0  0  0  0
   -7.2780   -3.8780   -5.3933 H   0  0  0  0  0  0  0  0  0  0  0  0
   -3.8468   -3.0196   -2.7766 H   0  0  0  0  0  0  0  0  0  0  0  0
   -4.1592   -4.8552   -1.2441 H   0  0  0  0  0  0  0  0  0  0  0  0
   -5.2060   -7.8546    0.6289 H   0  0  0  0  0  0  0  0  0  0  0  0
   -5.0632   -6.1404    0.2197 H   0  0  0  0  0  0  0  0  0  0  0  0
   -2.9297   -8.3070   -0.2134 H   0  0  0  0  0  0  0  0  0  0  0  0
   -2.8582   -7.0346    1.0114 H   0  0  0  0  0  0  0  0  0  0  0  0
   -2.7320   -6.6262   -0.7036 H   0  0  0  0  0  0  0  0  0  0  0  0
   -5.4953   -5.3709   -5.9577 H   0  0  0  0  0  0  0  0  0  0  0  0
   -3.9532    2.0414   -6.1481 H   0  0  0  0  0  0  0  0  0  0  0  0
   -4.0493    4.0978   -7.4361 H   0  0  0  0  0  0  0  0  0  0  0  0
   -4.1535    6.7683   -9.9806 H   0  0  0  0  0  0  0  0  0  0  0  0
   -4.3042    5.9744   -8.4077 H   0  0  0  0  0  0  0  0  0  0  0  0
   -2.0912    5.4926  -10.4833 H   0  0  0  0  0  0  0  0  0  0  0  0
   -2.2050    4.6402   -8.9435 H   0  0  0  0  0  0  0  0  0  0  0  0
   -1.8888    6.3797   -8.9678 H   0  0  0  0  0  0  0  0  0  0  0  0
   -5.4104   -0.1554   -9.5226 H   0  0  0  0  0  0  0  0  0  0  0  0
   -1.9881    0.7337   -6.6477 H   0  0  0  0  0  0  0  0  0  0  0  0
    1.5072   -1.1283   -5.8571 H   0  0  0  0  0  0  0  0  0  0  0  0
    3.3502    0.4453   -6.6480 H   0  0  0  0  0  0  0  0  0  0  0  0
    4.5585   -0.6063   -8.4733 H   0  0  0  0  0  0  0  0  0  0  0  0
    6.9002   -2.3769  -10.7103 H   0  0  0  0  0  0  0  0  0  0  0  0
    5.4116   -1.6015  -10.1543 H   0  0  0  0  0  0  0  0  0  0  0  0
    7.1617    0.1202  -10.6872 H   0  0  0  0  0  0  0  0  0  0  0  0
    8.2789   -0.6671   -9.5660 H   0  0  0  0  0  0  0  0  0  0  0  0
    6.8337    0.1332   -8.9497 H   0  0  0  0  0  0  0  0  0  0  0  0
    5.3039   -2.1431   -3.8485 H   0  0  0  0  0  0  0  0  0  0  0  0
    0.1227    3.1334   -2.0222 H   0  0  0  0  0  0  0  0  0  0  0  0
   -1.1351    4.0901   -0.1616 H   0  0  0  0  0  0  0  0  0  0  0  0
   -2.7882    3.2145    1.2091 H   0  0  0  0  0  0  0  0  0  0  0  0
   -2.8265    4.8653    1.8887 H   0  0  0  0  0  0  0  0  0  0  0  0
   -3.5646    3.9096    4.0858 H   0  0  0  0  0  0  0  0  0  0  0  0
   -4.7024    3.4829    2.8000 H   0  0  0  0  0  0  0  0  0  0  0  0
   -3.5373    2.2897    3.3851 H   0  0  0  0  0  0  0  0  0  0  0  0
    2.2287    0.5960    0.7154 H   0  0  0  0  0  0  0  0  0  0  0  0
    3.9674    1.8974    0.1181 H   0  0  0  0  0  0  0  0  0  0  0  0
    8.4723    1.0633   -0.9921 H   0  0  0  0  0  0  0  0  0  0  0  0
   12.0481    2.8728    1.0401 H   0  0  0  0  0  0  0  0  0  0  0  0
   13.7113    2.7939   -0.7248 H   0  0  0  0  0  0  0  0  0  0  0  0
   15.1639    2.8815   -2.2841 H   0  0  0  0  0  0  0  0  0  0  0  0
   16.1309    1.8615   -3.3575 H   0  0  0  0  0  0  0  0  0  0  0  0
   16.5477    0.2461   -1.5245 H   0  0  0  0  0  0  0  0  0  0  0  0
   17.0879    1.8569   -1.0363 H   0  0  0  0  0  0  0  0  0  0  0  0
   15.5666    1.2048   -0.4152 H   0  0  0  0  0  0  0  0  0  0  0  0
   10.1740   -0.6356   -0.5521 H   0  0  0  0  0  0  0  0  0  0  0  0
    7.8290    2.9333    5.7063 H   0  0  0  0  0  0  0  0  0  0  0  0
    6.2420    2.8385    7.5425 H   0  0  0  0  0  0  0  0  0  0  0  0
    4.3544    1.4033   10.4057 H   0  0  0  0  0  0  0  0  0  0  0  0
    5.7722    1.9093    9.4745 H   0  0  0  0  0  0  0  0  0  0  0  0
    3.0206    3.2781    9.5209 H   0  0  0  0  0  0  0  0  0  0  0  0
    4.4972    3.9119   10.2503 H   0  0  0  0  0  0  0  0  0  0  0  0
    4.3440    3.7999    8.4913 H   0  0  0  0  0  0  0  0  0  0  0  0
    6.0597   -0.5680    3.9870 H   0  0  0  0  0  0  0  0  0  0  0  0
    9.6059    1.2479    6.0804 H   0  0  0  0  0  0  0  0  0  0  0  0
   12.1963    1.2983    5.8083 H   0  0  0  0  0  0  0  0  0  0  0  0
  1  2  2  0  0  0  0
  2  3  1  0  0  0  0
  3  4  2  0  0  0  0
  4  5  1  0  0  0  0
  5  6  2  0  0  0  0
  6  7  1  0  0  0  0
  7  8  2  0  0  0  0
  8  9  1  0  0  0  0
  9 10  1  0  0  0  0
 10 11  1  0  0  0  0
  8 12  1  0  0  0  0
 12 13  1  0  0  0  0
 12 14  2  0  0  0  0
  4 15  1  0  0  0  0
 15 16  2  0  0  0  0
 16 17  1  0  0  0  0
 17 18  1  0  0  0  0
 18 19  2  0  0  0  0
 19 20  1  0  0  0  0
 20 21  2  0  0  0  0
 21 22  1  0  0  0  0
 22 23  1  0  0  0  0
 23 24  1  0  0  0  0
 21 25  1  0  0  0  0
 25 26  2  0  0  0  0
 25 27  1  0  0  0  0
 17 28  2  0  0  0  0
 28 29  1  0  0  0  0
 16 30  1  0  0  0  0
 30 31  2  0  0  0  0
 31 32  1  0  0  0  0
 31 33  1  0  0  0  0
 33 34  2  0  0  0  0
 34 35  1  0  0  0  0
 35 36  1  0  0  0  0
 36 37  1  0  0  0  0
 34 38  1  0  0  0  0
 38 39  2  0  0  0  0
 39 40  1  0  0  0  0
 40 41  2  0  0  0  0
 38 42  1  0  0  0  0
 42 43  2  0  0  0  0
 43 44  1  0  0  0  0
 44 45  2  0  0  0  0
 45 46  1  0  0  0  0
 46 47  1  0  0  0  0
 47 48  1  0  0  0  0
 45 49  1  0  0  0  0
 49 50  2  0  0  0  0
 50 51  1  0  0  0  0
 51 52  2  0  0  0  0
 49 53  1  0  0  0  0
 53 54  2  0  0  0  0
 54 55  1  0  0  0  0
 55 56  2  0  0  0  0
 56 57  1  0  0  0  0
 57 58  2  0  0  0  0
 58 59  1  0  0  0  0
 59 60  2  0  0  0  0
 60 61  1  0  0  0  0
 61 62  2  0  0  0  0
 62 63  1  0  0  0  0
 63 64  1  0  0  0  0
 64 65  1  0  0  0  0
 62 66  1  0  0  0  0
 66 67  1  0  0  0  0
 66 68  2  0  0  0  0
 58 69  1  0  0  0  0
 69 70  2  0  0  0  0
 70 71  1  0  0  0  0
 71 72  1  0  0  0  0
 72 73  2  0  0  0  0
 73 74  1  0  0  0  0
 74 75  2  0  0  0  0
 75 76  1  0  0  0  0
 76 77  1  0  0  0  0
 77 78  1  0  0  0  0
 75 79  1  0  0  0  0
 79 80  2  0  0  0  0
 79 81  1  0  0  0  0
 71 82  2  0  0  0  0
 82 83  1  0  0  0  0
 70 84  1  0  0  0  0
 84 85  2  0  0  0  0
 85 86  1  0  0  0  0
 85 87  1  0  0  0  0
 87 88  2  0  0  0  0
 88 89  1  0  0  0  0
 89 90  2  0  0  0  0
 90 91  1  0  0  0  0
 91 92  2  0  0  0  0
 92 93  1  0  0  0  0
 93 94  2  0  0  0  0
 94 95  1  0  0  0  0
 95 96  1  0  0  0  0
 96 97  1  0  0  0  0
 94 98  1  0  0  0  0
 98 99  1  0  0  0  0
 98100  2  0  0  0  0
 90101  1  0  0  0  0
101102  2  0  0  0  0
102103  1  0  0  0  0
103104  1  0  0  0  0
104105  2  0  0  0  0
105106  1  0  0  0  0
106107  2  0  0  0  0
107108  1  0  0  0  0
108109  1  0  0  0  0
109110  1  0  0  0  0
107111  1  0  0  0  0
111112  2  0  0  0  0
111113  1  0  0  0  0
103114  2  0  0  0  0
114115  1  0  0  0  0
102116  1  0  0  0  0
116117  2  0  0  0  0
117118  1  0  0  0  0
117119  1  0  0  0  0
119120  2  0  0  0  0
120121  1  0  0  0  0
121122  2  0  0  0  0
122123  1  0  0  0  0
123124  2  0  0  0  0
124125  1  0  0  0  0
125126  2  0  0  0  0
126127  1  0  0  0  0
127128  1  0  0  0  0
128129  1  0  0  0  0
126130  1  0  0  0  0
130131  1  0  0  0  0
130132  2  0  0  0  0
122133  1  0  0  0  0
133134  2  0  0  0  0
134135  1  0  0  0  0
135136  1  0  0  0  0
136137  2  0  0  0  0
137138  1  0  0  0  0
138139  2  0  0  0  0
139140  1  0  0  0  0
140141  1  0  0  0  0
141142  1  0  0  0  0
139143  1  0  0  0  0
143144  2  0  0  0  0
143145  1  0  0  0  0
135146  2  0  0  0  0
146147  1  0  0  0  0
134148  1  0  0  0  0
148149  2  0  0  0  0
149150  1  0  0  0  0
 29  1  1  0  0  0  0
 41 33  1  0  0  0  0
 52 44  1  0  0  0  0
 83 55  1  0  0  0  0
115 87  1  0  0  0  0
147119  1  0  0  0  0
 28  3  1  0  0  0  0
 82 57  1  0  0  0  0
114 89  1  0  0  0  0
146121  1  0  0  0  0
 14  5  1  0  0  0  0
 32 15  1  0  0  0  0
 68 59  1  0  0  0  0
 86 69  1  0  0  0  0
100 91  1  0  0  0  0
118101  1  0  0  0  0
132123  1  0  0  0  0
150133  1  0  0  0  0
 26 18  1  0  0  0  0
 80 72  1  0  0  0  0
112104  1  0  0  0  0
144136  1  0  0  0  0
  1151  1  0  0  0  0
  2152  1  0  0  0  0
  6153  1  0  0  0  0
  7154  1  0  0  0  0
 10155  1  0  0  0  0
 10156  1  0  0  0  0
 11157  1  0  0  0  0
 11158  1  0  0  0  0
 11159  1  0  0  0  0
 14160  1  0  0  0  0
 19161  1  0  0  0  0
 20162  1  0  0  0  0
 23163  1  0  0  0  0
 23164  1  0  0  0  0
 24165  1  0  0  0  0
 24166  1  0  0  0  0
 24167  1  0  0  0  0
 26168  1  0  0  0  0
 30169  1  0  0  0  0
 36170  1  0  0  0  0
 36171  1  0  0  0  0
 37172  1  0  0  0  0
 37173  1  0  0  0  0
 37174  1  0  0  0  0
 39175  1  0  0  0  0
 40176  1  0  0  0  0
 41177  1  0  0  0  0
 42178  1  0  0  0  0
 43179  1  0  0  0  0
 47180  1  0  0  0  0
 47181  1  0  0  0  0
 48182  1  0  0  0  0
 48183  1  0  0  0  0
 48184  1  0  0  0  0
 50185  1  0  0  0  0
 51186  1  0  0  0  0
 52187  1  0  0  0  0
 53188  1  0  0  0  0
 54189  1  0  0  0  0
 56190  1  0  0  0  0
 60191  1  0  0  0  0
 61192  1  0  0  0  0
 64193  1  0  0  0  0
 64194  1  0  0  0  0
 65195  1  0  0  0  0
 65196  1  0  0  0  0
 65197  1  0  0  0  0
 68198  1  0  0  0  0
 73199  1  0  0  0  0
 74200  1  0  0  0  0
 77201  1  0  0  0  0
 77202  1  0  0  0  0
 78203  1  0  0  0  0
 78204  1  0  0  0  0
 78205  1  0  0  0  0
 80206  1  0  0  0  0
 84207  1  0  0  0  0
 88208  1  0  0  0  0
 92209  1  0  0  0  0
 93210  1  0  0  0  0
 96211  1  0  0  0  0
 96212  1  0  0  0  0
 97213  1  0  0  0  0
 97214  1  0  0  0  0
 97215  1  0  0  0  0
100216  1  0  0  0  0
105217  1  0  0  0  0
106218  1  0  0  0  0
109219  1  0  0  0  0
109220  1  0  0  0  0
110221  1  0  0  0  0
110222  1  0  0  0  0
110223  1  0  0  0  0
112224  1  0  0  0  0
116225  1  0  0  0  0
120226  1  0  0  0  0
124227  1  0  0  0  0
125228  1  0  0  0  0
128229  1  0  0  0  0
128230  1  0  0  0  0
129231  1  0  0  0  0
129232  1  0  0  0  0
129233  1  0  0  0  0
132234  1  0  0  0  0
137235  1  0  0  0  0
138236  1  0  0  0  0
141237  1  0  0  0  0
141238  1  0  0  0  0
142239  1  0  0  0  0
142240  1  0  0  0  0
142241  1  0  0  0  0
144242  1  0  0  0  0
148243  1  0  0  0  0
149244  1  0  0  0  0
M  END
