
  xtb     03082203323D
 energy: -349.674806554474 gnorm: 0.000280541456 xtb: 6.4.1 (unknown)
197217  0     0  0            999 V2000
    4.7032   -3.7645    3.5912 C   0  0  0  0  0  0  0  0  0  0  0  0
    5.1031   -2.0754    3.5155 S   0  0  0  0  0  3  0  0  0  0  0  0
    4.1346   -1.4681    2.1757 C   0  0  0  0  0  0  0  0  0  0  0  0
    4.1187   -0.1451    1.8593 C   0  0  0  0  0  0  0  0  0  0  0  0
    3.1278    0.1890    0.4948 S   0  0  0  0  0  0  0  0  0  0  0  0
    2.7146   -1.4748    0.3580 C   0  0  0  0  0  0  0  0  0  0  0  0
    3.3141   -2.2415    1.3083 C   0  0  0  0  0  0  0  0  0  0  0  0
    3.0273   -3.9760    1.3758 S   0  0  0  0  0  3  0  0  0  0  0  0
    3.9371   -4.5325    2.8005 C   0  0  0  0  0  0  0  0  0  0  0  0
    3.7855   -5.9566    2.9508 C   0  0  0  0  0  0  0  0  0  0  0  0
    4.3135   -6.7313    3.9179 C   0  0  0  0  0  0  0  0  0  0  0  0
    4.1924   -8.1612    3.9729 C   0  0  0  0  0  0  0  0  0  0  0  0
    3.2724   -8.8883    2.6265 S   0  0  0  0  0  3  0  0  0  0  0  0
    4.1829  -10.3698    2.3816 C   0  0  0  0  0  0  0  0  0  0  0  0
    4.4366  -10.9360    1.1728 C   0  0  0  0  0  0  0  0  0  0  0  0
    5.3023  -12.4144    1.3321 S   0  0  0  0  0  0  0  0  0  0  0  0
    5.3449  -12.2539    3.0451 C   0  0  0  0  0  0  0  0  0  0  0  0
    4.7063  -11.1286    3.4589 C   0  0  0  0  0  0  0  0  0  0  0  0
    4.4788  -10.6630    5.1368 S   0  0  0  0  0  3  0  0  0  0  0  0
    4.6905   -8.8909    5.0046 C   0  0  0  0  0  0  0  0  0  0  0  0
    5.4781   -8.3227    6.0849 C   0  0  0  0  0  0  0  0  0  0  0  0
    5.4132   -8.6962    7.3738 C   0  0  0  0  0  0  0  0  0  0  0  0
    4.4418   -9.6217    7.9123 C   0  0  0  0  0  0  0  0  0  0  0  0
    5.1576  -10.8069    9.0406 S   0  0  0  0  0  3  0  0  0  0  0  0
    4.3826  -12.2568    8.4193 C   0  0  0  0  0  0  0  0  0  0  0  0
    4.9896  -13.4659    8.2995 C   0  0  0  0  0  0  0  0  0  0  0  0
    3.9203  -14.6557    7.6665 S   0  0  0  0  0  0  0  0  0  0  0  0
    2.6495  -13.5035    7.5383 C   0  0  0  0  0  0  0  0  0  0  0  0
    3.0327  -12.2776    7.9800 C   0  0  0  0  0  0  0  0  0  0  0  0
    1.9790  -10.8690    8.0376 S   0  0  0  0  0  3  0  0  0  0  0  0
    3.1284   -9.6030    7.5728 C   0  0  0  0  0  0  0  0  0  0  0  0
    2.5648   -8.5145    6.8177 C   0  0  0  0  0  0  0  0  0  0  0  0
    1.5287   -8.6219    5.9667 C   0  0  0  0  0  0  0  0  0  0  0  0
    1.0421   -7.5297    5.1842 C   0  0  0  0  0  0  0  0  0  0  0  0
    1.2666   -6.1927    5.3447 C   0  0  0  0  0  0  0  0  0  0  0  0
    0.6636   -5.3857    4.3500 C   0  0  0  0  0  0  0  0  0  0  0  0
    0.7079   -3.9848    4.2240 C   0  0  0  0  0  0  0  0  0  0  0  0
    1.2824   -3.1302    5.2661 C   0  0  0  0  0  0  0  0  0  0  0  0
    2.0678   -2.0277    4.9450 C   0  0  0  0  0  0  0  0  0  0  0  0
    2.5912   -1.1970    5.9148 C   0  0  0  0  0  0  0  0  0  0  0  0
    2.3375   -1.4338    7.2608 C   0  0  0  0  0  0  0  0  0  0  0  0
    2.9350   -0.4559    8.5915 S   0  0  0  0  0  0  0  0  0  0  0  0
    3.7233    0.9661    7.7469 C   0  0  0  0  0  0  0  0  0  0  0  0
    4.1646    1.9695    8.7952 C   0  0  0  0  0  0  0  0  0  0  0  0
    1.5403   -2.5379    7.5751 C   0  0  0  0  0  0  0  0  0  0  0  0
    1.2624   -2.7945    8.8704 F   0  0  0  0  0  0  0  0  0  0  0  0
    1.0167   -3.3725    6.6153 C   0  0  0  0  0  0  0  0  0  0  0  0
    0.1439   -3.4545    3.0717 C   0  0  0  0  0  0  0  0  0  0  0  0
   -0.4978   -4.2376    2.0800 C   0  0  0  0  0  0  0  0  0  0  0  0
   -0.5750   -5.6315    2.2293 C   0  0  0  0  0  0  0  0  0  0  0  0
   -1.2026   -6.4759    1.2066 C   0  0  0  0  0  0  0  0  0  0  0  0
   -2.1689   -7.4185    1.5409 C   0  0  0  0  0  0  0  0  0  0  0  0
   -2.7608   -8.2096    0.5748 C   0  0  0  0  0  0  0  0  0  0  0  0
   -2.4057   -8.0851   -0.7631 C   0  0  0  0  0  0  0  0  0  0  0  0
   -3.0657   -9.0307   -2.0955 S   0  0  0  0  0  0  0  0  0  0  0  0
   -4.5308   -9.8542   -1.3830 C   0  0  0  0  0  0  0  0  0  0  0  0
   -5.6689   -8.8848   -1.1254 C   0  0  0  0  0  0  0  0  0  0  0  0
   -1.4197   -7.1488   -1.0808 C   0  0  0  0  0  0  0  0  0  0  0  0
   -0.8229   -6.3542   -0.1293 C   0  0  0  0  0  0  0  0  0  0  0  0
   -1.0362   -7.0133   -2.3676 F   0  0  0  0  0  0  0  0  0  0  0  0
   -0.0010   -6.1680    3.3717 C   0  0  0  0  0  0  0  0  0  0  0  0
    0.0645   -7.8622    3.7696 S   0  0  0  0  0  0  0  0  0  0  0  0
   -1.0337   -3.4407    1.0334 C   0  0  0  0  0  0  0  0  0  0  0  0
   -0.7851   -2.1119    1.1840 C   0  0  0  0  0  0  0  0  0  0  0  0
    0.0897   -1.7621    2.6620 S   0  0  0  0  0  0  0  0  0  0  0  0
   -1.0800   -1.0141    0.3206 C   0  0  0  0  0  0  0  0  0  0  0  0
   -0.4453    0.1899    0.3485 C   0  0  0  0  0  0  0  0  0  0  0  0
   -0.9207    1.1123   -0.6128 C   0  0  0  0  0  0  0  0  0  0  0  0
   -0.4547    2.4157   -0.8546 C   0  0  0  0  0  0  0  0  0  0  0  0
    0.7167    2.9157   -0.1237 C   0  0  0  0  0  0  0  0  0  0  0  0
    1.8269    3.3825   -0.8199 C   0  0  0  0  0  0  0  0  0  0  0  0
    3.0011    3.7005   -0.1655 C   0  0  0  0  0  0  0  0  0  0  0  0
    3.1081    3.5542    1.2118 C   0  0  0  0  0  0  0  0  0  0  0  0
    4.5648    3.8349    2.1651 S   0  0  0  0  0  0  0  0  0  0  0  0
    5.8941    3.9748    0.9216 C   0  0  0  0  0  0  0  0  0  0  0  0
    6.2271    2.6433    0.2749 C   0  0  0  0  0  0  0  0  0  0  0  0
    1.9663    3.1493    1.9049 C   0  0  0  0  0  0  0  0  0  0  0  0
    2.0273    3.0288    3.2481 F   0  0  0  0  0  0  0  0  0  0  0  0
    0.7880    2.8377    1.2663 C   0  0  0  0  0  0  0  0  0  0  0  0
   -1.0995    3.1247   -1.8540 C   0  0  0  0  0  0  0  0  0  0  0  0
   -2.1790    2.5938   -2.6054 C   0  0  0  0  0  0  0  0  0  0  0  0
   -2.6214    1.2789   -2.3833 C   0  0  0  0  0  0  0  0  0  0  0  0
   -3.7300    0.6967   -3.1487 C   0  0  0  0  0  0  0  0  0  0  0  0
   -3.5911   -0.5386   -3.7733 C   0  0  0  0  0  0  0  0  0  0  0  0
   -4.6325   -1.1031   -4.4835 C   0  0  0  0  0  0  0  0  0  0  0  0
   -5.8598   -0.4576   -4.5815 C   0  0  0  0  0  0  0  0  0  0  0  0
   -7.2671   -1.0584   -5.4518 S   0  0  0  0  0  0  0  0  0  0  0  0
   -6.8655   -2.8050   -5.8002 C   0  0  0  0  0  0  0  0  0  0  0  0
   -6.8929   -3.6650   -4.5509 C   0  0  0  0  0  0  0  0  0  0  0  0
   -5.9829    0.7841   -3.9539 C   0  0  0  0  0  0  0  0  0  0  0  0
   -4.9501    1.3625   -3.2520 C   0  0  0  0  0  0  0  0  0  0  0  0
   -7.1577    1.4419   -4.0296 F   0  0  0  0  0  0  0  0  0  0  0  0
   -1.9641    0.5618   -1.3954 C   0  0  0  0  0  0  0  0  0  0  0  0
   -2.3145   -1.0845   -0.9192 S   0  0  0  0  0  0  0  0  0  0  0  0
   -2.6633    3.5248   -3.5584 C   0  0  0  0  0  0  0  0  0  0  0  0
   -2.0217    4.7263   -3.5274 C   0  0  0  0  0  0  0  0  0  0  0  0
   -0.7452    4.7674   -2.3246 S   0  0  0  0  0  0  0  0  0  0  0  0
   -2.2963    5.8728   -4.3298 C   0  0  0  0  0  0  0  0  0  0  0  0
   -1.7143    7.1029   -4.2666 C   0  0  0  0  0  0  0  0  0  0  0  0
   -2.2435    8.0305   -5.2016 C   0  0  0  0  0  0  0  0  0  0  0  0
   -1.9044    9.3823   -5.3704 C   0  0  0  0  0  0  0  0  0  0  0  0
   -0.8235   10.0054   -4.5981 C   0  0  0  0  0  0  0  0  0  0  0  0
    0.4363    9.4173   -4.5297 C   0  0  0  0  0  0  0  0  0  0  0  0
    1.4644   10.0079   -3.8207 C   0  0  0  0  0  0  0  0  0  0  0  0
    1.2696   11.2122   -3.1542 C   0  0  0  0  0  0  0  0  0  0  0  0
    2.4813   12.0621   -2.1983 S   0  0  0  0  0  0  0  0  0  0  0  0
    4.0637   11.3082   -2.7113 C   0  0  0  0  0  0  0  0  0  0  0  0
    4.4409   11.6736   -4.1344 C   0  0  0  0  0  0  0  0  0  0  0  0
   -0.0019   11.7850   -3.2228 C   0  0  0  0  0  0  0  0  0  0  0  0
   -0.2320   12.9433   -2.5737 F   0  0  0  0  0  0  0  0  0  0  0  0
   -1.0335   11.2091   -3.9284 C   0  0  0  0  0  0  0  0  0  0  0  0
   -2.6341   10.0936   -6.3135 C   0  0  0  0  0  0  0  0  0  0  0  0
   -3.6637    9.5168   -7.0950 C   0  0  0  0  0  0  0  0  0  0  0  0
   -4.0016    8.1667   -6.9278 C   0  0  0  0  0  0  0  0  0  0  0  0
   -5.0841    7.5337   -7.6924 C   0  0  0  0  0  0  0  0  0  0  0  0
   -6.3610    8.0862   -7.7164 C   0  0  0  0  0  0  0  0  0  0  0  0
   -7.3903    7.4735   -8.4048 C   0  0  0  0  0  0  0  0  0  0  0  0
   -7.1780    6.2852   -9.0950 C   0  0  0  0  0  0  0  0  0  0  0  0
   -8.4010    5.4218  -10.0251 S   0  0  0  0  0  0  0  0  0  0  0  0
   -9.9794    5.9912   -9.3025 C   0  0  0  0  0  0  0  0  0  0  0  0
  -10.1480    5.5397   -7.8647 C   0  0  0  0  0  0  0  0  0  0  0  0
   -5.8879    5.7529   -9.0767 C   0  0  0  0  0  0  0  0  0  0  0  0
   -4.8553    6.3494   -8.3888 C   0  0  0  0  0  0  0  0  0  0  0  0
   -5.6374    4.6153   -9.7535 F   0  0  0  0  0  0  0  0  0  0  0  0
   -3.2737    7.4556   -5.9859 C   0  0  0  0  0  0  0  0  0  0  0  0
   -3.5415    5.7856   -5.5616 S   0  0  0  0  0  0  0  0  0  0  0  0
   -4.2035   10.4522   -8.0277 C   0  0  0  0  0  0  0  0  0  0  0  0
   -3.6215   11.6656   -7.9498 C   0  0  0  0  0  0  0  0  0  0  0  0
   -2.3820   11.7658   -6.7462 S   0  0  0  0  0  0  0  0  0  0  0  0
    5.2202   -4.2119    4.4254 H   0  0  0  0  0  0  0  0  0  0  0  0
    4.6320    0.6496    2.3613 H   0  0  0  0  0  0  0  0  0  0  0  0
    2.0469   -1.8014   -0.4128 H   0  0  0  0  0  0  0  0  0  0  0  0
    3.1970   -6.4213    2.1701 H   0  0  0  0  0  0  0  0  0  0  0  0
    4.8681   -6.2802    4.7271 H   0  0  0  0  0  0  0  0  0  0  0  0
    4.1446  -10.5791    0.2065 H   0  0  0  0  0  0  0  0  0  0  0  0
    5.8142  -13.0030    3.6493 H   0  0  0  0  0  0  0  0  0  0  0  0
    6.2173   -7.5867    5.7965 H   0  0  0  0  0  0  0  0  0  0  0  0
    6.1560   -8.3337    8.0717 H   0  0  0  0  0  0  0  0  0  0  0  0
    5.9936  -13.7256    8.5661 H   0  0  0  0  0  0  0  0  0  0  0  0
    1.6902  -13.7959    7.1633 H   0  0  0  0  0  0  0  0  0  0  0  0
    3.0659   -7.5627    6.9319 H   0  0  0  0  0  0  0  0  0  0  0  0
    1.0704   -9.5858    5.7924 H   0  0  0  0  0  0  0  0  0  0  0  0
    1.8590   -5.7920    6.1463 H   0  0  0  0  0  0  0  0  0  0  0  0
    2.2890   -1.8137    3.9129 H   0  0  0  0  0  0  0  0  0  0  0  0
    3.2000   -0.3629    5.6082 H   0  0  0  0  0  0  0  0  0  0  0  0
    4.5779    0.5933    7.1816 H   0  0  0  0  0  0  0  0  0  0  0  0
    2.9876    1.4047    7.0731 H   0  0  0  0  0  0  0  0  0  0  0  0
    3.3108    2.3178    9.3717 H   0  0  0  0  0  0  0  0  0  0  0  0
    4.6315    2.8245    8.3113 H   0  0  0  0  0  0  0  0  0  0  0  0
    4.8807    1.5189    9.4787 H   0  0  0  0  0  0  0  0  0  0  0  0
    0.3739   -4.1824    6.9224 H   0  0  0  0  0  0  0  0  0  0  0  0
   -2.4772   -7.5251    2.5696 H   0  0  0  0  0  0  0  0  0  0  0  0
   -3.5022   -8.9300    0.8791 H   0  0  0  0  0  0  0  0  0  0  0  0
   -4.8080  -10.5826   -2.1452 H   0  0  0  0  0  0  0  0  0  0  0  0
   -4.2273  -10.3918   -0.4857 H   0  0  0  0  0  0  0  0  0  0  0  0
   -6.5313   -9.4214   -0.7347 H   0  0  0  0  0  0  0  0  0  0  0  0
   -5.9564   -8.3908   -2.0506 H   0  0  0  0  0  0  0  0  0  0  0  0
   -5.3787   -8.1217   -0.4063 H   0  0  0  0  0  0  0  0  0  0  0  0
   -0.0504   -5.6623   -0.4269 H   0  0  0  0  0  0  0  0  0  0  0  0
   -1.5803   -3.8384    0.1972 H   0  0  0  0  0  0  0  0  0  0  0  0
    0.3561    0.3984    1.0324 H   0  0  0  0  0  0  0  0  0  0  0  0
    1.7849    3.4662   -1.8949 H   0  0  0  0  0  0  0  0  0  0  0  0
    3.8400    4.0468   -0.7464 H   0  0  0  0  0  0  0  0  0  0  0  0
    6.7418    4.3507    1.4945 H   0  0  0  0  0  0  0  0  0  0  0  0
    5.6073    4.7319    0.1934 H   0  0  0  0  0  0  0  0  0  0  0  0
    7.0124    2.7792   -0.4662 H   0  0  0  0  0  0  0  0  0  0  0  0
    5.3546    2.2162   -0.2157 H   0  0  0  0  0  0  0  0  0  0  0  0
    6.5790    1.9378    1.0240 H   0  0  0  0  0  0  0  0  0  0  0  0
   -0.0648    2.5366    1.8542 H   0  0  0  0  0  0  0  0  0  0  0  0
   -2.6470   -1.0591   -3.7234 H   0  0  0  0  0  0  0  0  0  0  0  0
   -4.4729   -2.0525   -4.9674 H   0  0  0  0  0  0  0  0  0  0  0  0
   -5.9070   -2.8466   -6.3158 H   0  0  0  0  0  0  0  0  0  0  0  0
   -7.6459   -3.1100   -6.4974 H   0  0  0  0  0  0  0  0  0  0  0  0
   -6.6733   -4.6991   -4.8096 H   0  0  0  0  0  0  0  0  0  0  0  0
   -6.1580   -3.3254   -3.8241 H   0  0  0  0  0  0  0  0  0  0  0  0
   -7.8762   -3.6224   -4.0884 H   0  0  0  0  0  0  0  0  0  0  0  0
   -5.1113    2.3118   -2.7656 H   0  0  0  0  0  0  0  0  0  0  0  0
   -3.4569    3.3120   -4.2521 H   0  0  0  0  0  0  0  0  0  0  0  0
   -0.9483    7.3458   -3.5517 H   0  0  0  0  0  0  0  0  0  0  0  0
    0.6219    8.4938   -5.0575 H   0  0  0  0  0  0  0  0  0  0  0  0
    2.4228    9.5154   -3.7894 H   0  0  0  0  0  0  0  0  0  0  0  0
    4.7814   11.7208   -2.0022 H   0  0  0  0  0  0  0  0  0  0  0  0
    4.0060   10.2314   -2.5571 H   0  0  0  0  0  0  0  0  0  0  0  0
    5.4069   11.2394   -4.3853 H   0  0  0  0  0  0  0  0  0  0  0  0
    3.7001   11.3075   -4.8421 H   0  0  0  0  0  0  0  0  0  0  0  0
    4.5075   12.7539   -4.2378 H   0  0  0  0  0  0  0  0  0  0  0  0
   -1.9968   11.6936   -3.9374 H   0  0  0  0  0  0  0  0  0  0  0  0
   -6.5571    8.9972   -7.1710 H   0  0  0  0  0  0  0  0  0  0  0  0
   -8.3652    7.9336   -8.4029 H   0  0  0  0  0  0  0  0  0  0  0  0
  -10.0484    7.0730   -9.4111 H   0  0  0  0  0  0  0  0  0  0  0  0
  -10.7298    5.5310   -9.9453 H   0  0  0  0  0  0  0  0  0  0  0  0
  -10.0820    4.4563   -7.8007 H   0  0  0  0  0  0  0  0  0  0  0  0
  -11.1210    5.8525   -7.4905 H   0  0  0  0  0  0  0  0  0  0  0  0
   -9.3766    5.9672   -7.2274 H   0  0  0  0  0  0  0  0  0  0  0  0
   -3.8777    5.8944   -8.4112 H   0  0  0  0  0  0  0  0  0  0  0  0
   -4.9791   10.2037   -8.7291 H   0  0  0  0  0  0  0  0  0  0  0  0
   -3.8379   12.5394   -8.5328 H   0  0  0  0  0  0  0  0  0  0  0  0
  1  2  2  0  0  0  0
  2  3  1  0  0  0  0
  3  4  2  0  0  0  0
  4  5  1  0  0  0  0
  5  6  1  0  0  0  0
  6  7  2  0  0  0  0
  7  8  1  0  0  0  0
  8  9  2  0  0  0  0
  9 10  1  0  0  0  0
 10 11  2  0  0  0  0
 11 12  1  0  0  0  0
 12 13  2  0  0  0  0
 13 14  1  0  0  0  0
 14 15  2  0  0  0  0
 15 16  1  0  0  0  0
 16 17  1  0  0  0  0
 17 18  2  0  0  0  0
 18 19  1  0  0  0  0
 19 20  2  0  0  0  0
 20 21  1  0  0  0  0
 21 22  2  0  0  0  0
 22 23  1  0  0  0  0
 23 24  2  0  0  0  0
 24 25  1  0  0  0  0
 25 26  2  0  0  0  0
 26 27  1  0  0  0  0
 27 28  1  0  0  0  0
 28 29  2  0  0  0  0
 29 30  1  0  0  0  0
 30 31  2  0  0  0  0
 31 32  1  0  0  0  0
 32 33  2  0  0  0  0
 33 34  1  0  0  0  0
 34 35  2  0  0  0  0
 35 36  1  0  0  0  0
 36 37  2  0  0  0  0
 37 38  1  0  0  0  0
 38 39  2  0  0  0  0
 39 40  1  0  0  0  0
 40 41  2  0  0  0  0
 41 42  1  0  0  0  0
 42 43  1  0  0  0  0
 43 44  1  0  0  0  0
 41 45  1  0  0  0  0
 45 46  1  0  0  0  0
 45 47  2  0  0  0  0
 37 48  1  0  0  0  0
 48 49  2  0  0  0  0
 49 50  1  0  0  0  0
 50 51  1  0  0  0  0
 51 52  2  0  0  0  0
 52 53  1  0  0  0  0
 53 54  2  0  0  0  0
 54 55  1  0  0  0  0
 55 56  1  0  0  0  0
 56 57  1  0  0  0  0
 54 58  1  0  0  0  0
 58 59  2  0  0  0  0
 58 60  1  0  0  0  0
 50 61  2  0  0  0  0
 61 62  1  0  0  0  0
 49 63  1  0  0  0  0
 63 64  2  0  0  0  0
 64 65  1  0  0  0  0
 64 66  1  0  0  0  0
 66 67  2  0  0  0  0
 67 68  1  0  0  0  0
 68 69  2  0  0  0  0
 69 70  1  0  0  0  0
 70 71  2  0  0  0  0
 71 72  1  0  0  0  0
 72 73  2  0  0  0  0
 73 74  1  0  0  0  0
 74 75  1  0  0  0  0
 75 76  1  0  0  0  0
 73 77  1  0  0  0  0
 77 78  1  0  0  0  0
 77 79  2  0  0  0  0
 69 80  1  0  0  0  0
 80 81  2  0  0  0  0
 81 82  1  0  0  0  0
 82 83  1  0  0  0  0
 83 84  2  0  0  0  0
 84 85  1  0  0  0  0
 85 86  2  0  0  0  0
 86 87  1  0  0  0  0
 87 88  1  0  0  0  0
 88 89  1  0  0  0  0
 86 90  1  0  0  0  0
 90 91  2  0  0  0  0
 90 92  1  0  0  0  0
 82 93  2  0  0  0  0
 93 94  1  0  0  0  0
 81 95  1  0  0  0  0
 95 96  2  0  0  0  0
 96 97  1  0  0  0  0
 96 98  1  0  0  0  0
 98 99  2  0  0  0  0
 99100  1  0  0  0  0
100101  2  0  0  0  0
101102  1  0  0  0  0
102103  2  0  0  0  0
103104  1  0  0  0  0
104105  2  0  0  0  0
105106  1  0  0  0  0
106107  1  0  0  0  0
107108  1  0  0  0  0
105109  1  0  0  0  0
109110  1  0  0  0  0
109111  2  0  0  0  0
101112  1  0  0  0  0
112113  2  0  0  0  0
113114  1  0  0  0  0
114115  1  0  0  0  0
115116  2  0  0  0  0
116117  1  0  0  0  0
117118  2  0  0  0  0
118119  1  0  0  0  0
119120  1  0  0  0  0
120121  1  0  0  0  0
118122  1  0  0  0  0
122123  2  0  0  0  0
122124  1  0  0  0  0
114125  2  0  0  0  0
125126  1  0  0  0  0
113127  1  0  0  0  0
127128  2  0  0  0  0
128129  1  0  0  0  0
  9  1  1  0  0  0  0
 20 12  1  0  0  0  0
 31 23  1  0  0  0  0
 62 34  1  0  0  0  0
 94 66  1  0  0  0  0
126 98  1  0  0  0  0
  7  3  1  0  0  0  0
 18 14  1  0  0  0  0
 29 25  1  0  0  0  0
 61 36  1  0  0  0  0
 93 68  1  0  0  0  0
125100  1  0  0  0  0
 47 38  1  0  0  0  0
 65 48  1  0  0  0  0
 79 70  1  0  0  0  0
 97 80  1  0  0  0  0
111102  1  0  0  0  0
129112  1  0  0  0  0
 59 51  1  0  0  0  0
 91 83  1  0  0  0  0
123115  1  0  0  0  0
  1130  1  0  0  0  0
  4131  1  0  0  0  0
  6132  1  0  0  0  0
 10133  1  0  0  0  0
 11134  1  0  0  0  0
 15135  1  0  0  0  0
 17136  1  0  0  0  0
 21137  1  0  0  0  0
 22138  1  0  0  0  0
 26139  1  0  0  0  0
 28140  1  0  0  0  0
 32141  1  0  0  0  0
 33142  1  0  0  0  0
 35143  1  0  0  0  0
 39144  1  0  0  0  0
 40145  1  0  0  0  0
 43146  1  0  0  0  0
 43147  1  0  0  0  0
 44148  1  0  0  0  0
 44149  1  0  0  0  0
 44150  1  0  0  0  0
 47151  1  0  0  0  0
 52152  1  0  0  0  0
 53153  1  0  0  0  0
 56154  1  0  0  0  0
 56155  1  0  0  0  0
 57156  1  0  0  0  0
 57157  1  0  0  0  0
 57158  1  0  0  0  0
 59159  1  0  0  0  0
 63160  1  0  0  0  0
 67161  1  0  0  0  0
 71162  1  0  0  0  0
 72163  1  0  0  0  0
 75164  1  0  0  0  0
 75165  1  0  0  0  0
 76166  1  0  0  0  0
 76167  1  0  0  0  0
 76168  1  0  0  0  0
 79169  1  0  0  0  0
 84170  1  0  0  0  0
 85171  1  0  0  0  0
 88172  1  0  0  0  0
 88173  1  0  0  0  0
 89174  1  0  0  0  0
 89175  1  0  0  0  0
 89176  1  0  0  0  0
 91177  1  0  0  0  0
 95178  1  0  0  0  0
 99179  1  0  0  0  0
103180  1  0  0  0  0
104181  1  0  0  0  0
107182  1  0  0  0  0
107183  1  0  0  0  0
108184  1  0  0  0  0
108185  1  0  0  0  0
108186  1  0  0  0  0
111187  1  0  0  0  0
116188  1  0  0  0  0
117189  1  0  0  0  0
120190  1  0  0  0  0
120191  1  0  0  0  0
121192  1  0  0  0  0
121193  1  0  0  0  0
121194  1  0  0  0  0
123195  1  0  0  0  0
127196  1  0  0  0  0
128197  1  0  0  0  0
M  END
