
  xtb     03052207283D
 energy: -389.389728578111 gnorm: 0.000268901046 xtb: 6.4.1 (unknown)
220241  0     0  0            999 V2000
   -1.5745   -1.2959  -10.6046 C   0  0  0  0  0  0  0  0  0  0  0  0
   -0.4667   -0.6706  -10.1551 C   0  0  0  0  0  0  0  0  0  0  0  0
   -0.5791   -0.2477   -8.7976 C   0  0  0  0  0  0  0  0  0  0  0  0
    0.3646    0.4468   -8.0215 C   0  0  0  0  0  0  0  0  0  0  0  0
    1.7191    0.7083   -8.5174 C   0  0  0  0  0  0  0  0  0  0  0  0
    2.4543   -0.3032   -9.1372 C   0  0  0  0  0  0  0  0  0  0  0  0
    3.7513   -0.0796   -9.5470 C   0  0  0  0  0  0  0  0  0  0  0  0
    4.3641    1.1587   -9.3680 C   0  0  0  0  0  0  0  0  0  0  0  0
    6.0303    1.3423   -9.9373 S   0  0  0  0  0  0  0  0  0  0  0  0
    6.8373    2.2548   -8.5698 C   0  0  0  0  0  0  0  0  0  0  0  0
    6.7055    1.5257   -7.2474 C   0  0  0  0  0  0  0  0  0  0  0  0
    3.6065    2.1697   -8.7856 C   0  0  0  0  0  0  0  0  0  0  0  0
    4.1189    3.4096   -8.6259 F   0  0  0  0  0  0  0  0  0  0  0  0
    2.3148    1.9543   -8.3499 C   0  0  0  0  0  0  0  0  0  0  0  0
   -0.0369    0.8218   -6.7465 C   0  0  0  0  0  0  0  0  0  0  0  0
   -1.3160    0.5140   -6.2263 C   0  0  0  0  0  0  0  0  0  0  0  0
   -2.2511   -0.2002   -6.9896 C   0  0  0  0  0  0  0  0  0  0  0  0
   -3.5827   -0.5010   -6.4533 C   0  0  0  0  0  0  0  0  0  0  0  0
   -4.3631    0.5104   -5.8993 C   0  0  0  0  0  0  0  0  0  0  0  0
   -5.6140    0.2488   -5.3763 C   0  0  0  0  0  0  0  0  0  0  0  0
   -6.1309   -1.0413   -5.3933 C   0  0  0  0  0  0  0  0  0  0  0  0
   -7.6917   -1.5253   -4.7360 S   0  0  0  0  0  0  0  0  0  0  0  0
   -8.5049    0.0447   -4.2752 C   0  0  0  0  0  0  0  0  0  0  0  0
   -9.0236    0.7991   -5.4846 C   0  0  0  0  0  0  0  0  0  0  0  0
   -5.3386   -2.0456   -5.9549 C   0  0  0  0  0  0  0  0  0  0  0  0
   -4.0908   -1.7976   -6.4808 C   0  0  0  0  0  0  0  0  0  0  0  0
   -5.8079   -3.3090   -5.9721 F   0  0  0  0  0  0  0  0  0  0  0  0
   -1.8493   -0.5730   -8.2625 C   0  0  0  0  0  0  0  0  0  0  0  0
   -2.8323   -1.4172   -9.4264 S   0  0  0  0  0  0  0  0  0  0  0  0
   -1.4607    0.9357   -4.8833 C   0  0  0  0  0  0  0  0  0  0  0  0
   -0.3580    1.5543   -4.3750 C   0  0  0  0  0  0  0  0  0  0  0  0
    0.9403    1.6403   -5.5451 S   0  0  0  0  0  0  0  0  0  0  0  0
   -0.2607    1.9742   -3.0113 C   0  0  0  0  0  0  0  0  0  0  0  0
   -1.3389    2.2432   -2.2213 C   0  0  0  0  0  0  0  0  0  0  0  0
   -1.0470    2.2860   -0.8360 C   0  0  0  0  0  0  0  0  0  0  0  0
   -1.9352    2.4471    0.2422 C   0  0  0  0  0  0  0  0  0  0  0  0
   -3.3623    2.7068    0.0297 C   0  0  0  0  0  0  0  0  0  0  0  0
   -4.0301    3.6598    0.7957 C   0  0  0  0  0  0  0  0  0  0  0  0
   -5.3721    3.9280    0.6088 C   0  0  0  0  0  0  0  0  0  0  0  0
   -6.1026    3.2655   -0.3716 C   0  0  0  0  0  0  0  0  0  0  0  0
   -7.8131    3.4801   -0.7217 S   0  0  0  0  0  0  0  0  0  0  0  0
   -8.3349    4.8504    0.3626 C   0  0  0  0  0  0  0  0  0  0  0  0
   -7.8808    6.2025   -0.1542 C   0  0  0  0  0  0  0  0  0  0  0  0
   -5.4209    2.3179   -1.1370 C   0  0  0  0  0  0  0  0  0  0  0  0
   -6.0955    1.6576   -2.1058 F   0  0  0  0  0  0  0  0  0  0  0  0
   -4.0917    2.0228   -0.9445 C   0  0  0  0  0  0  0  0  0  0  0  0
   -1.3887    2.3365    1.5176 C   0  0  0  0  0  0  0  0  0  0  0  0
   -0.0065    2.1150    1.7487 C   0  0  0  0  0  0  0  0  0  0  0  0
    0.8876    2.0345    0.6682 C   0  0  0  0  0  0  0  0  0  0  0  0
    2.3381    1.9041    0.8577 C   0  0  0  0  0  0  0  0  0  0  0  0
    3.0575    0.8653    0.2738 C   0  0  0  0  0  0  0  0  0  0  0  0
    4.4300    0.8045    0.4009 C   0  0  0  0  0  0  0  0  0  0  0  0
    5.1273    1.7866    1.0936 C   0  0  0  0  0  0  0  0  0  0  0  0
    6.8957    1.6579    1.2168 S   0  0  0  0  0  0  0  0  0  0  0  0
    7.4235    3.2764    0.5409 C   0  0  0  0  0  0  0  0  0  0  0  0
    7.0201    3.4307   -0.9116 C   0  0  0  0  0  0  0  0  0  0  0  0
    4.3937    2.8054    1.6906 C   0  0  0  0  0  0  0  0  0  0  0  0
    3.0209    2.8714    1.5865 C   0  0  0  0  0  0  0  0  0  0  0  0
    5.0201    3.7838    2.3787 F   0  0  0  0  0  0  0  0  0  0  0  0
    0.3382    2.0961   -0.5994 C   0  0  0  0  0  0  0  0  0  0  0  0
    1.2307    1.9411   -2.0949 S   0  0  0  0  0  0  0  0  0  0  0  0
    0.2752    1.8853    3.1193 C   0  0  0  0  0  0  0  0  0  0  0  0
   -0.8421    1.9190    3.8993 C   0  0  0  0  0  0  0  0  0  0  0  0
   -2.2878    2.3196    3.0146 S   0  0  0  0  0  0  0  0  0  0  0  0
   -0.9698    1.5849    5.2795 C   0  0  0  0  0  0  0  0  0  0  0  0
    0.0205    0.9862    5.9768 O   0  0  0  0  0  0  0  0  0  0  0  0
   -0.5429    0.8122    7.2031 C   0  0  0  0  0  0  0  0  0  0  0  0
   -1.7635    1.2741    7.2256 N   0  0  0  0  0  0  0  0  0  0  0  0
   -2.0378    1.7521    6.0132 N   0  0  0  0  0  0  0  0  0  0  0  0
    0.1444    0.1935    8.2932 C   0  0  0  0  0  0  0  0  0  0  0  0
    1.2954   -0.4824    8.1396 C   0  0  0  0  0  0  0  0  0  0  0  0
    2.0128   -1.0729    9.2276 C   0  0  0  0  0  0  0  0  0  0  0  0
    3.1424   -1.7839    8.9817 O   0  0  0  0  0  0  0  0  0  0  0  0
    3.5550   -2.1467   10.2183 C   0  0  0  0  0  0  0  0  0  0  0  0
    2.7358   -1.6866   11.1306 N   0  0  0  0  0  0  0  0  0  0  0  0
    1.7695   -1.0159   10.5105 N   0  0  0  0  0  0  0  0  0  0  0  0
    4.6975   -2.9766   10.4879 C   0  0  0  0  0  0  0  0  0  0  0  0
    5.4479   -3.6096    9.5728 C   0  0  0  0  0  0  0  0  0  0  0  0
    5.2243   -3.4621    8.1473 C   0  0  0  0  0  0  0  0  0  0  0  0
    5.2387   -2.3154    7.4265 C   0  0  0  0  0  0  0  0  0  0  0  0
    4.6494   -2.4457    6.1393 C   0  0  0  0  0  0  0  0  0  0  0  0
    4.3018   -1.4211    5.2482 C   0  0  0  0  0  0  0  0  0  0  0  0
    4.7385   -0.0329    5.4565 C   0  0  0  0  0  0  0  0  0  0  0  0
    5.4590    0.6243    4.4648 C   0  0  0  0  0  0  0  0  0  0  0  0
    5.9513    1.8993    4.6647 C   0  0  0  0  0  0  0  0  0  0  0  0
    5.7149    2.5802    5.8529 C   0  0  0  0  0  0  0  0  0  0  0  0
    6.2780    4.1994    6.2453 S   0  0  0  0  0  0  0  0  0  0  0  0
    7.3308    4.6737    4.8320 C   0  0  0  0  0  0  0  0  0  0  0  0
    8.6837    3.9871    4.8522 C   0  0  0  0  0  0  0  0  0  0  0  0
    4.9565    1.9226    6.8234 C   0  0  0  0  0  0  0  0  0  0  0  0
    4.6842    2.5521    7.9856 F   0  0  0  0  0  0  0  0  0  0  0  0
    4.4842    0.6422    6.6482 C   0  0  0  0  0  0  0  0  0  0  0  0
    3.4858   -1.7836    4.1877 C   0  0  0  0  0  0  0  0  0  0  0  0
    3.0835   -3.1152    3.9266 C   0  0  0  0  0  0  0  0  0  0  0  0
    3.5145   -4.1524    4.7652 C   0  0  0  0  0  0  0  0  0  0  0  0
    3.1427   -5.5570    4.5482 C   0  0  0  0  0  0  0  0  0  0  0  0
    1.8150   -5.9579    4.4114 C   0  0  0  0  0  0  0  0  0  0  0  0
    1.5021   -7.2845    4.2113 C   0  0  0  0  0  0  0  0  0  0  0  0
    2.4913   -8.2670    4.1445 C   0  0  0  0  0  0  0  0  0  0  0  0
    1.9436   -9.9260    3.9072 S   0  0  0  0  0  0  0  0  0  0  0  0
    3.3501  -10.7639    3.0720 C   0  0  0  0  0  0  0  0  0  0  0  0
    2.8293  -12.0037    2.3720 C   0  0  0  0  0  0  0  0  0  0  0  0
    3.8091   -7.8552    4.3207 C   0  0  0  0  0  0  0  0  0  0  0  0
    4.1368   -6.5283    4.5114 C   0  0  0  0  0  0  0  0  0  0  0  0
    4.8271   -8.7455    4.3168 F   0  0  0  0  0  0  0  0  0  0  0  0
    4.2578   -3.7795    5.8764 C   0  0  0  0  0  0  0  0  0  0  0  0
    4.6512   -4.8329    7.2111 S   0  0  0  0  0  0  0  0  0  0  0  0
    2.1371   -3.1790    2.8641 C   0  0  0  0  0  0  0  0  0  0  0  0
    1.7714   -1.9637    2.3883 C   0  0  0  0  0  0  0  0  0  0  0  0
    2.6734   -0.6558    3.1354 S   0  0  0  0  0  0  0  0  0  0  0  0
    0.5995   -1.6794    1.5839 C   0  0  0  0  0  0  0  0  0  0  0  0
    0.3151   -1.8847    0.2785 C   0  0  0  0  0  0  0  0  0  0  0  0
   -1.0373   -1.5784   -0.0718 C   0  0  0  0  0  0  0  0  0  0  0  0
   -1.6413   -1.6191   -1.3433 C   0  0  0  0  0  0  0  0  0  0  0  0
   -0.8431   -1.7862   -2.5611 C   0  0  0  0  0  0  0  0  0  0  0  0
    0.4110   -1.1852   -2.6461 C   0  0  0  0  0  0  0  0  0  0  0  0
    1.1969   -1.2771   -3.7752 C   0  0  0  0  0  0  0  0  0  0  0  0
    0.7559   -1.9815   -4.8881 C   0  0  0  0  0  0  0  0  0  0  0  0
    1.6527   -2.1902   -6.3871 S   0  0  0  0  0  0  0  0  0  0  0  0
    3.2815   -1.4420   -6.0411 C   0  0  0  0  0  0  0  0  0  0  0  0
    4.1494   -2.3195   -5.1590 C   0  0  0  0  0  0  0  0  0  0  0  0
   -0.5096   -2.5651   -4.8056 C   0  0  0  0  0  0  0  0  0  0  0  0
   -0.9823   -3.2377   -5.8752 F   0  0  0  0  0  0  0  0  0  0  0  0
   -1.2962   -2.4893   -3.6786 C   0  0  0  0  0  0  0  0  0  0  0  0
   -3.0222   -1.4343   -1.3655 C   0  0  0  0  0  0  0  0  0  0  0  0
   -3.7945   -1.1687   -0.2070 C   0  0  0  0  0  0  0  0  0  0  0  0
   -3.1716   -0.9823    1.0373 C   0  0  0  0  0  0  0  0  0  0  0  0
   -3.9003   -0.5089    2.2178 C   0  0  0  0  0  0  0  0  0  0  0  0
   -4.8613    0.5001    2.1100 C   0  0  0  0  0  0  0  0  0  0  0  0
   -5.4566    1.0330    3.2278 C   0  0  0  0  0  0  0  0  0  0  0  0
   -5.1389    0.6003    4.5189 C   0  0  0  0  0  0  0  0  0  0  0  0
   -5.9929    1.4325    5.8084 S   0  0  0  0  0  0  0  0  0  0  0  0
   -5.1636    1.0563    7.3940 C   0  0  0  0  0  0  0  0  0  0  0  0
   -5.7444   -0.1611    8.0857 C   0  0  0  0  0  0  0  0  0  0  0  0
   -4.2164   -0.4374    4.6108 C   0  0  0  0  0  0  0  0  0  0  0  0
   -3.6135   -0.9832    3.4947 C   0  0  0  0  0  0  0  0  0  0  0  0
   -3.8700   -0.9767    5.8012 F   0  0  0  0  0  0  0  0  0  0  0  0
   -1.8005   -1.2184    1.0640 C   0  0  0  0  0  0  0  0  0  0  0  0
   -0.7965   -1.1159    2.4840 S   0  0  0  0  0  0  0  0  0  0  0  0
   -5.1909   -1.1243   -0.5038 C   0  0  0  0  0  0  0  0  0  0  0  0
   -5.4571   -1.2708   -1.8154 C   0  0  0  0  0  0  0  0  0  0  0  0
   -4.0420   -1.4740   -2.7863 S   0  0  0  0  0  0  0  0  0  0  0  0
   -1.7449   -1.7071  -11.5805 H   0  0  0  0  0  0  0  0  0  0  0  0
    0.3982   -0.4863  -10.7656 H   0  0  0  0  0  0  0  0  0  0  0  0
    2.0178   -1.2833   -9.2512 H   0  0  0  0  0  0  0  0  0  0  0  0
    4.3227   -0.8698  -10.0093 H   0  0  0  0  0  0  0  0  0  0  0  0
    6.4260    3.2607   -8.5231 H   0  0  0  0  0  0  0  0  0  0  0  0
    7.8787    2.3107   -8.8863 H   0  0  0  0  0  0  0  0  0  0  0  0
    5.6642    1.4774   -6.9328 H   0  0  0  0  0  0  0  0  0  0  0  0
    7.2715    2.0519   -6.4813 H   0  0  0  0  0  0  0  0  0  0  0  0
    7.0892    0.5108   -7.3318 H   0  0  0  0  0  0  0  0  0  0  0  0
    1.7755    2.7781   -7.9094 H   0  0  0  0  0  0  0  0  0  0  0  0
   -3.9944    1.5255   -5.8964 H   0  0  0  0  0  0  0  0  0  0  0  0
   -6.1759    1.0589   -4.9421 H   0  0  0  0  0  0  0  0  0  0  0  0
   -7.8155    0.6361   -3.6752 H   0  0  0  0  0  0  0  0  0  0  0  0
   -9.3302   -0.2749   -3.6386 H   0  0  0  0  0  0  0  0  0  0  0  0
   -9.5241    1.7099   -5.1617 H   0  0  0  0  0  0  0  0  0  0  0  0
   -8.2126    1.0677   -6.1581 H   0  0  0  0  0  0  0  0  0  0  0  0
   -9.7347    0.1864   -6.0340 H   0  0  0  0  0  0  0  0  0  0  0  0
   -3.5127   -2.6154   -6.8806 H   0  0  0  0  0  0  0  0  0  0  0  0
   -2.3369    0.7241   -4.2993 H   0  0  0  0  0  0  0  0  0  0  0  0
   -2.3144    2.4053   -2.6356 H   0  0  0  0  0  0  0  0  0  0  0  0
   -3.4895    4.2166    1.5443 H   0  0  0  0  0  0  0  0  0  0  0  0
   -5.8425    4.6641    1.2389 H   0  0  0  0  0  0  0  0  0  0  0  0
   -9.4228    4.7809    0.3573 H   0  0  0  0  0  0  0  0  0  0  0  0
   -7.9798    4.6444    1.3713 H   0  0  0  0  0  0  0  0  0  0  0  0
   -8.2869    6.3804   -1.1472 H   0  0  0  0  0  0  0  0  0  0  0  0
   -8.2332    6.9883    0.5110 H   0  0  0  0  0  0  0  0  0  0  0  0
   -6.7960    6.2581   -0.2139 H   0  0  0  0  0  0  0  0  0  0  0  0
   -3.6465    1.2338   -1.5265 H   0  0  0  0  0  0  0  0  0  0  0  0
    2.5372    0.0934   -0.2712 H   0  0  0  0  0  0  0  0  0  0  0  0
    4.9865   -0.0045   -0.0461 H   0  0  0  0  0  0  0  0  0  0  0  0
    8.5074    3.2644    0.6525 H   0  0  0  0  0  0  0  0  0  0  0  0
    7.0112    4.0693    1.1616 H   0  0  0  0  0  0  0  0  0  0  0  0
    5.9360    3.4240   -1.0147 H   0  0  0  0  0  0  0  0  0  0  0  0
    7.3988    4.3738   -1.3005 H   0  0  0  0  0  0  0  0  0  0  0  0
    7.4288    2.6179   -1.5082 H   0  0  0  0  0  0  0  0  0  0  0  0
    2.4949    3.6879    2.0563 H   0  0  0  0  0  0  0  0  0  0  0  0
    1.2555    1.6610    3.4989 H   0  0  0  0  0  0  0  0  0  0  0  0
   -0.3253    0.2861    9.2595 H   0  0  0  0  0  0  0  0  0  0  0  0
    1.7389   -0.6117    7.1611 H   0  0  0  0  0  0  0  0  0  0  0  0
    4.8737   -3.1159   11.5434 H   0  0  0  0  0  0  0  0  0  0  0  0
    6.2062   -4.3090    9.8976 H   0  0  0  0  0  0  0  0  0  0  0  0
    5.6115   -1.3869    7.8188 H   0  0  0  0  0  0  0  0  0  0  0  0
    5.6689    0.1207    3.5326 H   0  0  0  0  0  0  0  0  0  0  0  0
    6.5322    2.3536    3.8812 H   0  0  0  0  0  0  0  0  0  0  0  0
    7.4446    5.7512    4.9524 H   0  0  0  0  0  0  0  0  0  0  0  0
    6.7755    4.4846    3.9166 H   0  0  0  0  0  0  0  0  0  0  0  0
    9.2084    4.2191    5.7761 H   0  0  0  0  0  0  0  0  0  0  0  0
    9.2854    4.3345    4.0142 H   0  0  0  0  0  0  0  0  0  0  0  0
    8.5800    2.9069    4.7799 H   0  0  0  0  0  0  0  0  0  0  0  0
    3.9117    0.1888    7.4401 H   0  0  0  0  0  0  0  0  0  0  0  0
    1.0239   -5.2272    4.4834 H   0  0  0  0  0  0  0  0  0  0  0  0
    0.4733   -7.5920    4.1042 H   0  0  0  0  0  0  0  0  0  0  0  0
    4.0950  -11.0206    3.8234 H   0  0  0  0  0  0  0  0  0  0  0  0
    3.7709  -10.0566    2.3589 H   0  0  0  0  0  0  0  0  0  0  0  0
    3.6489  -12.5097    1.8663 H   0  0  0  0  0  0  0  0  0  0  0  0
    2.0732  -11.7392    1.6362 H   0  0  0  0  0  0  0  0  0  0  0  0
    2.3863  -12.6897    3.0903 H   0  0  0  0  0  0  0  0  0  0  0  0
    5.1767   -6.2646    4.6282 H   0  0  0  0  0  0  0  0  0  0  0  0
    1.6998   -4.0958    2.5124 H   0  0  0  0  0  0  0  0  0  0  0  0
    1.0306   -2.2913   -0.4134 H   0  0  0  0  0  0  0  0  0  0  0  0
    0.7700   -0.6022   -1.8152 H   0  0  0  0  0  0  0  0  0  0  0  0
    2.1494   -0.7730   -3.7802 H   0  0  0  0  0  0  0  0  0  0  0  0
    3.1198   -0.4482   -5.6242 H   0  0  0  0  0  0  0  0  0  0  0  0
    3.7267   -1.3292   -7.0295 H   0  0  0  0  0  0  0  0  0  0  0  0
    4.3166   -3.2809   -5.6386 H   0  0  0  0  0  0  0  0  0  0  0  0
    5.1125   -1.8393   -4.9959 H   0  0  0  0  0  0  0  0  0  0  0  0
    3.6806   -2.4970   -4.1938 H   0  0  0  0  0  0  0  0  0  0  0  0
   -2.2422   -3.0047   -3.6816 H   0  0  0  0  0  0  0  0  0  0  0  0
   -5.1116    0.9008    1.1429 H   0  0  0  0  0  0  0  0  0  0  0  0
   -6.1820    1.8252    3.1267 H   0  0  0  0  0  0  0  0  0  0  0  0
   -5.3431    1.9554    7.9844 H   0  0  0  0  0  0  0  0  0  0  0  0
   -4.0970    0.9698    7.2098 H   0  0  0  0  0  0  0  0  0  0  0  0
   -5.2643   -0.2865    9.0538 H   0  0  0  0  0  0  0  0  0  0  0  0
   -5.5758   -1.0616    7.5020 H   0  0  0  0  0  0  0  0  0  0  0  0
   -6.8152   -0.0403    8.2383 H   0  0  0  0  0  0  0  0  0  0  0  0
   -2.9375   -1.8097    3.6486 H   0  0  0  0  0  0  0  0  0  0  0  0
   -5.9519   -1.0184    0.2470 H   0  0  0  0  0  0  0  0  0  0  0  0
   -6.4131   -1.2895   -2.2994 H   0  0  0  0  0  0  0  0  0  0  0  0
  1  2  2  0  0  0  0
  2  3  1  0  0  0  0
  3  4  2  0  0  0  0
  4  5  1  0  0  0  0
  5  6  2  0  0  0  0
  6  7  1  0  0  0  0
  7  8  2  0  0  0  0
  8  9  1  0  0  0  0
  9 10  1  0  0  0  0
 10 11  1  0  0  0  0
  8 12  1  0  0  0  0
 12 13  1  0  0  0  0
 12 14  2  0  0  0  0
  4 15  1  0  0  0  0
 15 16  2  0  0  0  0
 16 17  1  0  0  0  0
 17 18  1  0  0  0  0
 18 19  2  0  0  0  0
 19 20  1  0  0  0  0
 20 21  2  0  0  0  0
 21 22  1  0  0  0  0
 22 23  1  0  0  0  0
 23 24  1  0  0  0  0
 21 25  1  0  0  0  0
 25 26  2  0  0  0  0
 25 27  1  0  0  0  0
 17 28  2  0  0  0  0
 28 29  1  0  0  0  0
 16 30  1  0  0  0  0
 30 31  2  0  0  0  0
 31 32  1  0  0  0  0
 31 33  1  0  0  0  0
 33 34  2  0  0  0  0
 34 35  1  0  0  0  0
 35 36  2  0  0  0  0
 36 37  1  0  0  0  0
 37 38  2  0  0  0  0
 38 39  1  0  0  0  0
 39 40  2  0  0  0  0
 40 41  1  0  0  0  0
 41 42  1  0  0  0  0
 42 43  1  0  0  0  0
 40 44  1  0  0  0  0
 44 45  1  0  0  0  0
 44 46  2  0  0  0  0
 36 47  1  0  0  0  0
 47 48  2  0  0  0  0
 48 49  1  0  0  0  0
 49 50  1  0  0  0  0
 50 51  2  0  0  0  0
 51 52  1  0  0  0  0
 52 53  2  0  0  0  0
 53 54  1  0  0  0  0
 54 55  1  0  0  0  0
 55 56  1  0  0  0  0
 53 57  1  0  0  0  0
 57 58  2  0  0  0  0
 57 59  1  0  0  0  0
 49 60  2  0  0  0  0
 60 61  1  0  0  0  0
 48 62  1  0  0  0  0
 62 63  2  0  0  0  0
 63 64  1  0  0  0  0
 63 65  1  0  0  0  0
 65 66  1  0  0  0  0
 66 67  1  0  0  0  0
 67 68  2  0  0  0  0
 68 69  1  0  0  0  0
 67 70  1  0  0  0  0
 70 71  2  0  0  0  0
 71 72  1  0  0  0  0
 72 73  1  0  0  0  0
 73 74  1  0  0  0  0
 74 75  2  0  0  0  0
 75 76  1  0  0  0  0
 74 77  1  0  0  0  0
 77 78  2  0  0  0  0
 78 79  1  0  0  0  0
 79 80  2  0  0  0  0
 80 81  1  0  0  0  0
 81 82  2  0  0  0  0
 82 83  1  0  0  0  0
 83 84  2  0  0  0  0
 84 85  1  0  0  0  0
 85 86  2  0  0  0  0
 86 87  1  0  0  0  0
 87 88  1  0  0  0  0
 88 89  1  0  0  0  0
 86 90  1  0  0  0  0
 90 91  1  0  0  0  0
 90 92  2  0  0  0  0
 82 93  1  0  0  0  0
 93 94  2  0  0  0  0
 94 95  1  0  0  0  0
 95 96  1  0  0  0  0
 96 97  2  0  0  0  0
 97 98  1  0  0  0  0
 98 99  2  0  0  0  0
 99100  1  0  0  0  0
100101  1  0  0  0  0
101102  1  0  0  0  0
 99103  1  0  0  0  0
103104  2  0  0  0  0
103105  1  0  0  0  0
 95106  2  0  0  0  0
106107  1  0  0  0  0
 94108  1  0  0  0  0
108109  2  0  0  0  0
109110  1  0  0  0  0
109111  1  0  0  0  0
111112  2  0  0  0  0
112113  1  0  0  0  0
113114  2  0  0  0  0
114115  1  0  0  0  0
115116  2  0  0  0  0
116117  1  0  0  0  0
117118  2  0  0  0  0
118119  1  0  0  0  0
119120  1  0  0  0  0
120121  1  0  0  0  0
118122  1  0  0  0  0
122123  1  0  0  0  0
122124  2  0  0  0  0
114125  1  0  0  0  0
125126  2  0  0  0  0
126127  1  0  0  0  0
127128  1  0  0  0  0
128129  2  0  0  0  0
129130  1  0  0  0  0
130131  2  0  0  0  0
131132  1  0  0  0  0
132133  1  0  0  0  0
133134  1  0  0  0  0
131135  1  0  0  0  0
135136  2  0  0  0  0
135137  1  0  0  0  0
127138  2  0  0  0  0
138139  1  0  0  0  0
126140  1  0  0  0  0
140141  2  0  0  0  0
141142  1  0  0  0  0
 29  1  1  0  0  0  0
 61 33  1  0  0  0  0
 69 65  2  0  0  0  0
 76 72  2  0  0  0  0
107 79  1  0  0  0  0
139111  1  0  0  0  0
 28  3  1  0  0  0  0
 60 35  1  0  0  0  0
106 81  1  0  0  0  0
138113  1  0  0  0  0
 14  5  1  0  0  0  0
 32 15  1  0  0  0  0
 46 37  1  0  0  0  0
 64 47  1  0  0  0  0
 92 83  1  0  0  0  0
110 93  1  0  0  0  0
124115  1  0  0  0  0
142125  1  0  0  0  0
 26 18  1  0  0  0  0
 58 50  1  0  0  0  0
104 96  1  0  0  0  0
136128  1  0  0  0  0
  1143  1  0  0  0  0
  2144  1  0  0  0  0
  6145  1  0  0  0  0
  7146  1  0  0  0  0
 10147  1  0  0  0  0
 10148  1  0  0  0  0
 11149  1  0  0  0  0
 11150  1  0  0  0  0
 11151  1  0  0  0  0
 14152  1  0  0  0  0
 19153  1  0  0  0  0
 20154  1  0  0  0  0
 23155  1  0  0  0  0
 23156  1  0  0  0  0
 24157  1  0  0  0  0
 24158  1  0  0  0  0
 24159  1  0  0  0  0
 26160  1  0  0  0  0
 30161  1  0  0  0  0
 34162  1  0  0  0  0
 38163  1  0  0  0  0
 39164  1  0  0  0  0
 42165  1  0  0  0  0
 42166  1  0  0  0  0
 43167  1  0  0  0  0
 43168  1  0  0  0  0
 43169  1  0  0  0  0
 46170  1  0  0  0  0
 51171  1  0  0  0  0
 52172  1  0  0  0  0
 55173  1  0  0  0  0
 55174  1  0  0  0  0
 56175  1  0  0  0  0
 56176  1  0  0  0  0
 56177  1  0  0  0  0
 58178  1  0  0  0  0
 62179  1  0  0  0  0
 70180  1  0  0  0  0
 71181  1  0  0  0  0
 77182  1  0  0  0  0
 78183  1  0  0  0  0
 80184  1  0  0  0  0
 84185  1  0  0  0  0
 85186  1  0  0  0  0
 88187  1  0  0  0  0
 88188  1  0  0  0  0
 89189  1  0  0  0  0
 89190  1  0  0  0  0
 89191  1  0  0  0  0
 92192  1  0  0  0  0
 97193  1  0  0  0  0
 98194  1  0  0  0  0
101195  1  0  0  0  0
101196  1  0  0  0  0
102197  1  0  0  0  0
102198  1  0  0  0  0
102199  1  0  0  0  0
104200  1  0  0  0  0
108201  1  0  0  0  0
112202  1  0  0  0  0
116203  1  0  0  0  0
117204  1  0  0  0  0
120205  1  0  0  0  0
120206  1  0  0  0  0
121207  1  0  0  0  0
121208  1  0  0  0  0
121209  1  0  0  0  0
124210  1  0  0  0  0
129211  1  0  0  0  0
130212  1  0  0  0  0
133213  1  0  0  0  0
133214  1  0  0  0  0
134215  1  0  0  0  0
134216  1  0  0  0  0
134217  1  0  0  0  0
136218  1  0  0  0  0
140219  1  0  0  0  0
141220  1  0  0  0  0
M  END
