
  xtb     03042206393D
 energy: -392.761789751638 gnorm: 0.000198656213 xtb: 6.4.1 (unknown)
222245  0     0  0            999 V2000
   11.3811    2.5178   14.6504 C   0  0  0  0  0  0  0  0  0  0  0  0
   11.0261    3.7763   14.3230 C   0  0  0  0  0  0  0  0  0  0  0  0
    9.7319    3.8509   13.7265 C   0  0  0  0  0  0  0  0  0  0  0  0
    9.0581    4.9874   13.2559 C   0  0  0  0  0  0  0  0  0  0  0  0
    9.6897    6.3133   13.2556 C   0  0  0  0  0  0  0  0  0  0  0  0
   10.9382    6.5025   12.6706 C   0  0  0  0  0  0  0  0  0  0  0  0
   11.5299    7.7504   12.6356 C   0  0  0  0  0  0  0  0  0  0  0  0
   10.8913    8.8561   13.1854 C   0  0  0  0  0  0  0  0  0  0  0  0
   11.5405   10.4938   13.2256 S   0  0  0  0  0  0  0  0  0  0  0  0
   12.8591   10.4792   11.9619 C   0  0  0  0  0  0  0  0  0  0  0  0
   12.3068   10.3462   10.5554 C   0  0  0  0  0  0  0  0  0  0  0  0
    9.6454    8.6482   13.7802 C   0  0  0  0  0  0  0  0  0  0  0  0
    9.0062    9.6939   14.3400 F   0  0  0  0  0  0  0  0  0  0  0  0
    9.0425    7.4111   13.8172 C   0  0  0  0  0  0  0  0  0  0  0  0
    7.7796    4.7911   12.7562 C   0  0  0  0  0  0  0  0  0  0  0  0
    7.1721    3.5142   12.6626 C   0  0  0  0  0  0  0  0  0  0  0  0
    7.8603    2.3724   13.1023 C   0  0  0  0  0  0  0  0  0  0  0  0
    7.2875    1.0286   12.9569 C   0  0  0  0  0  0  0  0  0  0  0  0
    6.8041    0.5933   11.7262 C   0  0  0  0  0  0  0  0  0  0  0  0
    6.2811   -0.6758   11.5698 C   0  0  0  0  0  0  0  0  0  0  0  0
    6.2234   -1.5585   12.6421 C   0  0  0  0  0  0  0  0  0  0  0  0
    5.5619   -3.1907   12.5945 S   0  0  0  0  0  0  0  0  0  0  0  0
    5.4014   -3.5612   10.8135 C   0  0  0  0  0  0  0  0  0  0  0  0
    6.7464   -3.7648   10.1421 C   0  0  0  0  0  0  0  0  0  0  0  0
    6.7060   -1.1059   13.8718 C   0  0  0  0  0  0  0  0  0  0  0  0
    7.2332    0.1543   14.0401 C   0  0  0  0  0  0  0  0  0  0  0  0
    6.6516   -1.9301   14.9367 F   0  0  0  0  0  0  0  0  0  0  0  0
    9.1199    2.5772   13.6487 C   0  0  0  0  0  0  0  0  0  0  0  0
   10.1773    1.3346   14.2681 S   0  0  0  0  0  0  0  0  0  0  0  0
    5.8717    3.5884   12.1004 C   0  0  0  0  0  0  0  0  0  0  0  0
    5.5061    4.8533   11.7459 C   0  0  0  0  0  0  0  0  0  0  0  0
    6.7419    6.0375   12.1076 S   0  0  0  0  0  0  0  0  0  0  0  0
    4.2985    5.2526   11.1000 C   0  0  0  0  0  0  0  0  0  0  0  0
    3.3892    4.2840   10.7753 O   0  0  0  0  0  0  0  0  0  0  0  0
    2.4008    4.9044   10.1100 C   0  0  0  0  0  0  0  0  0  0  0  0
    1.2355    4.4895    9.4605 C   0  0  0  0  0  0  0  0  0  0  0  0
    0.6144    5.5576    8.8501 C   0  0  0  0  0  0  0  0  0  0  0  0
    1.4435    7.0846    9.1060 S   0  0  0  0  0  0  0  0  0  0  0  0
    2.6656    6.2754   10.0131 C   0  0  0  0  0  0  0  0  0  0  0  0
    3.8914    6.4971   10.6594 C   0  0  0  0  0  0  0  0  0  0  0  0
   -0.5054    5.4856    7.9733 C   0  0  0  0  0  0  0  0  0  0  0  0
   -1.0772    4.2590    7.7719 O   0  0  0  0  0  0  0  0  0  0  0  0
   -1.9767    4.4214    6.7861 C   0  0  0  0  0  0  0  0  0  0  0  0
   -2.7880    3.5603    6.0451 C   0  0  0  0  0  0  0  0  0  0  0  0
   -3.4188    4.2395    5.0238 C   0  0  0  0  0  0  0  0  0  0  0  0
   -3.0544    5.9599    5.0172 S   0  0  0  0  0  0  0  0  0  0  0  0
   -1.9996    5.7550    6.3622 C   0  0  0  0  0  0  0  0  0  0  0  0
   -1.0566    6.4429    7.1417 C   0  0  0  0  0  0  0  0  0  0  0  0
   -4.1379    3.6404    3.9467 C   0  0  0  0  0  0  0  0  0  0  0  0
   -4.6031    2.3579    3.8775 C   0  0  0  0  0  0  0  0  0  0  0  0
   -5.0151    1.9714    2.5782 C   0  0  0  0  0  0  0  0  0  0  0  0
   -5.4022    0.6942    2.1379 C   0  0  0  0  0  0  0  0  0  0  0  0
   -5.5166   -0.4520    3.0486 C   0  0  0  0  0  0  0  0  0  0  0  0
   -4.4779   -0.8142    3.9006 C   0  0  0  0  0  0  0  0  0  0  0  0
   -4.5909   -1.9040    4.7426 C   0  0  0  0  0  0  0  0  0  0  0  0
   -5.7533   -2.6662    4.7698 C   0  0  0  0  0  0  0  0  0  0  0  0
   -6.0274   -4.0811    5.7832 S   0  0  0  0  0  0  0  0  0  0  0  0
   -4.7337   -3.9669    7.0670 C   0  0  0  0  0  0  0  0  0  0  0  0
   -4.9695   -2.8113    8.0208 C   0  0  0  0  0  0  0  0  0  0  0  0
   -6.7795   -2.3025    3.8957 C   0  0  0  0  0  0  0  0  0  0  0  0
   -7.9158   -3.0264    3.8855 F   0  0  0  0  0  0  0  0  0  0  0  0
   -6.6761   -1.2251    3.0459 C   0  0  0  0  0  0  0  0  0  0  0  0
   -5.6108    0.5431    0.7758 C   0  0  0  0  0  0  0  0  0  0  0  0
   -5.4728    1.6059   -0.1501 C   0  0  0  0  0  0  0  0  0  0  0  0
   -5.1177    2.8919    0.2921 C   0  0  0  0  0  0  0  0  0  0  0  0
   -4.8983    3.9787   -0.6701 C   0  0  0  0  0  0  0  0  0  0  0  0
   -4.0667    3.7837   -1.7720 C   0  0  0  0  0  0  0  0  0  0  0  0
   -3.9050    4.7648   -2.7277 C   0  0  0  0  0  0  0  0  0  0  0  0
   -4.5747    5.9791   -2.6175 C   0  0  0  0  0  0  0  0  0  0  0  0
   -4.4770    7.2598   -3.8257 S   0  0  0  0  0  0  0  0  0  0  0  0
   -4.2571    6.3195   -5.3785 C   0  0  0  0  0  0  0  0  0  0  0  0
   -5.4369    5.4097   -5.6585 C   0  0  0  0  0  0  0  0  0  0  0  0
   -5.3498    6.1875   -1.4768 C   0  0  0  0  0  0  0  0  0  0  0  0
   -5.5176    5.2152   -0.5136 C   0  0  0  0  0  0  0  0  0  0  0  0
   -5.9831    7.3654   -1.3155 F   0  0  0  0  0  0  0  0  0  0  0  0
   -4.8995    3.0399    1.6515 C   0  0  0  0  0  0  0  0  0  0  0  0
   -4.2938    4.4839    2.4179 S   0  0  0  0  0  0  0  0  0  0  0  0
   -5.6179    1.1625   -1.4859 C   0  0  0  0  0  0  0  0  0  0  0  0
   -5.7714   -0.1893   -1.6020 C   0  0  0  0  0  0  0  0  0  0  0  0
   -5.8874   -0.9754   -0.0399 S   0  0  0  0  0  0  0  0  0  0  0  0
   -5.6231   -0.9440   -2.8056 C   0  0  0  0  0  0  0  0  0  0  0  0
   -5.2438   -0.4416   -4.0182 C   0  0  0  0  0  0  0  0  0  0  0  0
   -4.8646   -1.4330   -4.9533 C   0  0  0  0  0  0  0  0  0  0  0  0
   -4.3224   -1.2431   -6.2367 C   0  0  0  0  0  0  0  0  0  0  0  0
   -4.0513    0.0987   -6.7665 C   0  0  0  0  0  0  0  0  0  0  0  0
   -4.4262    0.4570   -8.0575 C   0  0  0  0  0  0  0  0  0  0  0  0
   -4.1527    1.7138   -8.5638 C   0  0  0  0  0  0  0  0  0  0  0  0
   -3.4985    2.6662   -7.7914 C   0  0  0  0  0  0  0  0  0  0  0  0
   -3.0565    4.2947   -8.3022 S   0  0  0  0  0  0  0  0  0  0  0  0
   -3.8378    4.4932   -9.9385 C   0  0  0  0  0  0  0  0  0  0  0  0
   -5.3352    4.7193   -9.8452 C   0  0  0  0  0  0  0  0  0  0  0  0
   -3.1271    2.2925   -6.4987 C   0  0  0  0  0  0  0  0  0  0  0  0
   -2.4916    3.1926   -5.7153 F   0  0  0  0  0  0  0  0  0  0  0  0
   -3.3804    1.0417   -5.9871 C   0  0  0  0  0  0  0  0  0  0  0  0
   -3.9837   -2.3893   -6.9388 C   0  0  0  0  0  0  0  0  0  0  0  0
   -4.1610   -3.6977   -6.4230 C   0  0  0  0  0  0  0  0  0  0  0  0
   -4.7164   -3.8859   -5.1462 C   0  0  0  0  0  0  0  0  0  0  0  0
   -4.9266   -5.2298   -4.5958 C   0  0  0  0  0  0  0  0  0  0  0  0
   -5.6051   -6.2021   -5.3299 C   0  0  0  0  0  0  0  0  0  0  0  0
   -5.8382   -7.4499   -4.7942 C   0  0  0  0  0  0  0  0  0  0  0  0
   -5.3904   -7.7882   -3.5178 C   0  0  0  0  0  0  0  0  0  0  0  0
   -5.7218   -9.4301   -2.9544 S   0  0  0  0  0  0  0  0  0  0  0  0
   -6.0954   -9.2299   -1.1727 C   0  0  0  0  0  0  0  0  0  0  0  0
   -7.2455   -8.2725   -0.9351 C   0  0  0  0  0  0  0  0  0  0  0  0
   -4.6792   -6.8209   -2.8140 C   0  0  0  0  0  0  0  0  0  0  0  0
   -4.4641   -5.5577   -3.3261 C   0  0  0  0  0  0  0  0  0  0  0  0
   -4.1606   -7.0896   -1.5961 F   0  0  0  0  0  0  0  0  0  0  0  0
   -5.0307   -2.7404   -4.4310 C   0  0  0  0  0  0  0  0  0  0  0  0
   -5.6356   -2.6933   -2.7944 S   0  0  0  0  0  0  0  0  0  0  0  0
   -3.6072   -4.6829   -7.2801 C   0  0  0  0  0  0  0  0  0  0  0  0
   -3.0287   -4.1694   -8.4015 C   0  0  0  0  0  0  0  0  0  0  0  0
   -3.1733   -2.4226   -8.4838 S   0  0  0  0  0  0  0  0  0  0  0  0
   -2.3010   -4.8656   -9.4108 C   0  0  0  0  0  0  0  0  0  0  0  0
   -1.6561   -4.3297  -10.4846 C   0  0  0  0  0  0  0  0  0  0  0  0
   -0.9410   -5.2836  -11.2532 C   0  0  0  0  0  0  0  0  0  0  0  0
   -0.1778   -5.0639  -12.4108 C   0  0  0  0  0  0  0  0  0  0  0  0
    0.0440   -3.7114  -12.9342 C   0  0  0  0  0  0  0  0  0  0  0  0
    0.4786   -2.6863  -12.0936 C   0  0  0  0  0  0  0  0  0  0  0  0
    0.7126   -1.4226  -12.5890 C   0  0  0  0  0  0  0  0  0  0  0  0
    0.5147   -1.1239  -13.9366 C   0  0  0  0  0  0  0  0  0  0  0  0
    0.8076    0.5392  -14.4501 S   0  0  0  0  0  0  0  0  0  0  0  0
    1.4575    0.3588  -16.1601 C   0  0  0  0  0  0  0  0  0  0  0  0
    2.3233    1.5604  -16.4832 C   0  0  0  0  0  0  0  0  0  0  0  0
    0.0603   -2.1503  -14.7594 C   0  0  0  0  0  0  0  0  0  0  0  0
   -0.1987   -1.9247  -16.0671 F   0  0  0  0  0  0  0  0  0  0  0  0
   -0.1579   -3.4261  -14.2802 C   0  0  0  0  0  0  0  0  0  0  0  0
    0.3849   -6.1848  -13.0056 C   0  0  0  0  0  0  0  0  0  0  0  0
    0.2403   -7.4935  -12.4856 C   0  0  0  0  0  0  0  0  0  0  0  0
   -0.5151   -7.7117  -11.3239 C   0  0  0  0  0  0  0  0  0  0  0  0
   -0.6941   -9.0569  -10.7628 C   0  0  0  0  0  0  0  0  0  0  0  0
   -1.1422  -10.1127  -11.5552 C   0  0  0  0  0  0  0  0  0  0  0  0
   -1.3031  -11.3719  -11.0196 C   0  0  0  0  0  0  0  0  0  0  0  0
   -1.0338  -11.6332   -9.6759 C   0  0  0  0  0  0  0  0  0  0  0  0
   -1.3267  -13.2837   -9.1170 S   0  0  0  0  0  0  0  0  0  0  0  0
   -0.0572  -13.5857   -7.8331 C   0  0  0  0  0  0  0  0  0  0  0  0
    1.3497  -13.4155   -8.3697 C   0  0  0  0  0  0  0  0  0  0  0  0
   -0.6179  -10.5621   -8.8911 C   0  0  0  0  0  0  0  0  0  0  0  0
   -0.4366   -9.2993   -9.4184 C   0  0  0  0  0  0  0  0  0  0  0  0
   -0.3689  -10.7185   -7.5722 F   0  0  0  0  0  0  0  0  0  0  0  0
   -1.0845   -6.5934  -10.7328 C   0  0  0  0  0  0  0  0  0  0  0  0
   -2.0821   -6.6016   -9.3007 S   0  0  0  0  0  0  0  0  0  0  0  0
    0.9865   -8.4448  -13.2440 C   0  0  0  0  0  0  0  0  0  0  0  0
    1.6454   -7.8898  -14.2806 C   0  0  0  0  0  0  0  0  0  0  0  0
    1.4135   -6.1804  -14.4157 S   0  0  0  0  0  0  0  0  0  0  0  0
   12.2918    2.1882   15.1113 H   0  0  0  0  0  0  0  0  0  0  0  0
   11.6416    4.6386   14.5049 H   0  0  0  0  0  0  0  0  0  0  0  0
   11.4455    5.6641   12.2170 H   0  0  0  0  0  0  0  0  0  0  0  0
   12.5001    7.8528   12.1771 H   0  0  0  0  0  0  0  0  0  0  0  0
   13.5730    9.6936   12.2065 H   0  0  0  0  0  0  0  0  0  0  0  0
   13.3480   11.4440   12.0967 H   0  0  0  0  0  0  0  0  0  0  0  0
   11.7725    9.4064   10.4318 H   0  0  0  0  0  0  0  0  0  0  0  0
   11.6183   11.1611   10.3451 H   0  0  0  0  0  0  0  0  0  0  0  0
   13.1202   10.3818    9.8332 H   0  0  0  0  0  0  0  0  0  0  0  0
    8.0814    7.3090   14.2952 H   0  0  0  0  0  0  0  0  0  0  0  0
    6.8574    1.2505   10.8712 H   0  0  0  0  0  0  0  0  0  0  0  0
    5.9135   -0.9688   10.5998 H   0  0  0  0  0  0  0  0  0  0  0  0
    4.8186   -4.4822   10.7986 H   0  0  0  0  0  0  0  0  0  0  0  0
    4.8139   -2.7735   10.3433 H   0  0  0  0  0  0  0  0  0  0  0  0
    7.2864   -4.5756   10.6252 H   0  0  0  0  0  0  0  0  0  0  0  0
    7.3551   -2.8652   10.2024 H   0  0  0  0  0  0  0  0  0  0  0  0
    6.6024   -4.0184    9.0935 H   0  0  0  0  0  0  0  0  0  0  0  0
    7.5812    0.4509   15.0167 H   0  0  0  0  0  0  0  0  0  0  0  0
    5.2246    2.7407   11.9696 H   0  0  0  0  0  0  0  0  0  0  0  0
    0.8683    3.4828    9.4047 H   0  0  0  0  0  0  0  0  0  0  0  0
    4.4223    7.4176   10.7856 H   0  0  0  0  0  0  0  0  0  0  0  0
   -2.8719    2.5026    6.2045 H   0  0  0  0  0  0  0  0  0  0  0  0
   -0.7842    7.4768    7.1002 H   0  0  0  0  0  0  0  0  0  0  0  0
   -4.6353    1.7001    4.7259 H   0  0  0  0  0  0  0  0  0  0  0  0
   -3.5545   -0.2549    3.8820 H   0  0  0  0  0  0  0  0  0  0  0  0
   -3.7550   -2.1627    5.3724 H   0  0  0  0  0  0  0  0  0  0  0  0
   -4.8103   -4.9210    7.5884 H   0  0  0  0  0  0  0  0  0  0  0  0
   -3.7601   -3.9163    6.5812 H   0  0  0  0  0  0  0  0  0  0  0  0
   -4.1983   -2.8008    8.7887 H   0  0  0  0  0  0  0  0  0  0  0  0
   -4.9497   -1.8593    7.4942 H   0  0  0  0  0  0  0  0  0  0  0  0
   -5.9388   -2.9153    8.5024 H   0  0  0  0  0  0  0  0  0  0  0  0
   -7.5065   -0.9826    2.4017 H   0  0  0  0  0  0  0  0  0  0  0  0
   -3.5208    2.8573   -1.8693 H   0  0  0  0  0  0  0  0  0  0  0  0
   -3.2508    4.5814   -3.5649 H   0  0  0  0  0  0  0  0  0  0  0  0
   -3.3177    5.7711   -5.3429 H   0  0  0  0  0  0  0  0  0  0  0  0
   -4.1747    7.0970   -6.1373 H   0  0  0  0  0  0  0  0  0  0  0  0
   -5.5325    4.6512   -4.8836 H   0  0  0  0  0  0  0  0  0  0  0  0
   -6.3602    5.9836   -5.6954 H   0  0  0  0  0  0  0  0  0  0  0  0
   -5.2947    4.9096   -6.6135 H   0  0  0  0  0  0  0  0  0  0  0  0
   -6.1554    5.4175    0.3324 H   0  0  0  0  0  0  0  0  0  0  0  0
   -5.5741    1.8235   -2.3308 H   0  0  0  0  0  0  0  0  0  0  0  0
   -5.2119    0.6103   -4.2307 H   0  0  0  0  0  0  0  0  0  0  0  0
   -4.9531   -0.2530   -8.6761 H   0  0  0  0  0  0  0  0  0  0  0  0
   -4.4541    1.9405   -9.5731 H   0  0  0  0  0  0  0  0  0  0  0  0
   -3.3407    5.3706  -10.3525 H   0  0  0  0  0  0  0  0  0  0  0  0
   -3.5806    3.6295  -10.5499 H   0  0  0  0  0  0  0  0  0  0  0  0
   -5.8325    3.8773   -9.3679 H   0  0  0  0  0  0  0  0  0  0  0  0
   -5.5451    5.6155   -9.2657 H   0  0  0  0  0  0  0  0  0  0  0  0
   -5.7510    4.8470  -10.8427 H   0  0  0  0  0  0  0  0  0  0  0  0
   -3.0290    0.7989   -4.9967 H   0  0  0  0  0  0  0  0  0  0  0  0
   -5.9811   -5.9623   -6.3130 H   0  0  0  0  0  0  0  0  0  0  0  0
   -6.3800   -8.1936   -5.3575 H   0  0  0  0  0  0  0  0  0  0  0  0
   -6.3550  -10.2417   -0.8609 H   0  0  0  0  0  0  0  0  0  0  0  0
   -5.1918   -8.9199   -0.6527 H   0  0  0  0  0  0  0  0  0  0  0  0
   -8.1296   -8.5934   -1.4822 H   0  0  0  0  0  0  0  0  0  0  0  0
   -6.9870   -7.2649   -1.2554 H   0  0  0  0  0  0  0  0  0  0  0  0
   -7.4820   -8.2425    0.1266 H   0  0  0  0  0  0  0  0  0  0  0  0
   -3.9026   -4.8514   -2.7349 H   0  0  0  0  0  0  0  0  0  0  0  0
   -3.5976   -5.7338   -7.0515 H   0  0  0  0  0  0  0  0  0  0  0  0
   -1.6997   -3.2817  -10.7220 H   0  0  0  0  0  0  0  0  0  0  0  0
    0.6660   -2.8940  -11.0513 H   0  0  0  0  0  0  0  0  0  0  0  0
    1.0606   -0.6360  -11.9377 H   0  0  0  0  0  0  0  0  0  0  0  0
    0.6131    0.2849  -16.8439 H   0  0  0  0  0  0  0  0  0  0  0  0
    2.0366   -0.5629  -16.1870 H   0  0  0  0  0  0  0  0  0  0  0  0
    3.1559    1.6299  -15.7867 H   0  0  0  0  0  0  0  0  0  0  0  0
    2.7173    1.4677  -17.4929 H   0  0  0  0  0  0  0  0  0  0  0  0
    1.7426    2.4778  -16.4183 H   0  0  0  0  0  0  0  0  0  0  0  0
   -0.5171   -4.1798  -14.9631 H   0  0  0  0  0  0  0  0  0  0  0  0
   -1.3779   -9.9378  -12.5939 H   0  0  0  0  0  0  0  0  0  0  0  0
   -1.6472  -12.1877  -11.6363 H   0  0  0  0  0  0  0  0  0  0  0  0
   -0.2438  -14.6199   -7.5432 H   0  0  0  0  0  0  0  0  0  0  0  0
   -0.2518  -12.9386   -6.9810 H   0  0  0  0  0  0  0  0  0  0  0  0
    2.0693  -13.6884   -7.6005 H   0  0  0  0  0  0  0  0  0  0  0  0
    1.5338  -12.3827   -8.6589 H   0  0  0  0  0  0  0  0  0  0  0  0
    1.5071  -14.0516   -9.2383 H   0  0  0  0  0  0  0  0  0  0  0  0
   -0.0886   -8.5142   -8.7655 H   0  0  0  0  0  0  0  0  0  0  0  0
    1.0311   -9.4903  -12.9991 H   0  0  0  0  0  0  0  0  0  0  0  0
    2.2732   -8.3779  -15.0004 H   0  0  0  0  0  0  0  0  0  0  0  0
  1  2  2  0  0  0  0
  2  3  1  0  0  0  0
  3  4  2  0  0  0  0
  4  5  1  0  0  0  0
  5  6  2  0  0  0  0
  6  7  1  0  0  0  0
  7  8  2  0  0  0  0
  8  9  1  0  0  0  0
  9 10  1  0  0  0  0
 10 11  1  0  0  0  0
  8 12  1  0  0  0  0
 12 13  1  0  0  0  0
 12 14  2  0  0  0  0
  4 15  1  0  0  0  0
 15 16  2  0  0  0  0
 16 17  1  0  0  0  0
 17 18  1  0  0  0  0
 18 19  2  0  0  0  0
 19 20  1  0  0  0  0
 20 21  2  0  0  0  0
 21 22  1  0  0  0  0
 22 23  1  0  0  0  0
 23 24  1  0  0  0  0
 21 25  1  0  0  0  0
 25 26  2  0  0  0  0
 25 27  1  0  0  0  0
 17 28  2  0  0  0  0
 28 29  1  0  0  0  0
 16 30  1  0  0  0  0
 30 31  2  0  0  0  0
 31 32  1  0  0  0  0
 31 33  1  0  0  0  0
 33 34  1  0  0  0  0
 34 35  1  0  0  0  0
 35 36  1  0  0  0  0
 36 37  2  0  0  0  0
 37 38  1  0  0  0  0
 38 39  1  0  0  0  0
 39 40  1  0  0  0  0
 37 41  1  0  0  0  0
 41 42  1  0  0  0  0
 42 43  1  0  0  0  0
 43 44  1  0  0  0  0
 44 45  2  0  0  0  0
 45 46  1  0  0  0  0
 46 47  1  0  0  0  0
 47 48  1  0  0  0  0
 45 49  1  0  0  0  0
 49 50  2  0  0  0  0
 50 51  1  0  0  0  0
 51 52  2  0  0  0  0
 52 53  1  0  0  0  0
 53 54  2  0  0  0  0
 54 55  1  0  0  0  0
 55 56  2  0  0  0  0
 56 57  1  0  0  0  0
 57 58  1  0  0  0  0
 58 59  1  0  0  0  0
 56 60  1  0  0  0  0
 60 61  1  0  0  0  0
 60 62  2  0  0  0  0
 52 63  1  0  0  0  0
 63 64  2  0  0  0  0
 64 65  1  0  0  0  0
 65 66  1  0  0  0  0
 66 67  2  0  0  0  0
 67 68  1  0  0  0  0
 68 69  2  0  0  0  0
 69 70  1  0  0  0  0
 70 71  1  0  0  0  0
 71 72  1  0  0  0  0
 69 73  1  0  0  0  0
 73 74  2  0  0  0  0
 73 75  1  0  0  0  0
 65 76  2  0  0  0  0
 76 77  1  0  0  0  0
 64 78  1  0  0  0  0
 78 79  2  0  0  0  0
 79 80  1  0  0  0  0
 79 81  1  0  0  0  0
 81 82  2  0  0  0  0
 82 83  1  0  0  0  0
 83 84  2  0  0  0  0
 84 85  1  0  0  0  0
 85 86  2  0  0  0  0
 86 87  1  0  0  0  0
 87 88  2  0  0  0  0
 88 89  1  0  0  0  0
 89 90  1  0  0  0  0
 90 91  1  0  0  0  0
 88 92  1  0  0  0  0
 92 93  1  0  0  0  0
 92 94  2  0  0  0  0
 84 95  1  0  0  0  0
 95 96  2  0  0  0  0
 96 97  1  0  0  0  0
 97 98  1  0  0  0  0
 98 99  2  0  0  0  0
 99100  1  0  0  0  0
100101  2  0  0  0  0
101102  1  0  0  0  0
102103  1  0  0  0  0
103104  1  0  0  0  0
101105  1  0  0  0  0
105106  2  0  0  0  0
105107  1  0  0  0  0
 97108  2  0  0  0  0
108109  1  0  0  0  0
 96110  1  0  0  0  0
110111  2  0  0  0  0
111112  1  0  0  0  0
111113  1  0  0  0  0
113114  2  0  0  0  0
114115  1  0  0  0  0
115116  2  0  0  0  0
116117  1  0  0  0  0
117118  2  0  0  0  0
118119  1  0  0  0  0
119120  2  0  0  0  0
120121  1  0  0  0  0
121122  1  0  0  0  0
122123  1  0  0  0  0
120124  1  0  0  0  0
124125  1  0  0  0  0
124126  2  0  0  0  0
116127  1  0  0  0  0
127128  2  0  0  0  0
128129  1  0  0  0  0
129130  1  0  0  0  0
130131  2  0  0  0  0
131132  1  0  0  0  0
132133  2  0  0  0  0
133134  1  0  0  0  0
134135  1  0  0  0  0
135136  1  0  0  0  0
133137  1  0  0  0  0
137138  2  0  0  0  0
137139  1  0  0  0  0
129140  2  0  0  0  0
140141  1  0  0  0  0
128142  1  0  0  0  0
142143  2  0  0  0  0
143144  1  0  0  0  0
 29  1  1  0  0  0  0
 40 33  2  0  0  0  0
 48 41  2  0  0  0  0
 77 49  1  0  0  0  0
109 81  1  0  0  0  0
141113  1  0  0  0  0
 28  3  1  0  0  0  0
 39 35  2  0  0  0  0
 47 43  2  0  0  0  0
 76 51  1  0  0  0  0
108 83  1  0  0  0  0
140115  1  0  0  0  0
 14  5  1  0  0  0  0
 32 15  1  0  0  0  0
 62 53  1  0  0  0  0
 80 63  1  0  0  0  0
 94 85  1  0  0  0  0
112 95  1  0  0  0  0
126117  1  0  0  0  0
144127  1  0  0  0  0
 26 18  1  0  0  0  0
 74 66  1  0  0  0  0
106 98  1  0  0  0  0
138130  1  0  0  0  0
  1145  1  0  0  0  0
  2146  1  0  0  0  0
  6147  1  0  0  0  0
  7148  1  0  0  0  0
 10149  1  0  0  0  0
 10150  1  0  0  0  0
 11151  1  0  0  0  0
 11152  1  0  0  0  0
 11153  1  0  0  0  0
 14154  1  0  0  0  0
 19155  1  0  0  0  0
 20156  1  0  0  0  0
 23157  1  0  0  0  0
 23158  1  0  0  0  0
 24159  1  0  0  0  0
 24160  1  0  0  0  0
 24161  1  0  0  0  0
 26162  1  0  0  0  0
 30163  1  0  0  0  0
 36164  1  0  0  0  0
 40165  1  0  0  0  0
 44166  1  0  0  0  0
 48167  1  0  0  0  0
 50168  1  0  0  0  0
 54169  1  0  0  0  0
 55170  1  0  0  0  0
 58171  1  0  0  0  0
 58172  1  0  0  0  0
 59173  1  0  0  0  0
 59174  1  0  0  0  0
 59175  1  0  0  0  0
 62176  1  0  0  0  0
 67177  1  0  0  0  0
 68178  1  0  0  0  0
 71179  1  0  0  0  0
 71180  1  0  0  0  0
 72181  1  0  0  0  0
 72182  1  0  0  0  0
 72183  1  0  0  0  0
 74184  1  0  0  0  0
 78185  1  0  0  0  0
 82186  1  0  0  0  0
 86187  1  0  0  0  0
 87188  1  0  0  0  0
 90189  1  0  0  0  0
 90190  1  0  0  0  0
 91191  1  0  0  0  0
 91192  1  0  0  0  0
 91193  1  0  0  0  0
 94194  1  0  0  0  0
 99195  1  0  0  0  0
100196  1  0  0  0  0
103197  1  0  0  0  0
103198  1  0  0  0  0
104199  1  0  0  0  0
104200  1  0  0  0  0
104201  1  0  0  0  0
106202  1  0  0  0  0
110203  1  0  0  0  0
114204  1  0  0  0  0
118205  1  0  0  0  0
119206  1  0  0  0  0
122207  1  0  0  0  0
122208  1  0  0  0  0
123209  1  0  0  0  0
123210  1  0  0  0  0
123211  1  0  0  0  0
126212  1  0  0  0  0
131213  1  0  0  0  0
132214  1  0  0  0  0
135215  1  0  0  0  0
135216  1  0  0  0  0
136217  1  0  0  0  0
136218  1  0  0  0  0
136219  1  0  0  0  0
138220  1  0  0  0  0
142221  1  0  0  0  0
143222  1  0  0  0  0
M  END
