222

C         -8.25480        9.24560       16.80900
C         -7.71420        9.99930       15.83030
C         -7.67990        9.33150       14.57090
C         -7.22280        9.82500       13.33790
C         -6.65650       11.15830       13.20650
S         -5.30830       11.67020       14.17830
C         -5.23550       13.21660       13.40460
C         -4.18080       14.20720       13.75470
C         -2.90250       13.94780       12.95360
C         -6.20290       13.31320       12.44980
Cl        -6.44700       14.70260       11.47340
C         -7.01100       12.14980       12.33490
Cl        -8.34130       12.05540       11.25880
C         -7.31170        8.97250       12.24370
C         -7.84380        7.66490       12.34370
C         -8.34620        7.18590       13.56480
C         -8.93910        5.86110       13.63000
S         -8.40910        4.66990       14.77950
C         -9.46990        3.46330       14.13690
C         -9.46860        2.06970       14.66040
C         -8.46110        1.20480       13.89820
C        -10.19000        3.97000       13.09600
C         -9.89610        5.32850       12.80840
Cl       -10.73090        6.21020       11.59320
Cl       -11.34290        3.06910       12.20250
C         -8.23240        8.03080       14.66020
S         -8.76650        7.68020       16.27930
C         -7.73990        6.95880       11.12450
C         -7.18880        7.69020       10.11350
S         -6.73490        9.29650       10.63130
C         -6.99590        7.19760        8.78650
C         -7.60590        6.08430        8.28640
C         -7.15550        5.72320        6.99780
C         -7.49450        4.56910        6.27210
C         -8.36480        3.56520        6.86270
S         -9.79230        2.99240        6.05420
C        -10.22090        1.95990        7.37470
C        -11.48070        1.16650        7.36700
C        -12.61690        1.94590        8.03460
C         -9.29960        2.06110        8.37460
Cl        -9.38750        1.18770        9.84650
C         -8.24410        2.96520        8.08710
Cl        -6.92160        3.19800        9.15910
C         -6.91690        4.42640        5.01990
C         -6.00410        5.37060        4.48670
C         -5.64890        6.51600        5.22470
C         -4.69280        7.47880        4.70380
S         -3.13330        6.97620        4.11680
C         -2.66880        8.59610        3.71920
C         -1.35660        8.87800        3.07530
C         -1.32020        8.33890        1.64420
C         -3.67380        9.46240        4.02770
C         -4.81890        8.83550        4.59180
Cl        -6.23550        9.71100        4.99370
Cl        -3.59430       11.15690        3.77040
C         -6.22910        6.66100        6.47830
S         -5.88730        7.91370        7.64030
C         -5.52460        4.97250        3.21640
C         -6.00680        3.76430        2.80300
S         -7.13200        3.07150        3.95040
C         -5.61630        3.04900        1.63100
C         -4.56320        3.34670        0.81480
C         -4.35750        2.39590       -0.21170
C         -3.31780        2.35900       -1.15870
C         -2.38470        3.46480       -1.28330
S         -0.66430        3.21610       -1.28650
C         -0.34120        4.90710       -1.45650
C          1.05110        5.41860       -1.58370
C          1.51210        5.38110       -3.04280
C         -1.50780        5.60950       -1.51990
Cl        -1.58910        7.31240       -1.71320
C         -2.66800        4.79770       -1.41340
Cl        -4.25480        5.44490       -1.52400
C         -3.22650        1.22020       -1.94680
C         -4.16450        0.15840       -1.88260
C         -5.22790        0.21720       -0.96410
C         -6.18900       -0.86610       -0.83700
S         -7.89830       -0.56440       -0.92860
C         -8.28490       -2.23160       -0.67910
C         -9.69830       -2.69010       -0.58770
C        -10.21550       -2.56730        0.84770
C         -7.14620       -2.96430       -0.52140
C         -5.95570       -2.19490       -0.61480
Cl        -4.39630       -2.87570       -0.38100
Cl        -7.12940       -4.65740       -0.24110
C         -5.29470        1.33680       -0.14630
S         -6.42940        1.57540        1.15220
C         -3.85650       -0.87490       -2.80050
C         -2.70890       -0.64460       -3.50280
S         -1.98380        0.90120       -3.12230
C         -2.01680       -1.52450       -4.38420
O         -0.81390       -1.10820       -4.87890
C         -0.30210       -2.14650       -5.55690
C          0.90200       -2.39820       -6.21730
C          0.94480       -3.69790       -6.67620
S         -0.52150       -4.60200       -6.32070
C         -1.18460       -3.23360       -5.51550
C         -2.29450       -2.82610       -4.76050
C          2.05400       -4.34670       -7.29260
C          3.24100       -3.78310       -7.66880
C          4.19340       -4.72270       -8.12800
C          5.52890       -4.48880       -8.50220
C          6.10350       -3.15380       -8.51420
S          6.03240       -2.11220       -7.12250
C          6.92940       -0.86020       -7.91210
C          7.29820        0.39310       -7.19860
C          8.57840        0.19730       -6.38280
C          7.26090       -1.24320       -9.17700
Cl         8.14830       -0.26410      -10.27100
C          6.79390       -2.54000       -9.52270
Cl         7.01520       -3.20810      -11.08490
C          6.29870       -5.60200       -8.81480
C          5.77990       -6.92050       -8.81320
C          4.43040       -7.15190       -8.48870
C          3.88170       -8.49770       -8.46750
S          4.67350       -9.78430       -7.60110
C          3.47010      -10.94210       -8.05190
C          3.54700      -12.35200       -7.58120
C          3.00980      -12.48840       -6.15500
C          2.50990      -10.34920       -8.81570
C          2.73940       -8.96720       -9.05540
Cl         1.71820       -8.03370      -10.06590
Cl         1.15020      -11.17730       -9.45620
C          3.67330       -6.04250       -8.13620
S          2.03630       -6.07680       -7.55130
C          6.77690       -7.87690       -9.10990
C          8.02070       -7.33840       -9.27580
S          8.00830       -5.59620       -9.14040
C          9.23350       -8.07160       -9.44770
C          9.34720       -9.43080       -9.50370
C         10.68550       -9.88570       -9.53700
C         11.14300      -11.21420       -9.56710
C         10.20780      -12.31890       -9.44840
S         10.21290      -13.64670      -10.57100
C          8.87370      -14.41600       -9.79030
C          8.35360      -15.72850      -10.26240
C          9.19580      -16.88020       -9.70860
C          8.46840      -13.68190       -8.71590
Cl         7.16680      -14.12490       -7.69040
C          9.21870      -12.49280       -8.51750
Cl         8.93900      -11.44930       -7.18010
C         12.51380      -11.40100       -9.69450
C         13.43550      -10.32770       -9.74040
C         12.98090       -9.00300       -9.64440
C         13.89940       -7.87440       -9.63970
S         15.03020       -7.61360      -10.93400
C         15.63730       -6.15930      -10.21670
C         16.74770       -5.39410      -10.84740
C         18.09820       -6.05870      -10.57200
C         14.99960       -5.91240       -9.03840
C         14.00830       -6.87720       -8.71160
Cl        13.11120       -6.81720       -7.25290
Cl        15.33800       -4.56740       -8.02840
C         11.60820       -8.81140       -9.55110
S         10.79030       -7.27660       -9.48610
C         14.77980      -10.79520       -9.82630
C         14.86620      -12.14050       -9.84700
S         13.33280      -12.93640       -9.75760
H         -8.39680        9.50780       17.83910
H         -7.35060       10.99900       15.98050
H         -4.55380       15.20880       13.53300
H         -3.96070       14.14210       14.82170
H         -2.14280       14.67920       13.21550
H         -3.10490       14.02090       11.88810
H         -2.51870       12.95290       13.16690
H        -10.46950        1.64850       14.54540
H         -9.21210        2.08140       15.72080
H         -7.45760        1.60940       14.00650
H         -8.47260        0.18950       14.28510
H         -8.71160        1.17700       12.84090
H         -8.02130        5.92930       11.01420
H         -8.36940        5.54750        8.81570
H        -11.75310        0.93030        6.33740
H        -11.31380        0.23320        7.90910
H        -12.79940        2.87700        7.50360
H        -12.36040        2.17840        9.06500
H        -13.52890        1.35520        8.02820
H         -0.55690        8.41260        3.65600
H         -1.19930        9.95760        3.06960
H         -0.36390        8.56740        1.18170
H         -2.10970        8.79130        1.04960
H         -1.45870        7.25990        1.64250
H         -4.84410        5.55980        2.62980
H         -3.91980        4.19120        0.97380
H          1.08320        6.44600       -1.21640
H          1.71860        4.80650       -0.97550
H          2.53260        5.74600       -3.12160
H          0.86960        6.00710       -3.65630
H          1.47330        4.36370       -3.42400
H        -10.31870       -2.08520       -1.25080
H         -9.75280       -3.73210       -0.90850
H         -9.62070       -3.18450        1.51580
H        -11.25060       -2.89340        0.90050
H        -10.15540       -1.53480        1.18290
H         -4.45210       -1.75900       -2.92450
H          1.70300       -1.69330       -6.32740
H         -3.16550       -3.39250       -4.50720
H          3.43520       -2.72940       -7.60400
H          6.48440        0.68620       -6.53300
H          7.45120        1.18330       -7.93590
H          8.84080        1.11980       -5.87210
H          8.43690       -0.58540       -5.64130
H          9.40030       -0.08670       -7.03490
H          4.58570      -12.68630       -7.60860
H          2.96010      -12.97750       -8.25640
H          3.59120      -11.87250       -5.47290
H          1.97070      -12.17200       -6.11050
H          3.07400      -13.52370       -5.83110
H          6.58470       -8.93050       -9.17250
H          8.50040      -10.08910       -9.52900
H          8.37480      -15.75610      -11.35310
H          7.31980      -15.83630       -9.92890
H          8.80290      -17.83100      -10.05820
H         10.22760      -16.78460      -10.03820
H          9.17610      -16.87370       -8.62180
H         16.74650       -4.38170      -10.44030
H         16.58510       -5.33810      -11.92530
H         18.28040       -6.11310       -9.50160
H         18.89770       -5.48470      -11.03260
H         18.11230       -7.06670      -10.97970
H         15.63170      -10.14200       -9.86700
H         15.75150      -12.74260       -9.90790
