
  xtb     02282221123D
 energy: -194.119038761802 gnorm: 0.000202411796 xtb: 6.4.1 (unknown)
116131  0     0  0            999 V2000
    6.4123    1.9889  -12.3894 C   0  0  0  0  0  0  0  0  0  0  0  0
    5.0100    2.1167  -11.3751 S   0  0  0  0  0  0  0  0  0  0  0  0
    5.5231    0.7282  -10.4873 C   0  0  0  0  0  0  0  0  0  0  0  0
    5.1530   -0.0913   -9.4160 C   0  0  0  0  0  0  0  0  0  0  0  0
    6.1523   -1.0762   -9.2986 C   0  0  0  0  0  0  0  0  0  0  0  0
    7.1207   -0.8694  -10.2474 N   0  0  0  0  0  0  0  0  0  0  0  0
    8.2516   -1.7191  -10.5073 C   0  0  0  0  0  0  0  0  0  0  0  0
    7.8989   -2.8449  -11.4784 C   0  0  0  0  0  0  0  0  0  0  0  0
    6.7340    0.2186  -10.9868 C   0  0  0  0  0  0  0  0  0  0  0  0
    7.2356    0.9517  -12.0804 C   0  0  0  0  0  0  0  0  0  0  0  0
    5.9269   -1.9827   -8.2553 C   0  0  0  0  0  0  0  0  0  0  0  0
    4.7643   -1.6937   -7.5739 C   0  0  0  0  0  0  0  0  0  0  0  0
    3.9251   -0.2898   -8.2231 S   0  0  0  0  0  0  0  0  0  0  0  0
    4.2256   -2.3715   -6.4448 C   0  0  0  0  0  0  0  0  0  0  0  0
    2.7604   -1.7600   -5.6884 S   0  0  0  0  0  0  0  0  0  0  0  0
    2.8426   -3.0040   -4.4984 C   0  0  0  0  0  0  0  0  0  0  0  0
    2.1922   -3.4663   -3.3560 C   0  0  0  0  0  0  0  0  0  0  0  0
    2.9246   -4.5788   -2.8914 C   0  0  0  0  0  0  0  0  0  0  0  0
    4.0030   -4.7954   -3.7126 N   0  0  0  0  0  0  0  0  0  0  0  0
    4.9201   -5.9005   -3.6321 C   0  0  0  0  0  0  0  0  0  0  0  0
    4.3833   -7.1307   -4.3627 C   0  0  0  0  0  0  0  0  0  0  0  0
    3.9542   -3.8475   -4.7034 C   0  0  0  0  0  0  0  0  0  0  0  0
    4.7324   -3.4857   -5.8077 C   0  0  0  0  0  0  0  0  0  0  0  0
    2.4219   -5.1329   -1.7111 C   0  0  0  0  0  0  0  0  0  0  0  0
    1.3038   -4.4555   -1.2617 C   0  0  0  0  0  0  0  0  0  0  0  0
    0.8581   -3.1150   -2.3260 S   0  0  0  0  0  0  0  0  0  0  0  0
    0.5496   -4.6237   -0.0745 C   0  0  0  0  0  0  0  0  0  0  0  0
   -0.4411   -3.3037    0.4533 S   0  0  0  0  0  0  0  0  0  0  0  0
   -0.9217   -4.1111    1.9152 C   0  0  0  0  0  0  0  0  0  0  0  0
   -0.3038   -5.3645    2.0015 C   0  0  0  0  0  0  0  0  0  0  0  0
    0.4923   -5.6785    0.8514 C   0  0  0  0  0  0  0  0  0  0  0  0
    1.0889   -6.9468    0.7551 C   0  0  0  0  0  0  0  0  0  0  0  0
    1.0043   -7.8462    1.7940 C   0  0  0  0  0  0  0  0  0  0  0  0
    1.5918   -9.1776    1.7367 C   0  0  0  0  0  0  0  0  0  0  0  0
    2.0655   -9.7902    0.6574 C   0  0  0  0  0  0  0  0  0  0  0  0
    0.3420   -7.4551    2.9877 C   0  0  0  0  0  0  0  0  0  0  0  0
   -0.3026   -6.2601    3.0924 C   0  0  0  0  0  0  0  0  0  0  0  0
   -1.7856   -3.4217    2.7982 C   0  0  0  0  0  0  0  0  0  0  0  0
   -1.7157   -1.6884    2.8235 S   0  0  0  0  0  0  0  0  0  0  0  0
   -2.9627   -1.5501    4.0218 C   0  0  0  0  0  0  0  0  0  0  0  0
   -3.4141   -2.8199    4.4040 C   0  0  0  0  0  0  0  0  0  0  0  0
   -2.7777   -3.8801    3.6786 C   0  0  0  0  0  0  0  0  0  0  0  0
   -3.2338   -5.2001    3.8289 C   0  0  0  0  0  0  0  0  0  0  0  0
   -4.2001   -5.5060    4.7598 C   0  0  0  0  0  0  0  0  0  0  0  0
   -4.6917   -6.8613    4.9659 C   0  0  0  0  0  0  0  0  0  0  0  0
   -4.1461   -7.9769    4.4942 C   0  0  0  0  0  0  0  0  0  0  0  0
   -4.7374   -4.4612    5.5570 C   0  0  0  0  0  0  0  0  0  0  0  0
   -4.3734   -3.1604    5.3813 C   0  0  0  0  0  0  0  0  0  0  0  0
   -3.3807   -0.2457    4.3885 C   0  0  0  0  0  0  0  0  0  0  0  0
   -2.3483    1.1011    3.8899 S   0  0  0  0  0  0  0  0  0  0  0  0
   -3.4894    2.2292    4.5134 C   0  0  0  0  0  0  0  0  0  0  0  0
   -3.7298    3.5973    4.6149 C   0  0  0  0  0  0  0  0  0  0  0  0
   -4.9759    3.7462    5.2580 C   0  0  0  0  0  0  0  0  0  0  0  0
   -5.4833    2.5108    5.5695 N   0  0  0  0  0  0  0  0  0  0  0  0
   -6.7789    2.2439    6.1359 C   0  0  0  0  0  0  0  0  0  0  0  0
   -7.8536    2.1308    5.0559 C   0  0  0  0  0  0  0  0  0  0  0  0
   -4.5966    1.5769    5.0955 C   0  0  0  0  0  0  0  0  0  0  0  0
   -4.5319    0.1821    5.0212 C   0  0  0  0  0  0  0  0  0  0  0  0
   -5.3767    5.0798    5.3957 C   0  0  0  0  0  0  0  0  0  0  0  0
   -4.4501    5.9473    4.8621 C   0  0  0  0  0  0  0  0  0  0  0  0
   -3.0458    5.1217    4.1885 S   0  0  0  0  0  0  0  0  0  0  0  0
   -4.5245    7.3629    4.7781 C   0  0  0  0  0  0  0  0  0  0  0  0
   -5.9342    8.2112    5.4114 S   0  0  0  0  0  0  0  0  0  0  0  0
   -5.2684    9.7187    4.8988 C   0  0  0  0  0  0  0  0  0  0  0  0
   -5.5420   11.0898    4.8736 C   0  0  0  0  0  0  0  0  0  0  0  0
   -4.4497   11.7074    4.2387 C   0  0  0  0  0  0  0  0  0  0  0  0
   -3.5166   10.7640    3.8963 N   0  0  0  0  0  0  0  0  0  0  0  0
   -2.3135   10.9850    3.1383 C   0  0  0  0  0  0  0  0  0  0  0  0
   -2.5669   10.8744    1.6356 C   0  0  0  0  0  0  0  0  0  0  0  0
   -4.0166    9.5467    4.2780 C   0  0  0  0  0  0  0  0  0  0  0  0
   -3.6008    8.2113    4.2130 C   0  0  0  0  0  0  0  0  0  0  0  0
   -4.5870   13.1057    4.1335 C   0  0  0  0  0  0  0  0  0  0  0  0
   -5.7600   13.5224    4.6800 C   0  0  0  0  0  0  0  0  0  0  0  0
   -6.7355   12.2470    5.3397 S   0  0  0  0  0  0  0  0  0  0  0  0
    6.5387    2.7106  -13.1717 H   0  0  0  0  0  0  0  0  0  0  0  0
    8.5914   -2.1371   -9.5555 H   0  0  0  0  0  0  0  0  0  0  0  0
    9.0549   -1.1037  -10.9219 H   0  0  0  0  0  0  0  0  0  0  0  0
    8.7678   -3.4724  -11.6572 H   0  0  0  0  0  0  0  0  0  0  0  0
    7.1002   -3.4582  -11.0677 H   0  0  0  0  0  0  0  0  0  0  0  0
    7.5630   -2.4314  -12.4264 H   0  0  0  0  0  0  0  0  0  0  0  0
    8.1442    0.7325  -12.6115 H   0  0  0  0  0  0  0  0  0  0  0  0
    6.5715   -2.8034   -8.0005 H   0  0  0  0  0  0  0  0  0  0  0  0
    5.8713   -5.5878   -4.0710 H   0  0  0  0  0  0  0  0  0  0  0  0
    5.0856   -6.1338   -2.5764 H   0  0  0  0  0  0  0  0  0  0  0  0
    3.4348   -7.4397   -3.9298 H   0  0  0  0  0  0  0  0  0  0  0  0
    5.0896   -7.9526   -4.2838 H   0  0  0  0  0  0  0  0  0  0  0  0
    4.2239   -6.9034   -5.4142 H   0  0  0  0  0  0  0  0  0  0  0  0
    5.6199   -3.9963   -6.1324 H   0  0  0  0  0  0  0  0  0  0  0  0
    2.8796   -5.9439   -1.1775 H   0  0  0  0  0  0  0  0  0  0  0  0
    1.6087   -7.2143   -0.1488 H   0  0  0  0  0  0  0  0  0  0  0  0
    1.6140   -9.7012    2.6851 H   0  0  0  0  0  0  0  0  0  0  0  0
    2.0528   -9.3398   -0.3206 H   0  0  0  0  0  0  0  0  0  0  0  0
    2.4788  -10.7826    0.7126 H   0  0  0  0  0  0  0  0  0  0  0  0
    0.3447   -8.1370    3.8262 H   0  0  0  0  0  0  0  0  0  0  0  0
   -0.7912   -5.9776    4.0118 H   0  0  0  0  0  0  0  0  0  0  0  0
   -2.8383   -5.9638    3.1800 H   0  0  0  0  0  0  0  0  0  0  0  0
   -5.5773   -6.9324    5.5862 H   0  0  0  0  0  0  0  0  0  0  0  0
   -3.2540   -7.9788    3.8911 H   0  0  0  0  0  0  0  0  0  0  0  0
   -4.5766   -8.9414    4.7023 H   0  0  0  0  0  0  0  0  0  0  0  0
   -5.4661   -4.7151    6.3138 H   0  0  0  0  0  0  0  0  0  0  0  0
   -4.8037   -2.3897    5.9998 H   0  0  0  0  0  0  0  0  0  0  0  0
   -6.7177    1.3118    6.7048 H   0  0  0  0  0  0  0  0  0  0  0  0
   -7.0239    3.0563    6.8254 H   0  0  0  0  0  0  0  0  0  0  0  0
   -7.9167    3.0580    4.4912 H   0  0  0  0  0  0  0  0  0  0  0  0
   -7.6130    1.3232    4.3684 H   0  0  0  0  0  0  0  0  0  0  0  0
   -8.8202    1.9299    5.5095 H   0  0  0  0  0  0  0  0  0  0  0  0
   -5.3064   -0.4800    5.3581 H   0  0  0  0  0  0  0  0  0  0  0  0
   -6.2927    5.4187    5.8450 H   0  0  0  0  0  0  0  0  0  0  0  0
   -1.5728   10.2428    3.4485 H   0  0  0  0  0  0  0  0  0  0  0  0
   -1.9325   11.9802    3.3835 H   0  0  0  0  0  0  0  0  0  0  0  0
   -3.3041   11.6103    1.3227 H   0  0  0  0  0  0  0  0  0  0  0  0
   -1.6448   11.0461    1.0872 H   0  0  0  0  0  0  0  0  0  0  0  0
   -2.9415    9.8835    1.3900 H   0  0  0  0  0  0  0  0  0  0  0  0
   -2.6838    7.8594    3.7761 H   0  0  0  0  0  0  0  0  0  0  0  0
   -3.8706   13.7677    3.6818 H   0  0  0  0  0  0  0  0  0  0  0  0
   -6.1310   14.5261    4.7409 H   0  0  0  0  0  0  0  0  0  0  0  0
  1  2  1  0  0  0  0
  2  3  1  0  0  0  0
  3  4  1  0  0  0  0
  4  5  2  0  0  0  0
  5  6  1  0  0  0  0
  6  7  1  0  0  0  0
  7  8  1  0  0  0  0
  6  9  1  0  0  0  0
  9 10  1  0  0  0  0
  5 11  1  0  0  0  0
 11 12  2  0  0  0  0
 12 13  1  0  0  0  0
 12 14  1  0  0  0  0
 14 15  1  0  0  0  0
 15 16  1  0  0  0  0
 16 17  1  0  0  0  0
 17 18  2  0  0  0  0
 18 19  1  0  0  0  0
 19 20  1  0  0  0  0
 20 21  1  0  0  0  0
 19 22  1  0  0  0  0
 22 23  1  0  0  0  0
 18 24  1  0  0  0  0
 24 25  2  0  0  0  0
 25 26  1  0  0  0  0
 25 27  1  0  0  0  0
 27 28  1  0  0  0  0
 28 29  1  0  0  0  0
 29 30  2  0  0  0  0
 30 31  1  0  0  0  0
 31 32  1  0  0  0  0
 32 33  2  0  0  0  0
 33 34  1  0  0  0  0
 34 35  2  0  0  0  0
 33 36  1  0  0  0  0
 36 37  2  0  0  0  0
 29 38  1  0  0  0  0
 38 39  1  0  0  0  0
 39 40  1  0  0  0  0
 40 41  2  0  0  0  0
 41 42  1  0  0  0  0
 42 43  1  0  0  0  0
 43 44  2  0  0  0  0
 44 45  1  0  0  0  0
 45 46  2  0  0  0  0
 44 47  1  0  0  0  0
 47 48  2  0  0  0  0
 40 49  1  0  0  0  0
 49 50  1  0  0  0  0
 50 51  1  0  0  0  0
 51 52  1  0  0  0  0
 52 53  2  0  0  0  0
 53 54  1  0  0  0  0
 54 55  1  0  0  0  0
 55 56  1  0  0  0  0
 54 57  1  0  0  0  0
 57 58  1  0  0  0  0
 53 59  1  0  0  0  0
 59 60  2  0  0  0  0
 60 61  1  0  0  0  0
 60 62  1  0  0  0  0
 62 63  1  0  0  0  0
 63 64  1  0  0  0  0
 64 65  1  0  0  0  0
 65 66  2  0  0  0  0
 66 67  1  0  0  0  0
 67 68  1  0  0  0  0
 68 69  1  0  0  0  0
 67 70  1  0  0  0  0
 70 71  1  0  0  0  0
 66 72  1  0  0  0  0
 72 73  2  0  0  0  0
 73 74  1  0  0  0  0
 10  1  2  0  0  0  0
 23 14  2  0  0  0  0
 31 27  2  0  0  0  0
 42 38  2  0  0  0  0
 58 49  2  0  0  0  0
 71 62  2  0  0  0  0
  9  3  2  0  0  0  0
 22 16  2  0  0  0  0
 37 30  1  0  0  0  0
 48 41  1  0  0  0  0
 57 51  2  0  0  0  0
 70 64  2  0  0  0  0
 13  4  1  0  0  0  0
 26 17  1  0  0  0  0
 61 52  1  0  0  0  0
 74 65  1  0  0  0  0
  1 75  1  0  0  0  0
  7 76  1  0  0  0  0
  7 77  1  0  0  0  0
  8 78  1  0  0  0  0
  8 79  1  0  0  0  0
  8 80  1  0  0  0  0
 10 81  1  0  0  0  0
 11 82  1  0  0  0  0
 20 83  1  0  0  0  0
 20 84  1  0  0  0  0
 21 85  1  0  0  0  0
 21 86  1  0  0  0  0
 21 87  1  0  0  0  0
 23 88  1  0  0  0  0
 24 89  1  0  0  0  0
 32 90  1  0  0  0  0
 34 91  1  0  0  0  0
 35 92  1  0  0  0  0
 35 93  1  0  0  0  0
 36 94  1  0  0  0  0
 37 95  1  0  0  0  0
 43 96  1  0  0  0  0
 45 97  1  0  0  0  0
 46 98  1  0  0  0  0
 46 99  1  0  0  0  0
 47100  1  0  0  0  0
 48101  1  0  0  0  0
 55102  1  0  0  0  0
 55103  1  0  0  0  0
 56104  1  0  0  0  0
 56105  1  0  0  0  0
 56106  1  0  0  0  0
 58107  1  0  0  0  0
 59108  1  0  0  0  0
 68109  1  0  0  0  0
 68110  1  0  0  0  0
 69111  1  0  0  0  0
 69112  1  0  0  0  0
 69113  1  0  0  0  0
 71114  1  0  0  0  0
 72115  1  0  0  0  0
 73116  1  0  0  0  0
M  END
