203

C         -4.01670       -2.86690      -13.98750
C         -3.92800       -4.07370      -13.39340
C         -3.88700       -3.99170      -11.96960
C         -3.75700       -5.03900      -11.04390
C         -3.71980       -6.44530      -11.46400
C         -2.71380       -7.29710      -11.01850
C         -2.67530       -8.62360      -11.40270
C         -3.64380       -9.14730      -12.25100
S         -3.72920      -10.81690      -12.80650
C         -2.09800      -11.51790      -12.37980
C         -0.98610      -10.96810      -13.25310
C         -4.65480       -8.28430      -12.67940
F         -5.62130       -8.76080      -13.49030
C         -4.70440       -6.96080      -12.30490
C         -3.66530       -4.67820       -9.70910
C         -3.71210       -3.33530       -9.26140
C         -3.84530       -2.28660      -10.18720
C         -3.88040       -0.88690       -9.74800
C         -4.88400       -0.02200      -10.18210
C         -4.91830        1.28620       -9.75250
C         -3.96450        1.78980       -8.86800
S         -4.18740        3.46330       -8.34340
C         -2.50060        4.11640       -8.06060
C         -1.63420        4.03250       -9.30090
C         -2.97510        0.91290       -8.43560
C         -2.91650       -0.39470       -8.87330
F         -2.02220        1.31120       -7.55840
C         -3.93830       -2.64880      -11.52370
S         -4.05560       -1.54490      -12.87090
C         -3.64350       -3.24890       -7.85200
C         -3.53030       -4.45680       -7.21790
S         -3.53240       -5.78560       -8.36580
C         -3.34380       -4.62920       -5.82140
S         -2.96560       -3.22590       -4.88170
C         -2.79440       -4.12830       -3.41560
C         -3.03300       -5.48720       -3.64270
C         -3.34980       -5.77280       -5.01230
C         -3.62730       -7.09200       -5.40700
C         -3.56940       -8.12210       -4.49740
C         -3.84770       -9.50650       -4.85460
C         -4.01720       -9.98620       -6.08170
C         -3.22100       -7.82990       -3.15170
C         -2.95880       -6.56210       -2.73060
C         -2.38970       -3.42210       -2.24940
C         -2.42500       -3.77010       -0.92860
C         -1.86220       -2.79820       -0.06310
C         -1.68050       -2.88400        1.32920
C         -2.04700       -4.09870        2.06580
C         -1.61480       -5.34970        1.63290
C         -1.96970       -6.50230        2.30570
C         -2.78220       -6.44630        3.43260
S         -3.31580       -7.83710        4.37340
C         -3.04610       -9.25540        3.25430
C         -3.98430       -9.23700        2.06240
C         -3.18470       -5.18350        3.87150
F         -3.95930       -5.09080        4.97020
C         -2.83020       -4.02630        3.21550
C         -1.10560       -1.78650        1.95170
C         -0.69620       -0.62780        1.24490
C         -0.84710       -0.55200       -0.15040
C         -0.35180        0.59690       -0.91710
C         -1.14110        1.21160       -1.88560
C         -0.66800        2.27890       -2.62290
C          0.61560        2.77280       -2.42080
S          1.31560        4.13320       -3.30110
C          0.43220        4.09480       -4.89950
C          0.71090        2.82180       -5.67390
C          1.38910        2.16050       -1.43580
C          0.93450        1.08980       -0.70000
F          2.63390        2.62630       -1.18910
C         -1.44090       -1.64140       -0.76510
S         -1.69430       -1.82050       -2.47750
C         -0.11660        0.33450        2.10110
C         -0.00890       -0.07420        3.40030
S         -0.69790       -1.66460        3.64630
C          0.67660        0.63740        4.42950
C          1.29820        1.84340        4.27160
C          2.04620        2.25410        5.39740
C          2.86470        3.39330        5.51040
C          3.03440        4.29710        4.36660
C          3.32910        3.79110        3.10190
C          3.40400        4.61360        1.99510
C          3.19170        5.98280        2.11460
S          3.18750        7.13370        0.78280
C          3.11590        6.08930       -0.71500
C          4.48530        5.68760       -1.22710
C          2.95570        6.48470        3.39670
F          2.77330        7.81170        3.55540
C          2.87210        5.67390        4.50620
C          3.48890        3.58180        6.73070
C          3.36050        2.67810        7.81750
C          2.57560        1.51800        7.68530
C          2.48770        0.51830        8.75560
C          1.25820        0.02630        9.18140
C          1.17240       -0.93210       10.17310
C          2.31840       -1.43780       10.77480
S          2.37110       -2.67070       12.03140
C          0.62430       -2.92770       12.49290
C          0.07470       -1.79240       13.33620
C          3.54610       -0.94470       10.32790
C          3.64570        0.01350        9.34610
F          4.68200       -1.42840       10.87430
C          1.92460        1.34230        6.47390
S          0.93540       -0.02820        6.02920
C          4.08950        3.10440        8.95340
C          4.80350        4.25630        8.75760
S          4.56330        4.89240        7.13170
C          5.64530        4.98180        9.63900
S          6.03640        6.61860        9.23120
C          7.00540        6.85990       10.64840
C          7.03580        5.68020       11.41230
C          6.27540        4.61090       10.83670
C          6.26660        3.35110       11.45860
C          6.95220        3.13930       12.63340
C          6.96690        1.85680       13.32500
C          6.44570        0.71400       12.89370
C          7.69130        4.21120       13.19570
C          7.74810        5.43690       12.60400
C          7.58280        8.12490       10.91420
S          8.00570        8.59640       12.53630
C          8.50560       10.15250       12.05190
C          8.37420       10.33920       10.69560
C          7.84350        9.18460       10.02760
C          7.69280        9.22530        8.63160
C          8.01640       10.35680        7.91440
C          7.83910       10.33910        6.47080
C          8.14490       11.30930        5.61550
C          8.51120       11.50090        8.60100
C          8.69460       11.49730        9.94600
H         -4.06360       -2.64990      -15.03670
H         -3.87430       -5.00100      -13.93400
H         -1.93690       -6.91510      -10.37400
H         -1.88100       -9.24800      -11.02780
H         -2.23020      -12.58650      -12.55000
H         -1.91470      -11.35740      -11.31820
H         -0.04140      -11.44050      -12.99060
H         -1.19740      -11.17110      -14.30020
H         -0.88380       -9.89230      -13.12700
H         -5.51980       -6.34550      -12.65160
H         -5.65030       -0.38360      -10.84980
H         -5.69870        1.95010      -10.09020
H         -2.05850        3.59520       -7.21450
H         -2.68400        5.15420       -7.78070
H         -1.44640        2.99680       -9.57660
H         -0.67770        4.51700       -9.11390
H         -2.11930        4.52930      -10.13830
H         -2.10700       -1.01860       -8.52680
H         -3.69620       -2.32170       -7.31030
H         -3.89750       -7.28500       -6.43160
H         -3.90340      -10.18700       -4.01350
H         -3.95920       -9.36940       -6.96230
H         -4.21910      -11.03010       -6.24940
H         -3.16190       -8.64830       -2.44830
H         -2.68360       -6.37710       -1.70550
H         -2.87740       -4.67200       -0.56270
H         -0.96760       -5.41940        0.77120
H         -1.59810       -7.44890        1.94780
H         -3.24410      -10.11880        3.88920
H         -1.99750       -9.27700        2.95990
H         -5.01810       -9.24120        2.39920
H         -3.81570      -10.11730        1.44490
H         -3.82680       -8.34900        1.45350
H         -3.18710       -3.08000        3.58970
H         -2.14900        0.86500       -2.05320
H         -1.31480        2.73360       -3.35550
H         -0.63100        4.24710       -4.71680
H          0.82220        4.96750       -5.42370
H          0.34450        1.94960       -5.13640
H          1.78050        2.70530       -5.83360
H          0.21680        2.85730       -6.64220
H          1.59630        0.62650        0.01480
H          0.21310        1.29770        1.76130
H          1.22620        2.42920        3.37490
H          3.52150        2.73520        2.98370
H          3.62290        4.17470        1.03550
H          2.48980        5.22730       -0.49630
H          2.60260        6.71160       -1.44770
H          5.06070        6.56900       -1.50000
H          5.04280        5.13450       -0.47510
H          4.36660        5.05590       -2.10470
H          2.64970        6.11750        5.46370
H          0.34950        0.40910        8.74280
H          0.19770       -1.28540       10.46620
H          0.04700       -3.09350       11.58430
H          0.64550       -3.85640       13.06340
H         -0.95850       -2.00050       13.60800
H          0.10900       -0.84880       12.79600
H          0.65930       -1.68540       14.24680
H          4.62210        0.33970        9.02210
H          4.02870        2.59610        9.89670
H          5.73180        2.54030       10.99650
H          7.46810        1.87290       14.28550
H          5.94810        0.61720       11.94520
H          6.50610       -0.18710       13.47850
H          8.24120        4.03500       14.10880
H          8.35150        6.21640       13.04000
H          8.87190       10.84450       12.78340
H          7.33220        8.35650        8.10350
H          7.41040        9.42190        6.08540
H          7.96920       11.19420        4.55980
H          8.57680       12.24750        5.91880
H          8.75110       12.38630        8.03420
H          9.08400       12.36150       10.46340
