
  xtb     03082201333D
 energy: -346.145206521350 gnorm: 0.000187527919 xtb: 6.4.1 (unknown)
203223  0     0  0            999 V2000
   -4.0167   -2.8669  -13.9875 C   0  0  0  0  0  0  0  0  0  0  0  0
   -3.9280   -4.0737  -13.3934 C   0  0  0  0  0  0  0  0  0  0  0  0
   -3.8870   -3.9917  -11.9696 C   0  0  0  0  0  0  0  0  0  0  0  0
   -3.7570   -5.0390  -11.0439 C   0  0  0  0  0  0  0  0  0  0  0  0
   -3.7198   -6.4453  -11.4640 C   0  0  0  0  0  0  0  0  0  0  0  0
   -2.7138   -7.2971  -11.0185 C   0  0  0  0  0  0  0  0  0  0  0  0
   -2.6753   -8.6236  -11.4027 C   0  0  0  0  0  0  0  0  0  0  0  0
   -3.6438   -9.1473  -12.2510 C   0  0  0  0  0  0  0  0  0  0  0  0
   -3.7292  -10.8169  -12.8065 S   0  0  0  0  0  0  0  0  0  0  0  0
   -2.0980  -11.5179  -12.3798 C   0  0  0  0  0  0  0  0  0  0  0  0
   -0.9861  -10.9681  -13.2531 C   0  0  0  0  0  0  0  0  0  0  0  0
   -4.6548   -8.2843  -12.6794 C   0  0  0  0  0  0  0  0  0  0  0  0
   -5.6213   -8.7608  -13.4903 F   0  0  0  0  0  0  0  0  0  0  0  0
   -4.7044   -6.9608  -12.3049 C   0  0  0  0  0  0  0  0  0  0  0  0
   -3.6653   -4.6782   -9.7091 C   0  0  0  0  0  0  0  0  0  0  0  0
   -3.7121   -3.3353   -9.2614 C   0  0  0  0  0  0  0  0  0  0  0  0
   -3.8453   -2.2866  -10.1872 C   0  0  0  0  0  0  0  0  0  0  0  0
   -3.8804   -0.8869   -9.7480 C   0  0  0  0  0  0  0  0  0  0  0  0
   -4.8840   -0.0220  -10.1821 C   0  0  0  0  0  0  0  0  0  0  0  0
   -4.9183    1.2862   -9.7525 C   0  0  0  0  0  0  0  0  0  0  0  0
   -3.9645    1.7898   -8.8680 C   0  0  0  0  0  0  0  0  0  0  0  0
   -4.1874    3.4633   -8.3434 S   0  0  0  0  0  0  0  0  0  0  0  0
   -2.5006    4.1164   -8.0606 C   0  0  0  0  0  0  0  0  0  0  0  0
   -1.6342    4.0325   -9.3009 C   0  0  0  0  0  0  0  0  0  0  0  0
   -2.9751    0.9129   -8.4356 C   0  0  0  0  0  0  0  0  0  0  0  0
   -2.9165   -0.3947   -8.8733 C   0  0  0  0  0  0  0  0  0  0  0  0
   -2.0222    1.3112   -7.5584 F   0  0  0  0  0  0  0  0  0  0  0  0
   -3.9383   -2.6488  -11.5237 C   0  0  0  0  0  0  0  0  0  0  0  0
   -4.0556   -1.5449  -12.8709 S   0  0  0  0  0  0  0  0  0  0  0  0
   -3.6435   -3.2489   -7.8520 C   0  0  0  0  0  0  0  0  0  0  0  0
   -3.5303   -4.4568   -7.2179 C   0  0  0  0  0  0  0  0  0  0  0  0
   -3.5324   -5.7856   -8.3658 S   0  0  0  0  0  0  0  0  0  0  0  0
   -3.3438   -4.6292   -5.8214 C   0  0  0  0  0  0  0  0  0  0  0  0
   -2.9656   -3.2259   -4.8817 S   0  0  0  0  0  0  0  0  0  0  0  0
   -2.7944   -4.1283   -3.4156 C   0  0  0  0  0  0  0  0  0  0  0  0
   -3.0330   -5.4872   -3.6427 C   0  0  0  0  0  0  0  0  0  0  0  0
   -3.3498   -5.7728   -5.0123 C   0  0  0  0  0  0  0  0  0  0  0  0
   -3.6273   -7.0920   -5.4070 C   0  0  0  0  0  0  0  0  0  0  0  0
   -3.5694   -8.1221   -4.4974 C   0  0  0  0  0  0  0  0  0  0  0  0
   -3.8477   -9.5065   -4.8546 C   0  0  0  0  0  0  0  0  0  0  0  0
   -4.0172   -9.9862   -6.0817 C   0  0  0  0  0  0  0  0  0  0  0  0
   -3.2210   -7.8299   -3.1517 C   0  0  0  0  0  0  0  0  0  0  0  0
   -2.9588   -6.5621   -2.7306 C   0  0  0  0  0  0  0  0  0  0  0  0
   -2.3897   -3.4221   -2.2494 C   0  0  0  0  0  0  0  0  0  0  0  0
   -2.4250   -3.7701   -0.9286 C   0  0  0  0  0  0  0  0  0  0  0  0
   -1.8622   -2.7982   -0.0631 C   0  0  0  0  0  0  0  0  0  0  0  0
   -1.6805   -2.8840    1.3292 C   0  0  0  0  0  0  0  0  0  0  0  0
   -2.0470   -4.0987    2.0658 C   0  0  0  0  0  0  0  0  0  0  0  0
   -1.6148   -5.3497    1.6329 C   0  0  0  0  0  0  0  0  0  0  0  0
   -1.9697   -6.5023    2.3057 C   0  0  0  0  0  0  0  0  0  0  0  0
   -2.7822   -6.4463    3.4326 C   0  0  0  0  0  0  0  0  0  0  0  0
   -3.3158   -7.8371    4.3734 S   0  0  0  0  0  0  0  0  0  0  0  0
   -3.0461   -9.2554    3.2543 C   0  0  0  0  0  0  0  0  0  0  0  0
   -3.9843   -9.2370    2.0624 C   0  0  0  0  0  0  0  0  0  0  0  0
   -3.1847   -5.1835    3.8715 C   0  0  0  0  0  0  0  0  0  0  0  0
   -3.9593   -5.0908    4.9702 F   0  0  0  0  0  0  0  0  0  0  0  0
   -2.8302   -4.0263    3.2155 C   0  0  0  0  0  0  0  0  0  0  0  0
   -1.1056   -1.7865    1.9517 C   0  0  0  0  0  0  0  0  0  0  0  0
   -0.6962   -0.6278    1.2449 C   0  0  0  0  0  0  0  0  0  0  0  0
   -0.8471   -0.5520   -0.1504 C   0  0  0  0  0  0  0  0  0  0  0  0
   -0.3518    0.5969   -0.9171 C   0  0  0  0  0  0  0  0  0  0  0  0
   -1.1411    1.2116   -1.8856 C   0  0  0  0  0  0  0  0  0  0  0  0
   -0.6680    2.2789   -2.6229 C   0  0  0  0  0  0  0  0  0  0  0  0
    0.6156    2.7728   -2.4208 C   0  0  0  0  0  0  0  0  0  0  0  0
    1.3156    4.1332   -3.3011 S   0  0  0  0  0  0  0  0  0  0  0  0
    0.4322    4.0948   -4.8995 C   0  0  0  0  0  0  0  0  0  0  0  0
    0.7109    2.8218   -5.6739 C   0  0  0  0  0  0  0  0  0  0  0  0
    1.3891    2.1605   -1.4358 C   0  0  0  0  0  0  0  0  0  0  0  0
    0.9345    1.0898   -0.7000 C   0  0  0  0  0  0  0  0  0  0  0  0
    2.6339    2.6263   -1.1891 F   0  0  0  0  0  0  0  0  0  0  0  0
   -1.4409   -1.6414   -0.7651 C   0  0  0  0  0  0  0  0  0  0  0  0
   -1.6943   -1.8205   -2.4775 S   0  0  0  0  0  0  0  0  0  0  0  0
   -0.1166    0.3345    2.1011 C   0  0  0  0  0  0  0  0  0  0  0  0
   -0.0089   -0.0742    3.4003 C   0  0  0  0  0  0  0  0  0  0  0  0
   -0.6979   -1.6646    3.6463 S   0  0  0  0  0  0  0  0  0  0  0  0
    0.6766    0.6374    4.4295 C   0  0  0  0  0  0  0  0  0  0  0  0
    1.2982    1.8434    4.2716 C   0  0  0  0  0  0  0  0  0  0  0  0
    2.0462    2.2541    5.3974 C   0  0  0  0  0  0  0  0  0  0  0  0
    2.8647    3.3933    5.5104 C   0  0  0  0  0  0  0  0  0  0  0  0
    3.0344    4.2971    4.3666 C   0  0  0  0  0  0  0  0  0  0  0  0
    3.3291    3.7911    3.1019 C   0  0  0  0  0  0  0  0  0  0  0  0
    3.4040    4.6136    1.9951 C   0  0  0  0  0  0  0  0  0  0  0  0
    3.1917    5.9828    2.1146 C   0  0  0  0  0  0  0  0  0  0  0  0
    3.1875    7.1337    0.7828 S   0  0  0  0  0  0  0  0  0  0  0  0
    3.1159    6.0893   -0.7150 C   0  0  0  0  0  0  0  0  0  0  0  0
    4.4853    5.6876   -1.2271 C   0  0  0  0  0  0  0  0  0  0  0  0
    2.9557    6.4847    3.3967 C   0  0  0  0  0  0  0  0  0  0  0  0
    2.7733    7.8117    3.5554 F   0  0  0  0  0  0  0  0  0  0  0  0
    2.8721    5.6739    4.5062 C   0  0  0  0  0  0  0  0  0  0  0  0
    3.4889    3.5818    6.7307 C   0  0  0  0  0  0  0  0  0  0  0  0
    3.3605    2.6781    7.8175 C   0  0  0  0  0  0  0  0  0  0  0  0
    2.5756    1.5180    7.6853 C   0  0  0  0  0  0  0  0  0  0  0  0
    2.4877    0.5183    8.7556 C   0  0  0  0  0  0  0  0  0  0  0  0
    1.2582    0.0263    9.1814 C   0  0  0  0  0  0  0  0  0  0  0  0
    1.1724   -0.9321   10.1731 C   0  0  0  0  0  0  0  0  0  0  0  0
    2.3184   -1.4378   10.7748 C   0  0  0  0  0  0  0  0  0  0  0  0
    2.3711   -2.6707   12.0314 S   0  0  0  0  0  0  0  0  0  0  0  0
    0.6243   -2.9277   12.4929 C   0  0  0  0  0  0  0  0  0  0  0  0
    0.0747   -1.7924   13.3362 C   0  0  0  0  0  0  0  0  0  0  0  0
    3.5461   -0.9447   10.3279 C   0  0  0  0  0  0  0  0  0  0  0  0
    3.6457    0.0135    9.3461 C   0  0  0  0  0  0  0  0  0  0  0  0
    4.6820   -1.4284   10.8743 F   0  0  0  0  0  0  0  0  0  0  0  0
    1.9246    1.3423    6.4739 C   0  0  0  0  0  0  0  0  0  0  0  0
    0.9354   -0.0282    6.0292 S   0  0  0  0  0  0  0  0  0  0  0  0
    4.0895    3.1044    8.9534 C   0  0  0  0  0  0  0  0  0  0  0  0
    4.8035    4.2563    8.7576 C   0  0  0  0  0  0  0  0  0  0  0  0
    4.5633    4.8924    7.1317 S   0  0  0  0  0  0  0  0  0  0  0  0
    5.6453    4.9818    9.6390 C   0  0  0  0  0  0  0  0  0  0  0  0
    6.0364    6.6186    9.2312 S   0  0  0  0  0  0  0  0  0  0  0  0
    7.0054    6.8599   10.6484 C   0  0  0  0  0  0  0  0  0  0  0  0
    7.0358    5.6802   11.4123 C   0  0  0  0  0  0  0  0  0  0  0  0
    6.2754    4.6109   10.8367 C   0  0  0  0  0  0  0  0  0  0  0  0
    6.2666    3.3511   11.4586 C   0  0  0  0  0  0  0  0  0  0  0  0
    6.9522    3.1393   12.6334 C   0  0  0  0  0  0  0  0  0  0  0  0
    6.9669    1.8568   13.3250 C   0  0  0  0  0  0  0  0  0  0  0  0
    6.4457    0.7140   12.8937 C   0  0  0  0  0  0  0  0  0  0  0  0
    7.6913    4.2112   13.1957 C   0  0  0  0  0  0  0  0  0  0  0  0
    7.7481    5.4369   12.6040 C   0  0  0  0  0  0  0  0  0  0  0  0
    7.5828    8.1249   10.9142 C   0  0  0  0  0  0  0  0  0  0  0  0
    8.0057    8.5964   12.5363 S   0  0  0  0  0  0  0  0  0  0  0  0
    8.5056   10.1525   12.0519 C   0  0  0  0  0  0  0  0  0  0  0  0
    8.3742   10.3392   10.6956 C   0  0  0  0  0  0  0  0  0  0  0  0
    7.8435    9.1846   10.0276 C   0  0  0  0  0  0  0  0  0  0  0  0
    7.6928    9.2253    8.6316 C   0  0  0  0  0  0  0  0  0  0  0  0
    8.0164   10.3568    7.9144 C   0  0  0  0  0  0  0  0  0  0  0  0
    7.8391   10.3391    6.4708 C   0  0  0  0  0  0  0  0  0  0  0  0
    8.1449   11.3093    5.6155 C   0  0  0  0  0  0  0  0  0  0  0  0
    8.5112   11.5009    8.6010 C   0  0  0  0  0  0  0  0  0  0  0  0
    8.6946   11.4973    9.9460 C   0  0  0  0  0  0  0  0  0  0  0  0
   -4.0636   -2.6499  -15.0367 H   0  0  0  0  0  0  0  0  0  0  0  0
   -3.8743   -5.0010  -13.9340 H   0  0  0  0  0  0  0  0  0  0  0  0
   -1.9369   -6.9151  -10.3740 H   0  0  0  0  0  0  0  0  0  0  0  0
   -1.8810   -9.2480  -11.0278 H   0  0  0  0  0  0  0  0  0  0  0  0
   -2.2302  -12.5865  -12.5500 H   0  0  0  0  0  0  0  0  0  0  0  0
   -1.9147  -11.3574  -11.3182 H   0  0  0  0  0  0  0  0  0  0  0  0
   -0.0414  -11.4405  -12.9906 H   0  0  0  0  0  0  0  0  0  0  0  0
   -1.1974  -11.1711  -14.3002 H   0  0  0  0  0  0  0  0  0  0  0  0
   -0.8838   -9.8923  -13.1270 H   0  0  0  0  0  0  0  0  0  0  0  0
   -5.5198   -6.3455  -12.6516 H   0  0  0  0  0  0  0  0  0  0  0  0
   -5.6503   -0.3836  -10.8498 H   0  0  0  0  0  0  0  0  0  0  0  0
   -5.6987    1.9501  -10.0902 H   0  0  0  0  0  0  0  0  0  0  0  0
   -2.0585    3.5952   -7.2145 H   0  0  0  0  0  0  0  0  0  0  0  0
   -2.6840    5.1542   -7.7807 H   0  0  0  0  0  0  0  0  0  0  0  0
   -1.4464    2.9968   -9.5766 H   0  0  0  0  0  0  0  0  0  0  0  0
   -0.6777    4.5170   -9.1139 H   0  0  0  0  0  0  0  0  0  0  0  0
   -2.1193    4.5293  -10.1383 H   0  0  0  0  0  0  0  0  0  0  0  0
   -2.1070   -1.0186   -8.5268 H   0  0  0  0  0  0  0  0  0  0  0  0
   -3.6962   -2.3217   -7.3103 H   0  0  0  0  0  0  0  0  0  0  0  0
   -3.8975   -7.2850   -6.4316 H   0  0  0  0  0  0  0  0  0  0  0  0
   -3.9034  -10.1870   -4.0135 H   0  0  0  0  0  0  0  0  0  0  0  0
   -3.9592   -9.3694   -6.9623 H   0  0  0  0  0  0  0  0  0  0  0  0
   -4.2191  -11.0301   -6.2494 H   0  0  0  0  0  0  0  0  0  0  0  0
   -3.1619   -8.6483   -2.4483 H   0  0  0  0  0  0  0  0  0  0  0  0
   -2.6836   -6.3771   -1.7055 H   0  0  0  0  0  0  0  0  0  0  0  0
   -2.8774   -4.6720   -0.5627 H   0  0  0  0  0  0  0  0  0  0  0  0
   -0.9676   -5.4194    0.7712 H   0  0  0  0  0  0  0  0  0  0  0  0
   -1.5981   -7.4489    1.9478 H   0  0  0  0  0  0  0  0  0  0  0  0
   -3.2441  -10.1188    3.8892 H   0  0  0  0  0  0  0  0  0  0  0  0
   -1.9975   -9.2770    2.9599 H   0  0  0  0  0  0  0  0  0  0  0  0
   -5.0181   -9.2412    2.3992 H   0  0  0  0  0  0  0  0  0  0  0  0
   -3.8157  -10.1173    1.4449 H   0  0  0  0  0  0  0  0  0  0  0  0
   -3.8268   -8.3490    1.4535 H   0  0  0  0  0  0  0  0  0  0  0  0
   -3.1871   -3.0800    3.5897 H   0  0  0  0  0  0  0  0  0  0  0  0
   -2.1490    0.8650   -2.0532 H   0  0  0  0  0  0  0  0  0  0  0  0
   -1.3148    2.7336   -3.3555 H   0  0  0  0  0  0  0  0  0  0  0  0
   -0.6310    4.2471   -4.7168 H   0  0  0  0  0  0  0  0  0  0  0  0
    0.8222    4.9675   -5.4237 H   0  0  0  0  0  0  0  0  0  0  0  0
    0.3445    1.9496   -5.1364 H   0  0  0  0  0  0  0  0  0  0  0  0
    1.7805    2.7053   -5.8336 H   0  0  0  0  0  0  0  0  0  0  0  0
    0.2168    2.8573   -6.6422 H   0  0  0  0  0  0  0  0  0  0  0  0
    1.5963    0.6265    0.0148 H   0  0  0  0  0  0  0  0  0  0  0  0
    0.2131    1.2977    1.7613 H   0  0  0  0  0  0  0  0  0  0  0  0
    1.2262    2.4292    3.3749 H   0  0  0  0  0  0  0  0  0  0  0  0
    3.5215    2.7352    2.9837 H   0  0  0  0  0  0  0  0  0  0  0  0
    3.6229    4.1747    1.0355 H   0  0  0  0  0  0  0  0  0  0  0  0
    2.4898    5.2273   -0.4963 H   0  0  0  0  0  0  0  0  0  0  0  0
    2.6026    6.7116   -1.4477 H   0  0  0  0  0  0  0  0  0  0  0  0
    5.0607    6.5690   -1.5000 H   0  0  0  0  0  0  0  0  0  0  0  0
    5.0428    5.1345   -0.4751 H   0  0  0  0  0  0  0  0  0  0  0  0
    4.3666    5.0559   -2.1047 H   0  0  0  0  0  0  0  0  0  0  0  0
    2.6497    6.1175    5.4637 H   0  0  0  0  0  0  0  0  0  0  0  0
    0.3495    0.4091    8.7428 H   0  0  0  0  0  0  0  0  0  0  0  0
    0.1977   -1.2854   10.4662 H   0  0  0  0  0  0  0  0  0  0  0  0
    0.0470   -3.0935   11.5843 H   0  0  0  0  0  0  0  0  0  0  0  0
    0.6455   -3.8564   13.0634 H   0  0  0  0  0  0  0  0  0  0  0  0
   -0.9585   -2.0005   13.6080 H   0  0  0  0  0  0  0  0  0  0  0  0
    0.1090   -0.8488   12.7960 H   0  0  0  0  0  0  0  0  0  0  0  0
    0.6593   -1.6854   14.2468 H   0  0  0  0  0  0  0  0  0  0  0  0
    4.6221    0.3397    9.0221 H   0  0  0  0  0  0  0  0  0  0  0  0
    4.0287    2.5961    9.8967 H   0  0  0  0  0  0  0  0  0  0  0  0
    5.7318    2.5403   10.9965 H   0  0  0  0  0  0  0  0  0  0  0  0
    7.4681    1.8729   14.2855 H   0  0  0  0  0  0  0  0  0  0  0  0
    5.9481    0.6172   11.9452 H   0  0  0  0  0  0  0  0  0  0  0  0
    6.5061   -0.1871   13.4785 H   0  0  0  0  0  0  0  0  0  0  0  0
    8.2412    4.0350   14.1088 H   0  0  0  0  0  0  0  0  0  0  0  0
    8.3515    6.2164   13.0400 H   0  0  0  0  0  0  0  0  0  0  0  0
    8.8719   10.8445   12.7834 H   0  0  0  0  0  0  0  0  0  0  0  0
    7.3322    8.3565    8.1035 H   0  0  0  0  0  0  0  0  0  0  0  0
    7.4104    9.4219    6.0854 H   0  0  0  0  0  0  0  0  0  0  0  0
    7.9692   11.1942    4.5598 H   0  0  0  0  0  0  0  0  0  0  0  0
    8.5768   12.2475    5.9188 H   0  0  0  0  0  0  0  0  0  0  0  0
    8.7511   12.3863    8.0342 H   0  0  0  0  0  0  0  0  0  0  0  0
    9.0840   12.3615   10.4634 H   0  0  0  0  0  0  0  0  0  0  0  0
  1  2  2  0  0  0  0
  2  3  1  0  0  0  0
  3  4  2  0  0  0  0
  4  5  1  0  0  0  0
  5  6  2  0  0  0  0
  6  7  1  0  0  0  0
  7  8  2  0  0  0  0
  8  9  1  0  0  0  0
  9 10  1  0  0  0  0
 10 11  1  0  0  0  0
  8 12  1  0  0  0  0
 12 13  1  0  0  0  0
 12 14  2  0  0  0  0
  4 15  1  0  0  0  0
 15 16  2  0  0  0  0
 16 17  1  0  0  0  0
 17 18  1  0  0  0  0
 18 19  2  0  0  0  0
 19 20  1  0  0  0  0
 20 21  2  0  0  0  0
 21 22  1  0  0  0  0
 22 23  1  0  0  0  0
 23 24  1  0  0  0  0
 21 25  1  0  0  0  0
 25 26  2  0  0  0  0
 25 27  1  0  0  0  0
 17 28  2  0  0  0  0
 28 29  1  0  0  0  0
 16 30  1  0  0  0  0
 30 31  2  0  0  0  0
 31 32  1  0  0  0  0
 31 33  1  0  0  0  0
 33 34  1  0  0  0  0
 34 35  1  0  0  0  0
 35 36  2  0  0  0  0
 36 37  1  0  0  0  0
 37 38  1  0  0  0  0
 38 39  2  0  0  0  0
 39 40  1  0  0  0  0
 40 41  2  0  0  0  0
 39 42  1  0  0  0  0
 42 43  2  0  0  0  0
 35 44  1  0  0  0  0
 44 45  2  0  0  0  0
 45 46  1  0  0  0  0
 46 47  2  0  0  0  0
 47 48  1  0  0  0  0
 48 49  2  0  0  0  0
 49 50  1  0  0  0  0
 50 51  2  0  0  0  0
 51 52  1  0  0  0  0
 52 53  1  0  0  0  0
 53 54  1  0  0  0  0
 51 55  1  0  0  0  0
 55 56  1  0  0  0  0
 55 57  2  0  0  0  0
 47 58  1  0  0  0  0
 58 59  2  0  0  0  0
 59 60  1  0  0  0  0
 60 61  1  0  0  0  0
 61 62  2  0  0  0  0
 62 63  1  0  0  0  0
 63 64  2  0  0  0  0
 64 65  1  0  0  0  0
 65 66  1  0  0  0  0
 66 67  1  0  0  0  0
 64 68  1  0  0  0  0
 68 69  2  0  0  0  0
 68 70  1  0  0  0  0
 60 71  2  0  0  0  0
 71 72  1  0  0  0  0
 59 73  1  0  0  0  0
 73 74  2  0  0  0  0
 74 75  1  0  0  0  0
 74 76  1  0  0  0  0
 76 77  2  0  0  0  0
 77 78  1  0  0  0  0
 78 79  2  0  0  0  0
 79 80  1  0  0  0  0
 80 81  2  0  0  0  0
 81 82  1  0  0  0  0
 82 83  2  0  0  0  0
 83 84  1  0  0  0  0
 84 85  1  0  0  0  0
 85 86  1  0  0  0  0
 83 87  1  0  0  0  0
 87 88  1  0  0  0  0
 87 89  2  0  0  0  0
 79 90  1  0  0  0  0
 90 91  2  0  0  0  0
 91 92  1  0  0  0  0
 92 93  1  0  0  0  0
 93 94  2  0  0  0  0
 94 95  1  0  0  0  0
 95 96  2  0  0  0  0
 96 97  1  0  0  0  0
 97 98  1  0  0  0  0
 98 99  1  0  0  0  0
 96100  1  0  0  0  0
100101  2  0  0  0  0
100102  1  0  0  0  0
 92103  2  0  0  0  0
103104  1  0  0  0  0
 91105  1  0  0  0  0
105106  2  0  0  0  0
106107  1  0  0  0  0
106108  1  0  0  0  0
108109  1  0  0  0  0
109110  1  0  0  0  0
110111  2  0  0  0  0
111112  1  0  0  0  0
112113  1  0  0  0  0
113114  2  0  0  0  0
114115  1  0  0  0  0
115116  2  0  0  0  0
114117  1  0  0  0  0
117118  2  0  0  0  0
110119  1  0  0  0  0
119120  1  0  0  0  0
120121  1  0  0  0  0
121122  2  0  0  0  0
122123  1  0  0  0  0
123124  1  0  0  0  0
124125  2  0  0  0  0
125126  1  0  0  0  0
126127  2  0  0  0  0
125128  1  0  0  0  0
128129  2  0  0  0  0
 29  1  1  0  0  0  0
 37 33  2  0  0  0  0
 72 44  1  0  0  0  0
104 76  1  0  0  0  0
112108  2  0  0  0  0
123119  2  0  0  0  0
 28  3  1  0  0  0  0
 43 36  1  0  0  0  0
 71 46  1  0  0  0  0
103 78  1  0  0  0  0
118111  1  0  0  0  0
129122  1  0  0  0  0
 14  5  1  0  0  0  0
 32 15  1  0  0  0  0
 57 48  1  0  0  0  0
 75 58  1  0  0  0  0
 89 80  1  0  0  0  0
107 90  1  0  0  0  0
 26 18  1  0  0  0  0
 69 61  1  0  0  0  0
101 93  1  0  0  0  0
  1130  1  0  0  0  0
  2131  1  0  0  0  0
  6132  1  0  0  0  0
  7133  1  0  0  0  0
 10134  1  0  0  0  0
 10135  1  0  0  0  0
 11136  1  0  0  0  0
 11137  1  0  0  0  0
 11138  1  0  0  0  0
 14139  1  0  0  0  0
 19140  1  0  0  0  0
 20141  1  0  0  0  0
 23142  1  0  0  0  0
 23143  1  0  0  0  0
 24144  1  0  0  0  0
 24145  1  0  0  0  0
 24146  1  0  0  0  0
 26147  1  0  0  0  0
 30148  1  0  0  0  0
 38149  1  0  0  0  0
 40150  1  0  0  0  0
 41151  1  0  0  0  0
 41152  1  0  0  0  0
 42153  1  0  0  0  0
 43154  1  0  0  0  0
 45155  1  0  0  0  0
 49156  1  0  0  0  0
 50157  1  0  0  0  0
 53158  1  0  0  0  0
 53159  1  0  0  0  0
 54160  1  0  0  0  0
 54161  1  0  0  0  0
 54162  1  0  0  0  0
 57163  1  0  0  0  0
 62164  1  0  0  0  0
 63165  1  0  0  0  0
 66166  1  0  0  0  0
 66167  1  0  0  0  0
 67168  1  0  0  0  0
 67169  1  0  0  0  0
 67170  1  0  0  0  0
 69171  1  0  0  0  0
 73172  1  0  0  0  0
 77173  1  0  0  0  0
 81174  1  0  0  0  0
 82175  1  0  0  0  0
 85176  1  0  0  0  0
 85177  1  0  0  0  0
 86178  1  0  0  0  0
 86179  1  0  0  0  0
 86180  1  0  0  0  0
 89181  1  0  0  0  0
 94182  1  0  0  0  0
 95183  1  0  0  0  0
 98184  1  0  0  0  0
 98185  1  0  0  0  0
 99186  1  0  0  0  0
 99187  1  0  0  0  0
 99188  1  0  0  0  0
101189  1  0  0  0  0
105190  1  0  0  0  0
113191  1  0  0  0  0
115192  1  0  0  0  0
116193  1  0  0  0  0
116194  1  0  0  0  0
117195  1  0  0  0  0
118196  1  0  0  0  0
121197  1  0  0  0  0
124198  1  0  0  0  0
126199  1  0  0  0  0
127200  1  0  0  0  0
127201  1  0  0  0  0
128202  1  0  0  0  0
129203  1  0  0  0  0
M  END
