206

C          2.68050       -0.44990       11.79340
C          2.83740       -0.10920       10.49830
C          1.69290       -0.41210        9.70500
C          1.51930       -0.24120        8.32400
C          2.52440        0.37880        7.47560
S          3.06110       -0.41240        6.02270
C          4.09360        0.90690        5.58910
C          4.88380        0.87070        4.32730
C          3.99230        0.59700        3.11660
C          4.02110        1.89050        6.52980
Cl         4.89870        3.36460        6.45160
C          3.13510        1.59430        7.60200
Cl         2.81360        2.70780        8.86820
C          0.33410       -0.71550        7.77670
C         -0.68360       -1.33840        8.53720
C         -0.52230       -1.48080        9.92560
C         -1.54150       -2.11990       10.74150
S         -2.13210       -3.70960       10.35360
C         -3.19870       -3.73360       11.71670
C         -4.10490       -4.88940       11.95970
C         -5.29150       -4.86840       10.99340
C         -3.09740       -2.56830       12.41540
C         -2.15470       -1.65420       11.87070
Cl        -1.89900       -0.09530       12.53420
Cl        -4.00760       -2.21360       13.82610
C          0.66640       -1.01180       10.47520
S          1.14370       -1.16110       12.14250
C         -1.78390       -1.72630        7.72910
C         -1.62450       -1.41220        6.41330
S         -0.10110       -0.60500        6.09860
C         -2.46430       -1.70950        5.30110
C         -2.25660       -1.30150        4.01740
C         -3.16130       -1.86090        3.08610
C         -3.19350       -1.67740        1.68990
C         -2.15710       -0.91890        1.01440
S         -2.55410        0.23740       -0.22770
C         -0.89840        0.66330       -0.48370
C         -0.52390        1.70060       -1.48200
C          0.01700        2.96980       -0.82420
C         -0.09350       -0.05890        0.34560
Cl         1.61650        0.07400        0.38800
C         -0.79710       -0.95590        1.19100
Cl         0.05120       -2.03360        2.22460
C         -4.27000       -2.24180        1.01490
C         -5.27620       -3.00060        1.66300
C         -5.21250       -3.22020        3.05050
C         -6.25470       -3.95260        3.75100
S         -5.88390       -5.30270        4.78110
C         -7.54600       -5.53800        5.20270
C         -7.96650       -6.65590        6.09160
C         -8.11900       -7.95810        5.30200
C         -8.32930       -4.61970        4.57000
C         -7.60120       -3.71480        3.75190
Cl        -8.35220       -2.40930        2.92630
Cl       -10.03470       -4.53480        4.74160
C         -4.13720       -2.66180        3.72670
S         -3.85680       -2.76150        5.44490
C         -6.27070       -3.44250        0.75870
C         -6.07480       -3.02950       -0.52770
S         -4.58120       -2.11780       -0.69430
C         -7.04230       -3.06410       -1.57800
S         -8.71240       -2.93840       -1.09270
C         -9.23080       -2.63960       -2.68360
C         -8.18690       -2.64580       -3.58110
C         -6.92520       -2.93780       -2.95980
C         -5.76040       -3.10660       -3.76280
C         -5.86970       -2.82510       -5.11810
C         -7.10420       -2.43300       -5.69910
C         -8.24640       -2.38080       -4.97010
O         -4.85650       -2.97580       -5.99740
C         -4.58890       -3.80730       -3.24570
C         -3.29840       -3.49830       -3.46130
C         -2.80980       -2.22430       -3.91600
C         -1.57790       -1.93120       -4.42350
C         -1.39040       -0.55330       -4.70000
C         -0.25780        0.09230       -5.23420
C          0.84020       -0.68220       -5.78100
S          2.49650       -0.33160       -5.39490
C          3.08950       -1.65040       -6.34000
C          4.54960       -1.92990       -6.41640
C          5.32010       -0.72910       -6.96250
C          2.05380       -2.30090       -6.94090
Cl         2.24080       -3.65890       -7.97430
C          0.77940       -1.75610       -6.62920
Cl        -0.66390       -2.34970       -7.34500
C         -0.26300        1.48300       -5.21070
C         -1.36010        2.23920       -4.73040
C         -2.54210        1.59490       -4.32450
C         -3.71770        2.32230       -3.87880
S         -3.61970        3.53300       -2.63060
C         -5.32720        3.80610       -2.64220
C         -5.94500        4.84790       -1.77720
C         -5.80170        6.23520       -2.40790
C         -5.92370        3.00540       -3.56840
C         -5.01960        2.15850       -4.26540
Cl        -5.53860        1.11110       -5.51930
Cl        -7.61110        2.99320       -3.87820
C         -2.52040        0.20720       -4.31390
S         -3.80470       -0.79610       -3.72740
C         -1.09580        3.62420       -4.75370
C          0.14430        3.95640       -5.22710
S          1.03330        2.52850       -5.73010
C          0.57270        5.31020       -5.41110
S         -0.74850        6.44160       -5.57850
C          0.28720        7.73890       -5.91110
C          1.60920        7.35590       -5.89890
C          1.79770        5.96250       -5.57050
C          3.13500        5.47380       -5.47040
C          4.17000        6.32010       -5.85970
C          3.95350        7.66490       -6.23020
C          2.70200        8.19270       -6.21480
O          5.44310        5.84150       -5.81310
C          3.56400        4.18640       -4.96760
C          3.09880        3.49690       -3.91330
C          3.74020        2.28120       -3.49590
C          5.00460        1.87300       -3.79740
C          5.32510        0.58230       -3.31500
C          6.53360       -0.11320       -3.47670
C          7.69910        0.52720       -4.06040
S          8.59200       -0.20490       -5.36010
C          9.72280        1.10180       -5.42810
C         10.87260        1.07490       -6.37330
C         12.04850        0.29820       -5.77570
C          9.42220        2.03620       -4.48270
Cl        10.32900        3.47230       -4.23660
C          8.27440        1.71770       -3.70880
Cl         7.73440        2.70550       -2.41290
C          6.55800       -1.43520       -3.05060
C          5.44390       -2.06380       -2.45100
C          4.25680       -1.34170       -2.22490
C          3.13730       -2.05200       -1.61950
S          1.67350       -2.39430       -2.49610
C          1.12210       -3.50630       -1.28670
C         -0.11760       -4.31330       -1.46540
C         -1.30370       -3.74920       -0.68460
C          2.00280       -3.55510       -0.24770
C          3.14450       -2.73170       -0.43450
Cl         4.39880       -2.59950        0.72720
Cl         1.81860       -4.58130        1.11470
C          4.22560       -0.02540       -2.65710
S          2.88990        1.08550       -2.53600
C          5.71290       -3.43570       -2.16340
C          6.96620       -3.80550       -2.49340
S          7.90720       -2.52860       -3.18470
H          3.38210       -0.33000       12.59580
H          3.73320        0.33060       10.10090
H          5.64340        0.08690        4.39700
H          5.39350        1.82880        4.21140
H          3.49590       -0.36500        3.22210
H          3.23170        1.36820        3.02110
H          4.58760        0.58220        2.20720
H         -4.46500       -4.83900       12.98850
H         -3.54960       -5.82040       11.82870
H         -5.86630       -3.95460       11.12190
H         -5.94180       -5.71820       11.18250
H         -4.94110       -4.91730        9.96490
H         -2.66110       -2.22270        8.10260
H         -1.48470       -0.60020        3.76180
H          0.23350        1.29070       -2.15470
H         -1.40760        1.95210       -2.06640
H          0.93530        2.75960       -0.28400
H          0.22190        3.71520       -1.58790
H         -0.71480        3.37800       -0.13190
H         -8.92020       -6.39460        6.55380
H         -7.22150       -6.79290        6.87720
H         -8.43040       -8.76180        5.96370
H         -8.86630       -7.84000        4.52150
H         -7.17320       -8.23120        4.84030
H         -7.11700       -4.03770        1.04900
H        -10.26800       -2.46210       -2.88710
H         -7.09640       -2.23260       -6.75870
H         -9.19490       -2.14050       -5.42400
H         -4.05650       -3.28340       -5.54650
H         -4.81940       -4.72610       -2.71840
H         -2.53450       -4.21680       -3.19960
H         -0.81550       -2.67260       -4.57940
H          4.70430       -2.79920       -7.05730
H          4.92290       -2.16970       -5.41670
H          5.17970        0.13230       -6.31350
H          4.96660       -0.47420       -7.95850
H          6.38080       -0.95910       -7.01400
H         -7.00240        4.61140       -1.64700
H         -5.46150        4.84190       -0.79870
H         -6.28800        6.25910       -3.37980
H         -4.75080        6.48320       -2.53840
H         -6.26120        6.98510       -1.76980
H         -1.80000        4.35960       -4.40950
H         -0.10800        8.71290       -6.11930
H          4.80770        8.27530       -6.49180
H          2.52120        9.22880       -6.45360
H          6.05920        6.52590       -6.10150
H          4.45080        3.81460       -5.46190
H          2.22990        3.81950       -3.35790
H          5.69930        2.47170       -4.35560
H         10.56260        0.60250       -7.30700
H         11.18020        2.10080       -6.58360
H         11.75070       -0.72390       -5.55430
H         12.87770        0.27710       -6.47770
H         12.38260        0.77000       -4.85520
H          0.08650       -5.32950       -1.11750
H         -0.35680       -4.35310       -2.52920
H         -1.55720       -2.75490       -1.04420
H         -1.06370       -3.69170        0.37230
H         -2.17250       -4.39170       -0.80060
H          4.99130       -4.10700       -1.73610
H          7.41980       -4.77040       -2.37890
