
  xtb     03022217363D
 energy: -451.992766929323 gnorm: 0.000195140863 xtb: 6.4.1 (unknown)
223249  0     0  0            999 V2000
   -3.2052    4.1344   19.1796 C   0  0  0  0  0  0  0  0  0  0  0  0
   -3.2854    5.0126   18.1594 C   0  0  0  0  0  0  0  0  0  0  0  0
   -3.4794    4.3791   16.8968 C   0  0  0  0  0  0  0  0  0  0  0  0
   -3.5904    4.9777   15.6309 C   0  0  0  0  0  0  0  0  0  0  0  0
   -3.4729    6.4172   15.4567 C   0  0  0  0  0  0  0  0  0  0  0  0
   -2.0745    7.2842   16.0203 S   0  0  0  0  0  0  0  0  0  0  0  0
   -2.6755    8.7963   15.4307 C   0  0  0  0  0  0  0  0  0  0  0  0
   -1.8759   10.0461   15.5536 C   0  0  0  0  0  0  0  0  0  0  0  0
   -0.8731   10.1688   14.4038 C   0  0  0  0  0  0  0  0  0  0  0  0
   -3.8859    8.6215   14.8298 C   0  0  0  0  0  0  0  0  0  0  0  0
   -4.7980    9.8938   14.1275 Cl  0  0  0  0  0  0  0  0  0  0  0  0
   -4.3424    7.2756   14.8441 C   0  0  0  0  0  0  0  0  0  0  0  0
   -5.8721    6.8173   14.2225 Cl  0  0  0  0  0  0  0  0  0  0  0  0
   -3.8004    4.1323   14.5482 C   0  0  0  0  0  0  0  0  0  0  0  0
   -3.9015    2.7273   14.6915 C   0  0  0  0  0  0  0  0  0  0  0  0
   -3.7428    2.1236   15.9491 C   0  0  0  0  0  0  0  0  0  0  0  0
   -3.7330    0.6740   16.0610 C   0  0  0  0  0  0  0  0  0  0  0  0
   -4.7994   -0.1865   17.1290 S   0  0  0  0  0  0  0  0  0  0  0  0
   -4.2028   -1.7253   16.6094 C   0  0  0  0  0  0  0  0  0  0  0  0
   -4.7823   -3.0000   17.1158 C   0  0  0  0  0  0  0  0  0  0  0  0
   -5.8490   -3.5306   16.1542 C   0  0  0  0  0  0  0  0  0  0  0  0
   -3.2307   -1.5657   15.6666 C   0  0  0  0  0  0  0  0  0  0  0  0
   -2.9592   -0.2076   15.3555 C   0  0  0  0  0  0  0  0  0  0  0  0
   -1.7278    0.2555   14.2516 Cl  0  0  0  0  0  0  0  0  0  0  0  0
   -2.4039   -2.8676   14.9156 Cl  0  0  0  0  0  0  0  0  0  0  0  0
   -3.5592    2.9721   17.0316 C   0  0  0  0  0  0  0  0  0  0  0  0
   -3.3589    2.4824   18.6897 S   0  0  0  0  0  0  0  0  0  0  0  0
   -4.1415    2.0850   13.4555 C   0  0  0  0  0  0  0  0  0  0  0  0
   -4.1588    2.9386   12.3914 C   0  0  0  0  0  0  0  0  0  0  0  0
   -3.9174    4.6018   12.8748 S   0  0  0  0  0  0  0  0  0  0  0  0
   -4.2876    2.5381   11.0263 C   0  0  0  0  0  0  0  0  0  0  0  0
   -4.6424    1.2905   10.6014 C   0  0  0  0  0  0  0  0  0  0  0  0
   -4.5241    1.1130    9.2049 C   0  0  0  0  0  0  0  0  0  0  0  0
   -4.6813   -0.0800    8.4775 C   0  0  0  0  0  0  0  0  0  0  0  0
   -4.9673   -1.3303    9.1606 C   0  0  0  0  0  0  0  0  0  0  0  0
   -6.2802   -2.3556    8.6604 S   0  0  0  0  0  0  0  0  0  0  0  0
   -5.9745   -3.4978    9.9230 C   0  0  0  0  0  0  0  0  0  0  0  0
   -6.8446   -4.6898   10.1193 C   0  0  0  0  0  0  0  0  0  0  0  0
   -8.0092   -4.3683   11.0593 C   0  0  0  0  0  0  0  0  0  0  0  0
   -4.9145   -3.0947   10.6797 C   0  0  0  0  0  0  0  0  0  0  0  0
   -4.3214   -3.9612   12.0367 Cl  0  0  0  0  0  0  0  0  0  0  0  0
   -4.3329   -1.8738   10.2458 C   0  0  0  0  0  0  0  0  0  0  0  0
   -2.9199   -1.2289   10.9824 Cl  0  0  0  0  0  0  0  0  0  0  0  0
   -4.5105   -0.0003    7.1027 C   0  0  0  0  0  0  0  0  0  0  0  0
   -4.1657    1.2047    6.4418 C   0  0  0  0  0  0  0  0  0  0  0  0
   -3.9730    2.3900    7.1755 C   0  0  0  0  0  0  0  0  0  0  0  0
   -3.5633    3.6205    6.5198 C   0  0  0  0  0  0  0  0  0  0  0  0
   -2.1754    3.6554    5.4707 S   0  0  0  0  0  0  0  0  0  0  0  0
   -2.3551    5.3475    5.1560 C   0  0  0  0  0  0  0  0  0  0  0  0
   -1.4436    6.0496    4.2114 C   0  0  0  0  0  0  0  0  0  0  0  0
   -1.7779    5.6892    2.7622 C   0  0  0  0  0  0  0  0  0  0  0  0
   -3.4339    5.8404    5.8266 C   0  0  0  0  0  0  0  0  0  0  0  0
   -4.1166    4.8678    6.6072 C   0  0  0  0  0  0  0  0  0  0  0  0
   -5.5414    5.2342    7.4852 Cl  0  0  0  0  0  0  0  0  0  0  0  0
   -3.9422    7.4776    5.7545 Cl  0  0  0  0  0  0  0  0  0  0  0  0
   -4.1495    2.3134    8.5506 C   0  0  0  0  0  0  0  0  0  0  0  0
   -3.8749    3.5949    9.6966 S   0  0  0  0  0  0  0  0  0  0  0  0
   -4.0261    1.0150    5.0465 C   0  0  0  0  0  0  0  0  0  0  0  0
   -4.2098   -0.2765    4.6494 C   0  0  0  0  0  0  0  0  0  0  0  0
   -4.6105   -1.3339    5.9870 S   0  0  0  0  0  0  0  0  0  0  0  0
   -4.0441   -0.7937    3.3323 C   0  0  0  0  0  0  0  0  0  0  0  0
   -4.0897   -2.0922    2.9221 C   0  0  0  0  0  0  0  0  0  0  0  0
   -3.7710   -2.2625    1.5523 C   0  0  0  0  0  0  0  0  0  0  0  0
   -3.7167   -3.4607    0.8202 C   0  0  0  0  0  0  0  0  0  0  0  0
   -4.1785   -4.7153    1.3833 C   0  0  0  0  0  0  0  0  0  0  0  0
   -3.2309   -6.1680    1.2707 S   0  0  0  0  0  0  0  0  0  0  0  0
   -4.4393   -7.1103    2.0703 C   0  0  0  0  0  0  0  0  0  0  0  0
   -4.2694   -8.5785    2.2428 C   0  0  0  0  0  0  0  0  0  0  0  0
   -4.6340   -9.3140    0.9503 C   0  0  0  0  0  0  0  0  0  0  0  0
   -5.5117   -6.3332    2.3959 C   0  0  0  0  0  0  0  0  0  0  0  0
   -6.9146   -6.9199    3.1909 Cl  0  0  0  0  0  0  0  0  0  0  0  0
   -5.3660   -4.9733    2.0151 C   0  0  0  0  0  0  0  0  0  0  0  0
   -6.6116   -3.8161    2.2476 Cl  0  0  0  0  0  0  0  0  0  0  0  0
   -3.1996   -3.3859   -0.4684 C   0  0  0  0  0  0  0  0  0  0  0  0
   -2.8207   -2.1626   -1.0775 C   0  0  0  0  0  0  0  0  0  0  0  0
   -3.0235   -0.9442   -0.3966 C   0  0  0  0  0  0  0  0  0  0  0  0
   -2.8505    0.3387   -1.0518 C   0  0  0  0  0  0  0  0  0  0  0  0
   -2.0698    1.6771   -0.2611 S   0  0  0  0  0  0  0  0  0  0  0  0
   -2.4102    2.7563   -1.5690 C   0  0  0  0  0  0  0  0  0  0  0  0
   -2.0752    4.2036   -1.4712 C   0  0  0  0  0  0  0  0  0  0  0  0
   -3.1621    4.9485   -0.6919 C   0  0  0  0  0  0  0  0  0  0  0  0
   -3.0819    2.1028   -2.5591 C   0  0  0  0  0  0  0  0  0  0  0  0
   -3.3298    0.7336   -2.2738 C   0  0  0  0  0  0  0  0  0  0  0  0
   -4.2470   -0.2609   -3.3311 Cl  0  0  0  0  0  0  0  0  0  0  0  0
   -3.6012    2.8458   -4.0168 Cl  0  0  0  0  0  0  0  0  0  0  0  0
   -3.4447   -1.0340    0.9249 C   0  0  0  0  0  0  0  0  0  0  0  0
   -3.6305    0.3007    2.0267 S   0  0  0  0  0  0  0  0  0  0  0  0
   -2.2273   -2.3724   -2.3444 C   0  0  0  0  0  0  0  0  0  0  0  0
   -2.2055   -3.6900   -2.7098 C   0  0  0  0  0  0  0  0  0  0  0  0
   -2.9270   -4.7448   -1.5197 S   0  0  0  0  0  0  0  0  0  0  0  0
   -1.6386   -4.2779   -3.8753 C   0  0  0  0  0  0  0  0  0  0  0  0
   -0.9032   -3.5321   -4.7437 O   0  0  0  0  0  0  0  0  0  0  0  0
   -1.6557   -5.5809   -4.3190 C   0  0  0  0  0  0  0  0  0  0  0  0
   -2.1393   -6.9315   -4.0272 C   0  0  0  0  0  0  0  0  0  0  0  0
   -2.8020   -7.3584   -3.1177 O   0  0  0  0  0  0  0  0  0  0  0  0
   -1.6371   -7.6914   -5.0829 N   0  0  0  0  0  0  0  0  0  0  0  0
   -0.8743   -6.9930   -6.0190 C   0  0  0  0  0  0  0  0  0  0  0  0
   -0.3524   -7.4770   -6.9892 O   0  0  0  0  0  0  0  0  0  0  0  0
   -0.8913   -5.6186   -5.5149 C   0  0  0  0  0  0  0  0  0  0  0  0
   -0.4372   -4.3387   -5.7371 C   0  0  0  0  0  0  0  0  0  0  0  0
    0.4234   -3.8110   -6.7393 C   0  0  0  0  0  0  0  0  0  0  0  0
    0.9125   -2.5373   -6.8227 C   0  0  0  0  0  0  0  0  0  0  0  0
    1.8021   -2.3571   -7.9065 C   0  0  0  0  0  0  0  0  0  0  0  0
    2.4973   -1.1868   -8.2721 C   0  0  0  0  0  0  0  0  0  0  0  0
    2.3165    0.0502   -7.5319 C   0  0  0  0  0  0  0  0  0  0  0  0
    0.7273    0.6948   -7.2368 S   0  0  0  0  0  0  0  0  0  0  0  0
    1.3509    2.0466   -6.3584 C   0  0  0  0  0  0  0  0  0  0  0  0
    0.4442    3.0223   -5.6952 C   0  0  0  0  0  0  0  0  0  0  0  0
    0.0884    2.5418   -4.2862 C   0  0  0  0  0  0  0  0  0  0  0  0
    2.7113    1.9874   -6.3018 C   0  0  0  0  0  0  0  0  0  0  0  0
    3.6841    3.1506   -5.4996 Cl  0  0  0  0  0  0  0  0  0  0  0  0
    3.2639    0.8620   -6.9699 C   0  0  0  0  0  0  0  0  0  0  0  0
    4.9445    0.5301   -6.9569 Cl  0  0  0  0  0  0  0  0  0  0  0  0
    3.3590   -1.2806   -9.3559 C   0  0  0  0  0  0  0  0  0  0  0  0
    3.5564   -2.4884  -10.0741 C   0  0  0  0  0  0  0  0  0  0  0  0
    2.8378   -3.6464   -9.7320 C   0  0  0  0  0  0  0  0  0  0  0  0
    2.9922   -4.8742  -10.4922 C   0  0  0  0  0  0  0  0  0  0  0  0
    3.2948   -6.3901   -9.6969 S   0  0  0  0  0  0  0  0  0  0  0  0
    3.3774   -7.2494  -11.1948 C   0  0  0  0  0  0  0  0  0  0  0  0
    3.5668   -8.7253  -11.2207 C   0  0  0  0  0  0  0  0  0  0  0  0
    2.2412   -9.4411  -10.9478 C   0  0  0  0  0  0  0  0  0  0  0  0
    3.1706   -6.4004  -12.2413 C   0  0  0  0  0  0  0  0  0  0  0  0
    2.9517   -5.0535  -11.8492 C   0  0  0  0  0  0  0  0  0  0  0  0
    2.5763   -3.8224  -12.9873 Cl  0  0  0  0  0  0  0  0  0  0  0  0
    3.1872   -6.8840  -13.8882 Cl  0  0  0  0  0  0  0  0  0  0  0  0
    1.9862   -3.5583   -8.6374 C   0  0  0  0  0  0  0  0  0  0  0  0
    1.0249   -4.8615   -7.9973 S   0  0  0  0  0  0  0  0  0  0  0  0
    4.5271   -2.3423  -11.0910 C   0  0  0  0  0  0  0  0  0  0  0  0
    5.0088   -1.0708  -11.2074 C   0  0  0  0  0  0  0  0  0  0  0  0
    4.3105    0.0126  -10.0287 S   0  0  0  0  0  0  0  0  0  0  0  0
    5.9811   -0.6375  -12.1600 C   0  0  0  0  0  0  0  0  0  0  0  0
    6.3439   -1.3181  -13.2848 C   0  0  0  0  0  0  0  0  0  0  0  0
    7.3815   -0.6925  -14.0156 C   0  0  0  0  0  0  0  0  0  0  0  0
    7.9760   -1.1257  -15.2137 C   0  0  0  0  0  0  0  0  0  0  0  0
    7.5405   -2.3481  -15.8679 C   0  0  0  0  0  0  0  0  0  0  0  0
    7.4149   -3.8498  -14.9956 S   0  0  0  0  0  0  0  0  0  0  0  0
    6.8585   -4.7113  -16.3897 C   0  0  0  0  0  0  0  0  0  0  0  0
    6.5610   -6.1681  -16.3230 C   0  0  0  0  0  0  0  0  0  0  0  0
    7.8477   -6.9941  -16.2733 C   0  0  0  0  0  0  0  0  0  0  0  0
    6.7919   -3.8744  -17.4627 C   0  0  0  0  0  0  0  0  0  0  0  0
    6.2828   -4.3602  -19.0277 Cl  0  0  0  0  0  0  0  0  0  0  0  0
    7.1727   -2.5359  -17.1717 C   0  0  0  0  0  0  0  0  0  0  0  0
    7.0732   -1.2853  -18.3383 Cl  0  0  0  0  0  0  0  0  0  0  0  0
    9.0015   -0.3374  -15.7236 C   0  0  0  0  0  0  0  0  0  0  0  0
    9.4221    0.8681  -15.1106 C   0  0  0  0  0  0  0  0  0  0  0  0
    8.7824    1.3313  -13.9496 C   0  0  0  0  0  0  0  0  0  0  0  0
    9.1451    2.6017  -13.3443 C   0  0  0  0  0  0  0  0  0  0  0  0
    9.5418    2.7309  -11.6570 S   0  0  0  0  0  0  0  0  0  0  0  0
    9.8103    4.4364  -11.7713 C   0  0  0  0  0  0  0  0  0  0  0  0
   10.2654    5.2258  -10.5941 C   0  0  0  0  0  0  0  0  0  0  0  0
   11.7844    5.1370  -10.4287 C   0  0  0  0  0  0  0  0  0  0  0  0
    9.6032    4.8651  -13.0486 C   0  0  0  0  0  0  0  0  0  0  0  0
    9.2216    3.8293  -13.9426 C   0  0  0  0  0  0  0  0  0  0  0  0
    8.8219    4.1269  -15.5854 Cl  0  0  0  0  0  0  0  0  0  0  0  0
    9.7708    6.4978  -13.5502 Cl  0  0  0  0  0  0  0  0  0  0  0  0
    7.7916    0.5203  -13.4110 C   0  0  0  0  0  0  0  0  0  0  0  0
    6.8813    0.8490  -11.9630 S   0  0  0  0  0  0  0  0  0  0  0  0
   10.5457    1.4331  -15.7813 C   0  0  0  0  0  0  0  0  0  0  0  0
   10.9448    0.7008  -16.8411 C   0  0  0  0  0  0  0  0  0  0  0  0
    9.9902   -0.7154  -17.1048 S   0  0  0  0  0  0  0  0  0  0  0  0
   -3.0638    4.3473   20.2211 H   0  0  0  0  0  0  0  0  0  0  0  0
   -3.2157    6.0774   18.2837 H   0  0  0  0  0  0  0  0  0  0  0  0
   -1.3396   10.0422   16.5042 H   0  0  0  0  0  0  0  0  0  0  0  0
   -2.5567   10.8992   15.5379 H   0  0  0  0  0  0  0  0  0  0  0  0
   -0.3030   11.0885   14.5024 H   0  0  0  0  0  0  0  0  0  0  0  0
   -1.3940   10.1816   13.4498 H   0  0  0  0  0  0  0  0  0  0  0  0
   -0.1843    9.3274   14.4125 H   0  0  0  0  0  0  0  0  0  0  0  0
   -5.2237   -2.8319   18.0990 H   0  0  0  0  0  0  0  0  0  0  0  0
   -3.9826   -3.7377   17.2110 H   0  0  0  0  0  0  0  0  0  0  0  0
   -6.6585   -2.8115   16.0539 H   0  0  0  0  0  0  0  0  0  0  0  0
   -5.4159   -3.7067   15.1729 H   0  0  0  0  0  0  0  0  0  0  0  0
   -6.2565   -4.4660   16.5279 H   0  0  0  0  0  0  0  0  0  0  0  0
   -4.2821    1.0254   13.3614 H   0  0  0  0  0  0  0  0  0  0  0  0
   -4.9866    0.5217   11.2657 H   0  0  0  0  0  0  0  0  0  0  0  0
   -6.2449   -5.4960   10.5466 H   0  0  0  0  0  0  0  0  0  0  0  0
   -7.2340   -5.0155    9.1538 H   0  0  0  0  0  0  0  0  0  0  0  0
   -8.6206   -3.5710   10.6436 H   0  0  0  0  0  0  0  0  0  0  0  0
   -8.6305   -5.2489   11.1978 H   0  0  0  0  0  0  0  0  0  0  0  0
   -7.6340   -4.0505   12.0288 H   0  0  0  0  0  0  0  0  0  0  0  0
   -1.5503    7.1253    4.3595 H   0  0  0  0  0  0  0  0  0  0  0  0
   -0.4105    5.7678    4.4246 H   0  0  0  0  0  0  0  0  0  0  0  0
   -2.8013    5.9751    2.5321 H   0  0  0  0  0  0  0  0  0  0  0  0
   -1.6690    4.6182    2.6058 H   0  0  0  0  0  0  0  0  0  0  0  0
   -1.1091    6.2115    2.0836 H   0  0  0  0  0  0  0  0  0  0  0  0
   -3.7845    1.7998    4.3531 H   0  0  0  0  0  0  0  0  0  0  0  0
   -4.3047   -2.9047    3.5920 H   0  0  0  0  0  0  0  0  0  0  0  0
   -3.2321   -8.7961    2.5031 H   0  0  0  0  0  0  0  0  0  0  0  0
   -4.9145   -8.9167    3.0557 H   0  0  0  0  0  0  0  0  0  0  0  0
   -4.0092   -8.9687    0.1300 H   0  0  0  0  0  0  0  0  0  0  0  0
   -5.6742   -9.1306    0.6937 H   0  0  0  0  0  0  0  0  0  0  0  0
   -4.4896  -10.3836    1.0764 H   0  0  0  0  0  0  0  0  0  0  0  0
   -1.1167    4.3227   -0.9637 H   0  0  0  0  0  0  0  0  0  0  0  0
   -1.9992    4.6236   -2.4757 H   0  0  0  0  0  0  0  0  0  0  0  0
   -3.2661    4.5263    0.3041 H   0  0  0  0  0  0  0  0  0  0  0  0
   -4.1159    4.8662   -1.2065 H   0  0  0  0  0  0  0  0  0  0  0  0
   -2.9038    6.0000   -0.6025 H   0  0  0  0  0  0  0  0  0  0  0  0
   -1.8056   -1.5929   -2.9517 H   0  0  0  0  0  0  0  0  0  0  0  0
   -1.8073   -8.6840   -5.1602 H   0  0  0  0  0  0  0  0  0  0  0  0
    0.6498   -1.7716   -6.1169 H   0  0  0  0  0  0  0  0  0  0  0  0
   -0.4683    3.1345   -6.2823 H   0  0  0  0  0  0  0  0  0  0  0  0
    0.9469    3.9892   -5.6359 H   0  0  0  0  0  0  0  0  0  0  0  0
   -0.4352    1.5898   -4.3326 H   0  0  0  0  0  0  0  0  0  0  0  0
    0.9889    2.4161   -3.6905 H   0  0  0  0  0  0  0  0  0  0  0  0
   -0.5546    3.2665   -3.7978 H   0  0  0  0  0  0  0  0  0  0  0  0
    4.2958   -9.0114  -10.4608 H   0  0  0  0  0  0  0  0  0  0  0  0
    3.9489   -9.0154  -12.2011 H   0  0  0  0  0  0  0  0  0  0  0  0
    1.8465   -9.1474   -9.9781 H   0  0  0  0  0  0  0  0  0  0  0  0
    2.3902  -10.5174  -10.9554 H   0  0  0  0  0  0  0  0  0  0  0  0
    1.5106   -9.1851  -11.7110 H   0  0  0  0  0  0  0  0  0  0  0  0
    4.8843   -3.1578  -11.6899 H   0  0  0  0  0  0  0  0  0  0  0  0
    5.8711   -2.2321  -13.5891 H   0  0  0  0  0  0  0  0  0  0  0  0
    5.9632   -6.3759  -15.4329 H   0  0  0  0  0  0  0  0  0  0  0  0
    5.9791   -6.4431  -17.2042 H   0  0  0  0  0  0  0  0  0  0  0  0
    8.4493   -6.8090  -17.1598 H   0  0  0  0  0  0  0  0  0  0  0  0
    8.4319   -6.7296  -15.3950 H   0  0  0  0  0  0  0  0  0  0  0  0
    7.6095   -8.0534  -16.2289 H   0  0  0  0  0  0  0  0  0  0  0  0
    9.9733    6.2677  -10.7375 H   0  0  0  0  0  0  0  0  0  0  0  0
    9.7794    4.8456   -9.6940 H   0  0  0  0  0  0  0  0  0  0  0  0
   12.2832    5.5271  -11.3123 H   0  0  0  0  0  0  0  0  0  0  0  0
   12.0879    4.1027  -10.2853 H   0  0  0  0  0  0  0  0  0  0  0  0
   12.1004    5.7170   -9.5658 H   0  0  0  0  0  0  0  0  0  0  0  0
   11.0349    2.3344  -15.4619 H   0  0  0  0  0  0  0  0  0  0  0  0
   11.7605    0.8996  -17.5086 H   0  0  0  0  0  0  0  0  0  0  0  0
  1  2  2  0  0  0  0
  2  3  1  0  0  0  0
  3  4  2  0  0  0  0
  4  5  1  0  0  0  0
  5  6  1  0  0  0  0
  6  7  1  0  0  0  0
  7  8  1  0  0  0  0
  8  9  1  0  0  0  0
  7 10  2  0  0  0  0
 10 11  1  0  0  0  0
 10 12  1  0  0  0  0
 12 13  1  0  0  0  0
  4 14  1  0  0  0  0
 14 15  2  0  0  0  0
 15 16  1  0  0  0  0
 16 17  1  0  0  0  0
 17 18  1  0  0  0  0
 18 19  1  0  0  0  0
 19 20  1  0  0  0  0
 20 21  1  0  0  0  0
 19 22  2  0  0  0  0
 22 23  1  0  0  0  0
 23 24  1  0  0  0  0
 22 25  1  0  0  0  0
 16 26  2  0  0  0  0
 26 27  1  0  0  0  0
 15 28  1  0  0  0  0
 28 29  2  0  0  0  0
 29 30  1  0  0  0  0
 29 31  1  0  0  0  0
 31 32  2  0  0  0  0
 32 33  1  0  0  0  0
 33 34  2  0  0  0  0
 34 35  1  0  0  0  0
 35 36  1  0  0  0  0
 36 37  1  0  0  0  0
 37 38  1  0  0  0  0
 38 39  1  0  0  0  0
 37 40  2  0  0  0  0
 40 41  1  0  0  0  0
 40 42  1  0  0  0  0
 42 43  1  0  0  0  0
 34 44  1  0  0  0  0
 44 45  2  0  0  0  0
 45 46  1  0  0  0  0
 46 47  1  0  0  0  0
 47 48  1  0  0  0  0
 48 49  1  0  0  0  0
 49 50  1  0  0  0  0
 50 51  1  0  0  0  0
 49 52  2  0  0  0  0
 52 53  1  0  0  0  0
 53 54  1  0  0  0  0
 52 55  1  0  0  0  0
 46 56  2  0  0  0  0
 56 57  1  0  0  0  0
 45 58  1  0  0  0  0
 58 59  2  0  0  0  0
 59 60  1  0  0  0  0
 59 61  1  0  0  0  0
 61 62  2  0  0  0  0
 62 63  1  0  0  0  0
 63 64  2  0  0  0  0
 64 65  1  0  0  0  0
 65 66  1  0  0  0  0
 66 67  1  0  0  0  0
 67 68  1  0  0  0  0
 68 69  1  0  0  0  0
 67 70  2  0  0  0  0
 70 71  1  0  0  0  0
 70 72  1  0  0  0  0
 72 73  1  0  0  0  0
 64 74  1  0  0  0  0
 74 75  2  0  0  0  0
 75 76  1  0  0  0  0
 76 77  1  0  0  0  0
 77 78  1  0  0  0  0
 78 79  1  0  0  0  0
 79 80  1  0  0  0  0
 80 81  1  0  0  0  0
 79 82  2  0  0  0  0
 82 83  1  0  0  0  0
 83 84  1  0  0  0  0
 82 85  1  0  0  0  0
 76 86  2  0  0  0  0
 86 87  1  0  0  0  0
 75 88  1  0  0  0  0
 88 89  2  0  0  0  0
 89 90  1  0  0  0  0
 89 91  1  0  0  0  0
 91 92  1  0  0  0  0
 91 93  2  0  0  0  0
 93 94  1  0  0  0  0
 94 95  2  0  0  0  0
 94 96  1  0  0  0  0
 96 97  1  0  0  0  0
 97 98  2  0  0  0  0
 97 99  1  0  0  0  0
 99100  2  0  0  0  0
100101  1  0  0  0  0
101102  2  0  0  0  0
102103  1  0  0  0  0
103104  2  0  0  0  0
104105  1  0  0  0  0
105106  1  0  0  0  0
106107  1  0  0  0  0
107108  1  0  0  0  0
108109  1  0  0  0  0
107110  2  0  0  0  0
110111  1  0  0  0  0
110112  1  0  0  0  0
112113  1  0  0  0  0
104114  1  0  0  0  0
114115  2  0  0  0  0
115116  1  0  0  0  0
116117  1  0  0  0  0
117118  1  0  0  0  0
118119  1  0  0  0  0
119120  1  0  0  0  0
120121  1  0  0  0  0
119122  2  0  0  0  0
122123  1  0  0  0  0
123124  1  0  0  0  0
122125  1  0  0  0  0
116126  2  0  0  0  0
126127  1  0  0  0  0
115128  1  0  0  0  0
128129  2  0  0  0  0
129130  1  0  0  0  0
129131  1  0  0  0  0
131132  2  0  0  0  0
132133  1  0  0  0  0
133134  2  0  0  0  0
134135  1  0  0  0  0
135136  1  0  0  0  0
136137  1  0  0  0  0
137138  1  0  0  0  0
138139  1  0  0  0  0
137140  2  0  0  0  0
140141  1  0  0  0  0
140142  1  0  0  0  0
142143  1  0  0  0  0
134144  1  0  0  0  0
144145  2  0  0  0  0
145146  1  0  0  0  0
146147  1  0  0  0  0
147148  1  0  0  0  0
148149  1  0  0  0  0
149150  1  0  0  0  0
150151  1  0  0  0  0
149152  2  0  0  0  0
152153  1  0  0  0  0
153154  1  0  0  0  0
152155  1  0  0  0  0
146156  2  0  0  0  0
156157  1  0  0  0  0
145158  1  0  0  0  0
158159  2  0  0  0  0
159160  1  0  0  0  0
 27  1  1  0  0  0  0
 57 31  1  0  0  0  0
 87 61  1  0  0  0  0
100 92  1  0  0  0  0
127101  1  0  0  0  0
157131  1  0  0  0  0
 26  3  1  0  0  0  0
 56 33  1  0  0  0  0
 86 63  1  0  0  0  0
 99 93  1  0  0  0  0
126103  1  0  0  0  0
156133  1  0  0  0  0
 12  5  2  0  0  0  0
 30 14  1  0  0  0  0
 42 35  2  0  0  0  0
 60 44  1  0  0  0  0
 72 65  2  0  0  0  0
 90 74  1  0  0  0  0
112105  2  0  0  0  0
130114  1  0  0  0  0
142135  2  0  0  0  0
160144  1  0  0  0  0
 23 17  2  0  0  0  0
 53 47  2  0  0  0  0
 83 77  2  0  0  0  0
123117  2  0  0  0  0
153147  2  0  0  0  0
  1161  1  0  0  0  0
  2162  1  0  0  0  0
  8163  1  0  0  0  0
  8164  1  0  0  0  0
  9165  1  0  0  0  0
  9166  1  0  0  0  0
  9167  1  0  0  0  0
 20168  1  0  0  0  0
 20169  1  0  0  0  0
 21170  1  0  0  0  0
 21171  1  0  0  0  0
 21172  1  0  0  0  0
 28173  1  0  0  0  0
 32174  1  0  0  0  0
 38175  1  0  0  0  0
 38176  1  0  0  0  0
 39177  1  0  0  0  0
 39178  1  0  0  0  0
 39179  1  0  0  0  0
 50180  1  0  0  0  0
 50181  1  0  0  0  0
 51182  1  0  0  0  0
 51183  1  0  0  0  0
 51184  1  0  0  0  0
 58185  1  0  0  0  0
 62186  1  0  0  0  0
 68187  1  0  0  0  0
 68188  1  0  0  0  0
 69189  1  0  0  0  0
 69190  1  0  0  0  0
 69191  1  0  0  0  0
 80192  1  0  0  0  0
 80193  1  0  0  0  0
 81194  1  0  0  0  0
 81195  1  0  0  0  0
 81196  1  0  0  0  0
 88197  1  0  0  0  0
 96198  1  0  0  0  0
102199  1  0  0  0  0
108200  1  0  0  0  0
108201  1  0  0  0  0
109202  1  0  0  0  0
109203  1  0  0  0  0
109204  1  0  0  0  0
120205  1  0  0  0  0
120206  1  0  0  0  0
121207  1  0  0  0  0
121208  1  0  0  0  0
121209  1  0  0  0  0
128210  1  0  0  0  0
132211  1  0  0  0  0
138212  1  0  0  0  0
138213  1  0  0  0  0
139214  1  0  0  0  0
139215  1  0  0  0  0
139216  1  0  0  0  0
150217  1  0  0  0  0
150218  1  0  0  0  0
151219  1  0  0  0  0
151220  1  0  0  0  0
151221  1  0  0  0  0
158222  1  0  0  0  0
159223  1  0  0  0  0
M  END
