
  xtb     03032213413D
 energy: -403.540810504096 gnorm: 0.000222042861 xtb: 6.4.1 (unknown)
238259  0     0  0            999 V2000
    3.1559   -3.4323   -9.7680 C   0  0  0  0  0  0  0  0  0  0  0  0
    1.8462   -4.3065   -9.1000 S   0  0  0  0  0  0  0  0  0  0  0  0
    2.9459   -5.4024   -8.3520 C   0  0  0  0  0  0  0  0  0  0  0  0
    4.2471   -5.1130   -8.6020 C   0  0  0  0  0  0  0  0  0  0  0  0
    5.3554   -5.9457   -8.0499 C   0  0  0  0  0  0  0  0  0  0  0  0
    4.3842   -3.9449   -9.4317 C   0  0  0  0  0  0  0  0  0  0  0  0
    5.5762   -3.2742   -9.8776 C   0  0  0  0  0  0  0  0  0  0  0  0
    6.8629   -3.6226   -9.6803 C   0  0  0  0  0  0  0  0  0  0  0  0
    7.9534   -2.8330  -10.1450 C   0  0  0  0  0  0  0  0  0  0  0  0
    9.2405   -3.2141   -9.9877 C   0  0  0  0  0  0  0  0  0  0  0  0
   10.3744   -2.4899  -10.4447 C   0  0  0  0  0  0  0  0  0  0  0  0
   10.1908   -1.1509  -11.5420 S   0  0  0  0  0  0  0  0  0  0  0  0
   11.8969   -1.0073  -11.7119 C   0  0  0  0  0  0  0  0  0  0  0  0
   12.5846   -1.9251  -10.9873 C   0  0  0  0  0  0  0  0  0  0  0  0
   14.0747   -2.0113  -10.9520 C   0  0  0  0  0  0  0  0  0  0  0  0
   11.7201   -2.7776  -10.2302 C   0  0  0  0  0  0  0  0  0  0  0  0
   12.2254   -3.7948   -9.3515 C   0  0  0  0  0  0  0  0  0  0  0  0
   11.6305   -4.2231   -8.2168 C   0  0  0  0  0  0  0  0  0  0  0  0
   12.1736   -5.2598   -7.4061 C   0  0  0  0  0  0  0  0  0  0  0  0
   11.6487   -5.7800   -6.2716 C   0  0  0  0  0  0  0  0  0  0  0  0
   10.4305   -5.4695   -5.5940 C   0  0  0  0  0  0  0  0  0  0  0  0
   10.1242   -5.9077   -4.3339 C   0  0  0  0  0  0  0  0  0  0  0  0
    8.8816   -5.4481   -3.8363 C   0  0  0  0  0  0  0  0  0  0  0  0
    8.3092   -5.7073   -2.5796 C   0  0  0  0  0  0  0  0  0  0  0  0
    9.0111   -6.4888   -1.5544 C   0  0  0  0  0  0  0  0  0  0  0  0
   10.3068   -6.1613   -1.1662 C   0  0  0  0  0  0  0  0  0  0  0  0
   10.9621   -6.8791   -0.1845 C   0  0  0  0  0  0  0  0  0  0  0  0
   10.3430   -7.9526    0.4457 C   0  0  0  0  0  0  0  0  0  0  0  0
   11.0732   -8.9681    1.6874 S   0  0  0  0  0  0  0  0  0  0  0  0
   12.4792   -7.9780    2.3027 C   0  0  0  0  0  0  0  0  0  0  0  0
   12.0259   -6.7519    3.0719 C   0  0  0  0  0  0  0  0  0  0  0  0
    9.0465   -8.2743    0.0404 C   0  0  0  0  0  0  0  0  0  0  0  0
    8.4210   -9.3197    0.6173 F   0  0  0  0  0  0  0  0  0  0  0  0
    8.3803   -7.5637   -0.9320 C   0  0  0  0  0  0  0  0  0  0  0  0
    7.0588   -5.1590   -2.3425 C   0  0  0  0  0  0  0  0  0  0  0  0
    6.3709   -4.3652   -3.2925 C   0  0  0  0  0  0  0  0  0  0  0  0
    6.9384   -4.1047   -4.5548 C   0  0  0  0  0  0  0  0  0  0  0  0
    6.2332   -3.2630   -5.5282 C   0  0  0  0  0  0  0  0  0  0  0  0
    4.8637   -3.4120   -5.7491 C   0  0  0  0  0  0  0  0  0  0  0  0
    4.1738   -2.5638   -6.5908 C   0  0  0  0  0  0  0  0  0  0  0  0
    4.8325   -1.5465   -7.2721 C   0  0  0  0  0  0  0  0  0  0  0  0
    4.0668   -0.4218   -8.3893 S   0  0  0  0  0  0  0  0  0  0  0  0
    2.3245   -0.3866   -7.8430 C   0  0  0  0  0  0  0  0  0  0  0  0
    2.1745    0.2567   -6.4794 C   0  0  0  0  0  0  0  0  0  0  0  0
    6.2117   -1.4448   -7.0915 C   0  0  0  0  0  0  0  0  0  0  0  0
    6.9061   -2.2654   -6.2318 C   0  0  0  0  0  0  0  0  0  0  0  0
    6.8922   -0.4927   -7.7587 F   0  0  0  0  0  0  0  0  0  0  0  0
    8.1925   -4.6521   -4.7865 C   0  0  0  0  0  0  0  0  0  0  0  0
    9.1286   -4.4904   -6.2497 S   0  0  0  0  0  0  0  0  0  0  0  0
    5.1599   -3.8579   -2.7608 C   0  0  0  0  0  0  0  0  0  0  0  0
    4.9120   -4.2483   -1.4788 C   0  0  0  0  0  0  0  0  0  0  0  0
    6.1795   -5.2656   -0.8360 S   0  0  0  0  0  0  0  0  0  0  0  0
    3.7560   -3.8532   -0.7310 C   0  0  0  0  0  0  0  0  0  0  0  0
    2.5358   -3.5799   -1.2724 C   0  0  0  0  0  0  0  0  0  0  0  0
    1.6121   -3.0309   -0.3500 C   0  0  0  0  0  0  0  0  0  0  0  0
    0.2933   -2.6135   -0.5915 C   0  0  0  0  0  0  0  0  0  0  0  0
   -0.3588   -2.7515   -1.8992 C   0  0  0  0  0  0  0  0  0  0  0  0
   -1.6453   -3.2845   -1.9825 C   0  0  0  0  0  0  0  0  0  0  0  0
   -2.2810   -3.4109   -3.1982 C   0  0  0  0  0  0  0  0  0  0  0  0
   -1.6637   -3.0163   -4.3828 C   0  0  0  0  0  0  0  0  0  0  0  0
   -2.5966   -3.1625   -5.8805 S   0  0  0  0  0  0  0  0  0  0  0  0
   -1.3884   -3.8209   -7.0872 C   0  0  0  0  0  0  0  0  0  0  0  0
   -0.7817   -5.1296   -6.6252 C   0  0  0  0  0  0  0  0  0  0  0  0
   -0.3853   -2.4772   -4.2852 C   0  0  0  0  0  0  0  0  0  0  0  0
    0.2714   -2.0569   -5.3907 F   0  0  0  0  0  0  0  0  0  0  0  0
    0.2644   -2.3439   -3.0747 C   0  0  0  0  0  0  0  0  0  0  0  0
   -0.3746   -2.0372    0.4779 C   0  0  0  0  0  0  0  0  0  0  0  0
    0.1903   -1.8949    1.7682 C   0  0  0  0  0  0  0  0  0  0  0  0
    1.4820   -2.3844    2.0276 C   0  0  0  0  0  0  0  0  0  0  0  0
    2.0527   -2.3137    3.3770 C   0  0  0  0  0  0  0  0  0  0  0  0
    1.3223   -2.7710    4.4711 C   0  0  0  0  0  0  0  0  0  0  0  0
    1.8382   -2.7154    5.7508 C   0  0  0  0  0  0  0  0  0  0  0  0
    3.1076   -2.1984    5.9838 C   0  0  0  0  0  0  0  0  0  0  0  0
    3.8680   -2.0364    7.5650 S   0  0  0  0  0  0  0  0  0  0  0  0
    2.9104   -3.1640    8.6365 C   0  0  0  0  0  0  0  0  0  0  0  0
    3.1336   -4.6216    8.2816 C   0  0  0  0  0  0  0  0  0  0  0  0
    3.8256   -1.7369    4.8788 C   0  0  0  0  0  0  0  0  0  0  0  0
    3.3251   -1.7911    3.5975 C   0  0  0  0  0  0  0  0  0  0  0  0
    5.0518   -1.2121    5.0696 F   0  0  0  0  0  0  0  0  0  0  0  0
    2.1731   -2.9150    0.9476 C   0  0  0  0  0  0  0  0  0  0  0  0
    3.8119   -3.5173    0.9839 S   0  0  0  0  0  0  0  0  0  0  0  0
   -0.6498   -1.1446    2.6330 C   0  0  0  0  0  0  0  0  0  0  0  0
   -1.7992   -0.7195    2.0395 C   0  0  0  0  0  0  0  0  0  0  0  0
   -1.9404   -1.2795    0.3823 S   0  0  0  0  0  0  0  0  0  0  0  0
   -2.8096    0.1498    2.5427 C   0  0  0  0  0  0  0  0  0  0  0  0
   -3.8279    0.6871    1.8152 C   0  0  0  0  0  0  0  0  0  0  0  0
   -4.6233    1.6085    2.5370 C   0  0  0  0  0  0  0  0  0  0  0  0
   -5.7107    2.3554    2.0521 C   0  0  0  0  0  0  0  0  0  0  0  0
   -6.1829    2.1310    0.6811 C   0  0  0  0  0  0  0  0  0  0  0  0
   -6.4200    0.8335    0.2292 C   0  0  0  0  0  0  0  0  0  0  0  0
   -6.7495    0.5835   -1.0871 C   0  0  0  0  0  0  0  0  0  0  0  0
   -6.8469    1.6233   -2.0051 C   0  0  0  0  0  0  0  0  0  0  0  0
   -7.2019    1.4096   -3.7185 S   0  0  0  0  0  0  0  0  0  0  0  0
   -6.5843   -0.2746   -4.0773 C   0  0  0  0  0  0  0  0  0  0  0  0
   -5.0836   -0.3950   -3.8954 C   0  0  0  0  0  0  0  0  0  0  0  0
   -6.6702    2.9222   -1.5261 C   0  0  0  0  0  0  0  0  0  0  0  0
   -6.7898    3.9566   -2.3784 F   0  0  0  0  0  0  0  0  0  0  0  0
   -6.3440    3.1861   -0.2133 C   0  0  0  0  0  0  0  0  0  0  0  0
   -6.2462    3.2942    2.9187 C   0  0  0  0  0  0  0  0  0  0  0  0
   -5.7889    3.4623    4.2513 C   0  0  0  0  0  0  0  0  0  0  0  0
   -4.7401    2.6714    4.7522 C   0  0  0  0  0  0  0  0  0  0  0  0
   -4.2872    2.7857    6.1431 C   0  0  0  0  0  0  0  0  0  0  0  0
   -2.9381    2.9313    6.4512 C   0  0  0  0  0  0  0  0  0  0  0  0
   -2.5074    3.0077    7.7613 C   0  0  0  0  0  0  0  0  0  0  0  0
   -3.4110    2.9259    8.8144 C   0  0  0  0  0  0  0  0  0  0  0  0
   -2.9963    3.0049   10.5244 S   0  0  0  0  0  0  0  0  0  0  0  0
   -1.1988    2.6845   10.5591 C   0  0  0  0  0  0  0  0  0  0  0  0
   -0.8612    1.2549   10.1806 C   0  0  0  0  0  0  0  0  0  0  0  0
   -4.7632    2.7944    8.4907 C   0  0  0  0  0  0  0  0  0  0  0  0
   -5.2066    2.7275    7.1895 C   0  0  0  0  0  0  0  0  0  0  0  0
   -5.6699    2.7181    9.4848 F   0  0  0  0  0  0  0  0  0  0  0  0
   -4.1584    1.7810    3.8628 C   0  0  0  0  0  0  0  0  0  0  0  0
   -2.7913    0.7408    4.1925 S   0  0  0  0  0  0  0  0  0  0  0  0
   -6.4676    4.5180    4.9102 C   0  0  0  0  0  0  0  0  0  0  0  0
   -7.4126    5.1263    4.1393 C   0  0  0  0  0  0  0  0  0  0  0  0
   -7.5365    4.4060    2.5455 S   0  0  0  0  0  0  0  0  0  0  0  0
   -8.2181    6.2536    4.4770 C   0  0  0  0  0  0  0  0  0  0  0  0
   -9.1192    6.9007    3.6867 C   0  0  0  0  0  0  0  0  0  0  0  0
   -9.7225    8.0216    4.3134 C   0  0  0  0  0  0  0  0  0  0  0  0
  -10.6641    8.9099    3.7715 C   0  0  0  0  0  0  0  0  0  0  0  0
  -11.0908    8.8119    2.3706 C   0  0  0  0  0  0  0  0  0  0  0  0
  -12.4366    8.7960    2.0204 C   0  0  0  0  0  0  0  0  0  0  0  0
  -12.8304    8.7214    0.6978 C   0  0  0  0  0  0  0  0  0  0  0  0
  -11.8898    8.6653   -0.3241 C   0  0  0  0  0  0  0  0  0  0  0  0
  -12.2451    8.6034   -2.0477 S   0  0  0  0  0  0  0  0  0  0  0  0
  -14.0139    8.1575   -2.1264 C   0  0  0  0  0  0  0  0  0  0  0  0
  -14.2642    6.7224   -1.7034 C   0  0  0  0  0  0  0  0  0  0  0  0
  -10.5421    8.6962    0.0420 C   0  0  0  0  0  0  0  0  0  0  0  0
   -9.6015    8.6663   -0.9219 F   0  0  0  0  0  0  0  0  0  0  0  0
  -10.1367    8.7620    1.3551 C   0  0  0  0  0  0  0  0  0  0  0  0
  -11.1337    9.9070    4.6148 C   0  0  0  0  0  0  0  0  0  0  0  0
  -10.6627   10.0881    5.9372 C   0  0  0  0  0  0  0  0  0  0  0  0
   -9.6908    9.2256    6.4648 C   0  0  0  0  0  0  0  0  0  0  0  0
   -9.1148    9.4355    7.7993 C   0  0  0  0  0  0  0  0  0  0  0  0
   -8.5852   10.6754    8.1555 C   0  0  0  0  0  0  0  0  0  0  0  0
   -8.0195   10.8656    9.3968 C   0  0  0  0  0  0  0  0  0  0  0  0
   -7.9505    9.8338   10.3334 C   0  0  0  0  0  0  0  0  0  0  0  0
   -7.1363   10.2116   11.8557 S   0  0  0  0  0  0  0  0  0  0  0  0
   -7.9684    9.1873   13.1237 C   0  0  0  0  0  0  0  0  0  0  0  0
   -9.4497    9.4910   13.2206 C   0  0  0  0  0  0  0  0  0  0  0  0
   -8.4656    8.5975    9.9558 C   0  0  0  0  0  0  0  0  0  0  0  0
   -9.0473    8.3965    8.7197 C   0  0  0  0  0  0  0  0  0  0  0  0
   -8.4181    7.5371   10.7915 F   0  0  0  0  0  0  0  0  0  0  0  0
   -9.2657    8.1914    5.6437 C   0  0  0  0  0  0  0  0  0  0  0  0
   -8.0743    6.9881    6.0633 S   0  0  0  0  0  0  0  0  0  0  0  0
  -11.3014   11.1933    6.5755 C   0  0  0  0  0  0  0  0  0  0  0  0
  -12.1830   11.8240    5.7743 C   0  0  0  0  0  0  0  0  0  0  0  0
  -12.3095   11.1267    4.1951 S   0  0  0  0  0  0  0  0  0  0  0  0
    2.9581   -2.5701  -10.3739 H   0  0  0  0  0  0  0  0  0  0  0  0
    2.5572   -6.2112   -7.7640 H   0  0  0  0  0  0  0  0  0  0  0  0
    5.9322   -6.3971   -8.8559 H   0  0  0  0  0  0  0  0  0  0  0  0
    4.9464   -6.7430   -7.4324 H   0  0  0  0  0  0  0  0  0  0  0  0
    6.0215   -5.3399   -7.4373 H   0  0  0  0  0  0  0  0  0  0  0  0
    5.3831   -2.3604  -10.4274 H   0  0  0  0  0  0  0  0  0  0  0  0
    7.1282   -4.5251   -9.1544 H   0  0  0  0  0  0  0  0  0  0  0  0
    7.7256   -1.8897  -10.6240 H   0  0  0  0  0  0  0  0  0  0  0  0
    9.4467   -4.1595   -9.5038 H   0  0  0  0  0  0  0  0  0  0  0  0
   12.2949   -0.2394  -12.3459 H   0  0  0  0  0  0  0  0  0  0  0  0
   14.4100   -2.9769  -11.3307 H   0  0  0  0  0  0  0  0  0  0  0  0
   14.5125   -1.2285  -11.5659 H   0  0  0  0  0  0  0  0  0  0  0  0
   14.4383   -1.9018   -9.9310 H   0  0  0  0  0  0  0  0  0  0  0  0
   13.1837   -4.2196   -9.6266 H   0  0  0  0  0  0  0  0  0  0  0  0
   10.7284   -3.7380   -7.8802 H   0  0  0  0  0  0  0  0  0  0  0  0
   13.1216   -5.6667   -7.7380 H   0  0  0  0  0  0  0  0  0  0  0  0
   12.2275   -6.5389   -5.7580 H   0  0  0  0  0  0  0  0  0  0  0  0
   10.7797   -6.5462   -3.7690 H   0  0  0  0  0  0  0  0  0  0  0  0
   10.8024   -5.3182   -1.6242 H   0  0  0  0  0  0  0  0  0  0  0  0
   11.9669   -6.5950    0.0836 H   0  0  0  0  0  0  0  0  0  0  0  0
   13.0093   -8.6717    2.9553 H   0  0  0  0  0  0  0  0  0  0  0  0
   13.1283   -7.7289    1.4641 H   0  0  0  0  0  0  0  0  0  0  0  0
   11.4001   -7.0465    3.9110 H   0  0  0  0  0  0  0  0  0  0  0  0
   11.4520   -6.0808    2.4364 H   0  0  0  0  0  0  0  0  0  0  0  0
   12.8912   -6.2140    3.4546 H   0  0  0  0  0  0  0  0  0  0  0  0
    7.3813   -7.8617   -1.2086 H   0  0  0  0  0  0  0  0  0  0  0  0
    4.3324   -4.2237   -5.2756 H   0  0  0  0  0  0  0  0  0  0  0  0
    3.1127   -2.7052   -6.7190 H   0  0  0  0  0  0  0  0  0  0  0  0
    1.9210   -1.3977   -7.8686 H   0  0  0  0  0  0  0  0  0  0  0  0
    1.8278    0.2063   -8.6109 H   0  0  0  0  0  0  0  0  0  0  0  0
    2.5811    1.2653   -6.4901 H   0  0  0  0  0  0  0  0  0  0  0  0
    1.1224    0.3043   -6.2094 H   0  0  0  0  0  0  0  0  0  0  0  0
    2.7000   -0.3213   -5.7220 H   0  0  0  0  0  0  0  0  0  0  0  0
    7.9626   -2.0979   -6.0984 H   0  0  0  0  0  0  0  0  0  0  0  0
    4.5200   -3.1739   -3.2860 H   0  0  0  0  0  0  0  0  0  0  0  0
    2.3022   -3.7817   -2.3010 H   0  0  0  0  0  0  0  0  0  0  0  0
   -2.1410   -3.6244   -1.0867 H   0  0  0  0  0  0  0  0  0  0  0  0
   -3.2742   -3.8282   -3.2535 H   0  0  0  0  0  0  0  0  0  0  0  0
   -0.6299   -3.0663   -7.2823 H   0  0  0  0  0  0  0  0  0  0  0  0
   -1.9850   -3.9617   -7.9880 H   0  0  0  0  0  0  0  0  0  0  0  0
   -0.1763   -4.9842   -5.7319 H   0  0  0  0  0  0  0  0  0  0  0  0
   -1.5608   -5.8550   -6.4005 H   0  0  0  0  0  0  0  0  0  0  0  0
   -0.1466   -5.5287   -7.4130 H   0  0  0  0  0  0  0  0  0  0  0  0
    1.2389   -1.8809   -3.0582 H   0  0  0  0  0  0  0  0  0  0  0  0
    0.3409   -3.1934    4.3159 H   0  0  0  0  0  0  0  0  0  0  0  0
    1.2358   -3.0738    6.5697 H   0  0  0  0  0  0  0  0  0  0  0  0
    3.2896   -2.9456    9.6348 H   0  0  0  0  0  0  0  0  0  0  0  0
    1.8594   -2.8801    8.5967 H   0  0  0  0  0  0  0  0  0  0  0  0
    2.8022   -4.8329    7.2671 H   0  0  0  0  0  0  0  0  0  0  0  0
    4.1905   -4.8671    8.3541 H   0  0  0  0  0  0  0  0  0  0  0  0
    2.5800   -5.2588    8.9686 H   0  0  0  0  0  0  0  0  0  0  0  0
    3.9220   -1.4066    2.7861 H   0  0  0  0  0  0  0  0  0  0  0  0
   -0.3869   -0.8821    3.6422 H   0  0  0  0  0  0  0  0  0  0  0  0
   -3.9737    0.4611    0.7741 H   0  0  0  0  0  0  0  0  0  0  0  0
   -6.3561    0.0091    0.9236 H   0  0  0  0  0  0  0  0  0  0  0  0
   -6.9274   -0.4330   -1.3998 H   0  0  0  0  0  0  0  0  0  0  0  0
   -6.8599   -0.4212   -5.1214 H   0  0  0  0  0  0  0  0  0  0  0  0
   -7.1348   -0.9919   -3.4700 H   0  0  0  0  0  0  0  0  0  0  0  0
   -4.8018   -0.2653   -2.8522 H   0  0  0  0  0  0  0  0  0  0  0  0
   -4.5727    0.3614   -4.4863 H   0  0  0  0  0  0  0  0  0  0  0  0
   -4.7463   -1.3752   -4.2276 H   0  0  0  0  0  0  0  0  0  0  0  0
   -6.1797    4.2079    0.0894 H   0  0  0  0  0  0  0  0  0  0  0  0
   -2.2132    3.0100    5.6558 H   0  0  0  0  0  0  0  0  0  0  0  0
   -1.4552    3.1394    7.9537 H   0  0  0  0  0  0  0  0  0  0  0  0
   -0.6990    3.4135    9.9226 H   0  0  0  0  0  0  0  0  0  0  0  0
   -0.9262    2.8860   11.5950 H   0  0  0  0  0  0  0  0  0  0  0  0
    0.2138    1.0984   10.2491 H   0  0  0  0  0  0  0  0  0  0  0  0
   -1.3587    0.5622   10.8555 H   0  0  0  0  0  0  0  0  0  0  0  0
   -1.1810    1.0336    9.1643 H   0  0  0  0  0  0  0  0  0  0  0  0
   -6.2608    2.6002    6.9990 H   0  0  0  0  0  0  0  0  0  0  0  0
   -6.2412    4.8407    5.9108 H   0  0  0  0  0  0  0  0  0  0  0  0
   -9.3505    6.5795    2.6867 H   0  0  0  0  0  0  0  0  0  0  0  0
  -13.1900    8.8265    2.7926 H   0  0  0  0  0  0  0  0  0  0  0  0
  -13.8839    8.7164    0.4709 H   0  0  0  0  0  0  0  0  0  0  0  0
  -14.5834    8.8737   -1.5355 H   0  0  0  0  0  0  0  0  0  0  0  0
  -14.2637    8.3001   -3.1777 H   0  0  0  0  0  0  0  0  0  0  0  0
  -15.3213    6.4847   -1.8061 H   0  0  0  0  0  0  0  0  0  0  0  0
  -13.9702    6.5623   -0.6682 H   0  0  0  0  0  0  0  0  0  0  0  0
  -13.6917    6.0427   -2.3302 H   0  0  0  0  0  0  0  0  0  0  0  0
   -9.0820    8.7999    1.5789 H   0  0  0  0  0  0  0  0  0  0  0  0
   -8.6028   11.4871    7.4442 H   0  0  0  0  0  0  0  0  0  0  0  0
   -7.6078   11.8255    9.6678 H   0  0  0  0  0  0  0  0  0  0  0  0
   -7.4500    9.4663   14.0414 H   0  0  0  0  0  0  0  0  0  0  0  0
   -7.7778    8.1372   12.9148 H   0  0  0  0  0  0  0  0  0  0  0  0
   -9.6113   10.5527   13.3956 H   0  0  0  0  0  0  0  0  0  0  0  0
   -9.8845    8.9297   14.0451 H   0  0  0  0  0  0  0  0  0  0  0  0
   -9.9652    9.2083   12.3050 H   0  0  0  0  0  0  0  0  0  0  0  0
   -9.4451    7.4201    8.4912 H   0  0  0  0  0  0  0  0  0  0  0  0
  -11.1065   11.4794    7.5931 H   0  0  0  0  0  0  0  0  0  0  0  0
  -12.7937   12.6745    6.0068 H   0  0  0  0  0  0  0  0  0  0  0  0
  1  2  1  0  0  0  0
  2  3  1  0  0  0  0
  3  4  2  0  0  0  0
  4  5  1  0  0  0  0
  4  6  1  0  0  0  0
  6  7  1  0  0  0  0
  7  8  2  0  0  0  0
  8  9  1  0  0  0  0
  9 10  2  0  0  0  0
 10 11  1  0  0  0  0
 11 12  1  0  0  0  0
 12 13  1  0  0  0  0
 13 14  2  0  0  0  0
 14 15  1  0  0  0  0
 14 16  1  0  0  0  0
 16 17  1  0  0  0  0
 17 18  2  0  0  0  0
 18 19  1  0  0  0  0
 19 20  2  0  0  0  0
 20 21  1  0  0  0  0
 21 22  2  0  0  0  0
 22 23  1  0  0  0  0
 23 24  2  0  0  0  0
 24 25  1  0  0  0  0
 25 26  2  0  0  0  0
 26 27  1  0  0  0  0
 27 28  2  0  0  0  0
 28 29  1  0  0  0  0
 29 30  1  0  0  0  0
 30 31  1  0  0  0  0
 28 32  1  0  0  0  0
 32 33  1  0  0  0  0
 32 34  2  0  0  0  0
 24 35  1  0  0  0  0
 35 36  2  0  0  0  0
 36 37  1  0  0  0  0
 37 38  1  0  0  0  0
 38 39  2  0  0  0  0
 39 40  1  0  0  0  0
 40 41  2  0  0  0  0
 41 42  1  0  0  0  0
 42 43  1  0  0  0  0
 43 44  1  0  0  0  0
 41 45  1  0  0  0  0
 45 46  2  0  0  0  0
 45 47  1  0  0  0  0
 37 48  2  0  0  0  0
 48 49  1  0  0  0  0
 36 50  1  0  0  0  0
 50 51  2  0  0  0  0
 51 52  1  0  0  0  0
 51 53  1  0  0  0  0
 53 54  2  0  0  0  0
 54 55  1  0  0  0  0
 55 56  2  0  0  0  0
 56 57  1  0  0  0  0
 57 58  2  0  0  0  0
 58 59  1  0  0  0  0
 59 60  2  0  0  0  0
 60 61  1  0  0  0  0
 61 62  1  0  0  0  0
 62 63  1  0  0  0  0
 60 64  1  0  0  0  0
 64 65  1  0  0  0  0
 64 66  2  0  0  0  0
 56 67  1  0  0  0  0
 67 68  2  0  0  0  0
 68 69  1  0  0  0  0
 69 70  1  0  0  0  0
 70 71  2  0  0  0  0
 71 72  1  0  0  0  0
 72 73  2  0  0  0  0
 73 74  1  0  0  0  0
 74 75  1  0  0  0  0
 75 76  1  0  0  0  0
 73 77  1  0  0  0  0
 77 78  2  0  0  0  0
 77 79  1  0  0  0  0
 69 80  2  0  0  0  0
 80 81  1  0  0  0  0
 68 82  1  0  0  0  0
 82 83  2  0  0  0  0
 83 84  1  0  0  0  0
 83 85  1  0  0  0  0
 85 86  2  0  0  0  0
 86 87  1  0  0  0  0
 87 88  2  0  0  0  0
 88 89  1  0  0  0  0
 89 90  2  0  0  0  0
 90 91  1  0  0  0  0
 91 92  2  0  0  0  0
 92 93  1  0  0  0  0
 93 94  1  0  0  0  0
 94 95  1  0  0  0  0
 92 96  1  0  0  0  0
 96 97  1  0  0  0  0
 96 98  2  0  0  0  0
 88 99  1  0  0  0  0
 99100  2  0  0  0  0
100101  1  0  0  0  0
101102  1  0  0  0  0
102103  2  0  0  0  0
103104  1  0  0  0  0
104105  2  0  0  0  0
105106  1  0  0  0  0
106107  1  0  0  0  0
107108  1  0  0  0  0
105109  1  0  0  0  0
109110  2  0  0  0  0
109111  1  0  0  0  0
101112  2  0  0  0  0
112113  1  0  0  0  0
100114  1  0  0  0  0
114115  2  0  0  0  0
115116  1  0  0  0  0
115117  1  0  0  0  0
117118  2  0  0  0  0
118119  1  0  0  0  0
119120  2  0  0  0  0
120121  1  0  0  0  0
121122  2  0  0  0  0
122123  1  0  0  0  0
123124  2  0  0  0  0
124125  1  0  0  0  0
125126  1  0  0  0  0
126127  1  0  0  0  0
124128  1  0  0  0  0
128129  1  0  0  0  0
128130  2  0  0  0  0
120131  1  0  0  0  0
131132  2  0  0  0  0
132133  1  0  0  0  0
133134  1  0  0  0  0
134135  2  0  0  0  0
135136  1  0  0  0  0
136137  2  0  0  0  0
137138  1  0  0  0  0
138139  1  0  0  0  0
139140  1  0  0  0  0
137141  1  0  0  0  0
141142  2  0  0  0  0
141143  1  0  0  0  0
133144  2  0  0  0  0
144145  1  0  0  0  0
132146  1  0  0  0  0
146147  2  0  0  0  0
147148  1  0  0  0  0
  6  1  2  0  0  0  0
 16 11  2  0  0  0  0
 49 21  1  0  0  0  0
 81 53  1  0  0  0  0
113 85  1  0  0  0  0
145117  1  0  0  0  0
 48 23  1  0  0  0  0
 80 55  1  0  0  0  0
112 87  1  0  0  0  0
144119  1  0  0  0  0
 34 25  1  0  0  0  0
 52 35  1  0  0  0  0
 66 57  1  0  0  0  0
 84 67  1  0  0  0  0
 98 89  1  0  0  0  0
116 99  1  0  0  0  0
130121  1  0  0  0  0
148131  1  0  0  0  0
 46 38  1  0  0  0  0
 78 70  1  0  0  0  0
110102  1  0  0  0  0
142134  1  0  0  0  0
  1149  1  0  0  0  0
  3150  1  0  0  0  0
  5151  1  0  0  0  0
  5152  1  0  0  0  0
  5153  1  0  0  0  0
  7154  1  0  0  0  0
  8155  1  0  0  0  0
  9156  1  0  0  0  0
 10157  1  0  0  0  0
 13158  1  0  0  0  0
 15159  1  0  0  0  0
 15160  1  0  0  0  0
 15161  1  0  0  0  0
 17162  1  0  0  0  0
 18163  1  0  0  0  0
 19164  1  0  0  0  0
 20165  1  0  0  0  0
 22166  1  0  0  0  0
 26167  1  0  0  0  0
 27168  1  0  0  0  0
 30169  1  0  0  0  0
 30170  1  0  0  0  0
 31171  1  0  0  0  0
 31172  1  0  0  0  0
 31173  1  0  0  0  0
 34174  1  0  0  0  0
 39175  1  0  0  0  0
 40176  1  0  0  0  0
 43177  1  0  0  0  0
 43178  1  0  0  0  0
 44179  1  0  0  0  0
 44180  1  0  0  0  0
 44181  1  0  0  0  0
 46182  1  0  0  0  0
 50183  1  0  0  0  0
 54184  1  0  0  0  0
 58185  1  0  0  0  0
 59186  1  0  0  0  0
 62187  1  0  0  0  0
 62188  1  0  0  0  0
 63189  1  0  0  0  0
 63190  1  0  0  0  0
 63191  1  0  0  0  0
 66192  1  0  0  0  0
 71193  1  0  0  0  0
 72194  1  0  0  0  0
 75195  1  0  0  0  0
 75196  1  0  0  0  0
 76197  1  0  0  0  0
 76198  1  0  0  0  0
 76199  1  0  0  0  0
 78200  1  0  0  0  0
 82201  1  0  0  0  0
 86202  1  0  0  0  0
 90203  1  0  0  0  0
 91204  1  0  0  0  0
 94205  1  0  0  0  0
 94206  1  0  0  0  0
 95207  1  0  0  0  0
 95208  1  0  0  0  0
 95209  1  0  0  0  0
 98210  1  0  0  0  0
103211  1  0  0  0  0
104212  1  0  0  0  0
107213  1  0  0  0  0
107214  1  0  0  0  0
108215  1  0  0  0  0
108216  1  0  0  0  0
108217  1  0  0  0  0
110218  1  0  0  0  0
114219  1  0  0  0  0
118220  1  0  0  0  0
122221  1  0  0  0  0
123222  1  0  0  0  0
126223  1  0  0  0  0
126224  1  0  0  0  0
127225  1  0  0  0  0
127226  1  0  0  0  0
127227  1  0  0  0  0
130228  1  0  0  0  0
135229  1  0  0  0  0
136230  1  0  0  0  0
139231  1  0  0  0  0
139232  1  0  0  0  0
140233  1  0  0  0  0
140234  1  0  0  0  0
140235  1  0  0  0  0
142236  1  0  0  0  0
146237  1  0  0  0  0
147238  1  0  0  0  0
M  END
