
  xtb     03022211363D
 energy: -441.756943637327 gnorm: 0.000680710816 xtb: 6.4.1 (unknown)
224249  0     0  0            999 V2000
    2.9884   -5.9945    9.7674 C   0  0  0  0  0  0  0  0  0  0  0  0
    1.9032   -5.2183    9.5722 C   0  0  0  0  0  0  0  0  0  0  0  0
    1.3970   -5.2984    8.2419 C   0  0  0  0  0  0  0  0  0  0  0  0
    0.3065   -4.6146    7.6769 C   0  0  0  0  0  0  0  0  0  0  0  0
   -0.4055   -3.5844    8.4127 C   0  0  0  0  0  0  0  0  0  0  0  0
   -2.1442   -3.5466    8.4800 S   0  0  0  0  0  0  0  0  0  0  0  0
   -2.1585   -2.1393    9.4883 C   0  0  0  0  0  0  0  0  0  0  0  0
   -3.4352   -1.5166    9.9324 C   0  0  0  0  0  0  0  0  0  0  0  0
   -4.1633   -0.8573    8.7605 C   0  0  0  0  0  0  0  0  0  0  0  0
   -0.8847   -1.7262    9.7346 C   0  0  0  0  0  0  0  0  0  0  0  0
   -0.4969   -0.3761   10.7149 Cl  0  0  0  0  0  0  0  0  0  0  0  0
    0.1108   -2.5348    9.1225 C   0  0  0  0  0  0  0  0  0  0  0  0
    1.7790   -2.1431    9.2034 Cl  0  0  0  0  0  0  0  0  0  0  0  0
   -0.0431   -4.9627    6.3780 C   0  0  0  0  0  0  0  0  0  0  0  0
    0.6882   -5.8893    5.5980 C   0  0  0  0  0  0  0  0  0  0  0  0
    1.8065   -6.5360    6.1473 C   0  0  0  0  0  0  0  0  0  0  0  0
    2.5718   -7.5035    5.3769 C   0  0  0  0  0  0  0  0  0  0  0  0
    3.2579   -7.0951    3.8309 S   0  0  0  0  0  0  0  0  0  0  0  0
    3.9482   -8.6712    3.6301 C   0  0  0  0  0  0  0  0  0  0  0  0
    4.7597   -9.0084    2.4287 C   0  0  0  0  0  0  0  0  0  0  0  0
    6.1121   -8.2941    2.4535 C   0  0  0  0  0  0  0  0  0  0  0  0
    3.6572   -9.4531    4.7068 C   0  0  0  0  0  0  0  0  0  0  0  0
    2.8731   -8.7979    5.6953 C   0  0  0  0  0  0  0  0  0  0  0  0
    2.2985   -9.6100    7.0905 Cl  0  0  0  0  0  0  0  0  0  0  0  0
    4.1639  -11.0839    4.8756 Cl  0  0  0  0  0  0  0  0  0  0  0  0
    2.1298   -6.2271    7.4641 C   0  0  0  0  0  0  0  0  0  0  0  0
    3.4628   -6.8879    8.3666 S   0  0  0  0  0  0  0  0  0  0  0  0
    0.1186   -6.0706    4.3104 C   0  0  0  0  0  0  0  0  0  0  0  0
   -1.0049   -5.3325    4.1051 C   0  0  0  0  0  0  0  0  0  0  0  0
   -1.4039   -4.3362    5.4951 S   0  0  0  0  0  0  0  0  0  0  0  0
   -1.8338   -5.2862    2.9414 C   0  0  0  0  0  0  0  0  0  0  0  0
   -3.1392   -4.8978    2.9914 N   0  0  0  0  0  0  0  0  0  0  0  0
   -3.6943   -4.9066    1.7502 C   0  0  0  0  0  0  0  0  0  0  0  0
   -5.0719   -4.5714    1.5251 C   0  0  0  0  0  0  0  0  0  0  0  0
   -5.9164   -4.1087    2.4472 C   0  0  0  0  0  0  0  0  0  0  0  0
   -2.6876   -5.3007    0.8521 C   0  0  0  0  0  0  0  0  0  0  0  0
   -1.5285   -5.5483    1.6217 C   0  0  0  0  0  0  0  0  0  0  0  0
   -2.7030   -5.3188   -0.5830 C   0  0  0  0  0  0  0  0  0  0  0  0
   -1.6358   -5.5983   -1.3881 C   0  0  0  0  0  0  0  0  0  0  0  0
   -1.8500   -5.3133   -2.7586 C   0  0  0  0  0  0  0  0  0  0  0  0
   -0.9093   -5.2977   -3.8061 C   0  0  0  0  0  0  0  0  0  0  0  0
    0.4621   -5.7423   -3.6273 C   0  0  0  0  0  0  0  0  0  0  0  0
    1.4512   -5.1972   -2.3035 S   0  0  0  0  0  0  0  0  0  0  0  0
    2.8308   -6.0828   -2.8598 C   0  0  0  0  0  0  0  0  0  0  0  0
    4.1095   -6.0743   -2.0969 C   0  0  0  0  0  0  0  0  0  0  0  0
    4.0175   -6.9492   -0.8448 C   0  0  0  0  0  0  0  0  0  0  0  0
    2.5244   -6.7643   -3.9990 C   0  0  0  0  0  0  0  0  0  0  0  0
    3.6310   -7.7679   -4.8436 Cl  0  0  0  0  0  0  0  0  0  0  0  0
    1.1886   -6.5669   -4.4421 C   0  0  0  0  0  0  0  0  0  0  0  0
    0.5537   -7.3614   -5.8212 Cl  0  0  0  0  0  0  0  0  0  0  0  0
   -1.3196   -4.7289   -5.0067 C   0  0  0  0  0  0  0  0  0  0  0  0
   -2.6429   -4.2802   -5.2386 C   0  0  0  0  0  0  0  0  0  0  0  0
   -3.6113   -4.3954   -4.2258 C   0  0  0  0  0  0  0  0  0  0  0  0
   -4.9744   -3.9204   -4.3978 C   0  0  0  0  0  0  0  0  0  0  0  0
   -5.3235   -2.3052   -4.9433 S   0  0  0  0  0  0  0  0  0  0  0  0
   -7.0326   -2.5437   -4.8073 C   0  0  0  0  0  0  0  0  0  0  0  0
   -7.9861   -1.4740   -5.2102 C   0  0  0  0  0  0  0  0  0  0  0  0
   -7.9926   -1.2917   -6.7290 C   0  0  0  0  0  0  0  0  0  0  0  0
   -7.3010   -3.8043   -4.3662 C   0  0  0  0  0  0  0  0  0  0  0  0
   -6.1375   -4.5831   -4.1214 C   0  0  0  0  0  0  0  0  0  0  0  0
   -6.2140   -6.2152   -3.6046 Cl  0  0  0  0  0  0  0  0  0  0  0  0
   -8.8836   -4.4189   -4.1162 Cl  0  0  0  0  0  0  0  0  0  0  0  0
   -3.1725   -4.8686   -2.9973 C   0  0  0  0  0  0  0  0  0  0  0  0
   -4.0885   -4.8019   -1.5221 S   0  0  0  0  0  0  0  0  0  0  0  0
   -2.7550   -3.5621   -6.4514 C   0  0  0  0  0  0  0  0  0  0  0  0
   -1.5585   -3.3578   -7.0779 C   0  0  0  0  0  0  0  0  0  0  0  0
   -0.2565   -4.2435   -6.3031 S   0  0  0  0  0  0  0  0  0  0  0  0
   -1.2803   -2.2602   -7.9458 C   0  0  0  0  0  0  0  0  0  0  0  0
   -0.0683   -1.6603   -8.1340 C   0  0  0  0  0  0  0  0  0  0  0  0
   -0.1666   -0.2796   -8.4400 C   0  0  0  0  0  0  0  0  0  0  0  0
    0.8822    0.6643   -8.3681 C   0  0  0  0  0  0  0  0  0  0  0  0
    2.2576    0.2358   -8.4670 C   0  0  0  0  0  0  0  0  0  0  0  0
    3.5226    0.8746   -7.4565 S   0  0  0  0  0  0  0  0  0  0  0  0
    4.7282   -0.1191   -8.1993 C   0  0  0  0  0  0  0  0  0  0  0  0
    6.1388   -0.1011   -7.7251 C   0  0  0  0  0  0  0  0  0  0  0  0
    6.3225   -1.0238   -6.5175 C   0  0  0  0  0  0  0  0  0  0  0  0
    4.1717   -0.8946   -9.1735 C   0  0  0  0  0  0  0  0  0  0  0  0
    5.0592   -2.0018  -10.1387 Cl  0  0  0  0  0  0  0  0  0  0  0  0
    2.7760   -0.6966   -9.3313 C   0  0  0  0  0  0  0  0  0  0  0  0
    1.8750   -1.4943  -10.5533 Cl  0  0  0  0  0  0  0  0  0  0  0  0
    0.4947    1.9642   -8.0564 C   0  0  0  0  0  0  0  0  0  0  0  0
   -0.8590    2.3748   -8.0521 C   0  0  0  0  0  0  0  0  0  0  0  0
   -1.8832    1.4857   -8.4448 C   0  0  0  0  0  0  0  0  0  0  0  0
   -3.2415    1.9602   -8.5778 C   0  0  0  0  0  0  0  0  0  0  0  0
   -4.6164    1.0908   -7.9598 S   0  0  0  0  0  0  0  0  0  0  0  0
   -5.7241    2.3187   -8.4759 C   0  0  0  0  0  0  0  0  0  0  0  0
   -7.1798    2.2101   -8.1865 C   0  0  0  0  0  0  0  0  0  0  0  0
   -7.4647    2.4741   -6.7065 C   0  0  0  0  0  0  0  0  0  0  0  0
   -5.0555    3.3326   -9.0949 C   0  0  0  0  0  0  0  0  0  0  0  0
   -3.6519    3.1342   -9.1573 C   0  0  0  0  0  0  0  0  0  0  0  0
   -2.6093    4.2356   -9.9586 Cl  0  0  0  0  0  0  0  0  0  0  0  0
   -5.8153    4.7248   -9.7515 Cl  0  0  0  0  0  0  0  0  0  0  0  0
   -1.5133    0.1487   -8.5186 C   0  0  0  0  0  0  0  0  0  0  0  0
   -2.6099   -1.2006   -8.4017 S   0  0  0  0  0  0  0  0  0  0  0  0
   -1.0450    3.5825   -7.3387 C   0  0  0  0  0  0  0  0  0  0  0  0
    0.1038    4.0704   -6.7865 C   0  0  0  0  0  0  0  0  0  0  0  0
    1.5194    3.1830   -7.3396 S   0  0  0  0  0  0  0  0  0  0  0  0
    0.1869    4.8393   -5.5868 C   0  0  0  0  0  0  0  0  0  0  0  0
    1.2937    5.0962   -4.8322 C   0  0  0  0  0  0  0  0  0  0  0  0
    0.9998    5.3468   -3.4674 C   0  0  0  0  0  0  0  0  0  0  0  0
    1.9141    5.4592   -2.4059 C   0  0  0  0  0  0  0  0  0  0  0  0
    3.3362    5.6060   -2.6731 C   0  0  0  0  0  0  0  0  0  0  0  0
    3.9156    6.9355   -3.6329 S   0  0  0  0  0  0  0  0  0  0  0  0
    5.5619    6.4215   -3.4923 C   0  0  0  0  0  0  0  0  0  0  0  0
    6.6729    7.2150   -4.0859 C   0  0  0  0  0  0  0  0  0  0  0  0
    7.1065    8.3390   -3.1418 C   0  0  0  0  0  0  0  0  0  0  0  0
    5.6397    5.2857   -2.7433 C   0  0  0  0  0  0  0  0  0  0  0  0
    7.1085    4.4727   -2.3899 Cl  0  0  0  0  0  0  0  0  0  0  0  0
    4.3801    4.8155   -2.2822 C   0  0  0  0  0  0  0  0  0  0  0  0
    4.2103    3.3520   -1.4069 Cl  0  0  0  0  0  0  0  0  0  0  0  0
    1.3987    5.3551   -1.1203 C   0  0  0  0  0  0  0  0  0  0  0  0
    0.0155    5.1870   -0.8607 C   0  0  0  0  0  0  0  0  0  0  0  0
   -0.9124    5.2436   -1.9166 C   0  0  0  0  0  0  0  0  0  0  0  0
   -2.3403    5.2085   -1.6602 C   0  0  0  0  0  0  0  0  0  0  0  0
   -3.4083    4.1440   -2.5258 S   0  0  0  0  0  0  0  0  0  0  0  0
   -4.8019    4.7248   -1.6777 C   0  0  0  0  0  0  0  0  0  0  0  0
   -6.1597    4.2059   -1.9997 C   0  0  0  0  0  0  0  0  0  0  0  0
   -6.6045    4.6585   -3.3916 C   0  0  0  0  0  0  0  0  0  0  0  0
   -4.4453    5.6915   -0.7858 C   0  0  0  0  0  0  0  0  0  0  0  0
   -3.0508    5.9639   -0.7670 C   0  0  0  0  0  0  0  0  0  0  0  0
   -2.3648    7.1827    0.2276 Cl  0  0  0  0  0  0  0  0  0  0  0  0
   -5.5535    6.5186    0.2315 Cl  0  0  0  0  0  0  0  0  0  0  0  0
   -0.3889    5.2780   -3.2017 C   0  0  0  0  0  0  0  0  0  0  0  0
   -1.2990    5.0718   -4.6713 S   0  0  0  0  0  0  0  0  0  0  0  0
   -0.2306    4.8647    0.4979 C   0  0  0  0  0  0  0  0  0  0  0  0
    0.8962    4.8471    1.2614 C   0  0  0  0  0  0  0  0  0  0  0  0
    2.3245    5.2900    0.3509 S   0  0  0  0  0  0  0  0  0  0  0  0
    1.0291    4.3961    2.6173 C   0  0  0  0  0  0  0  0  0  0  0  0
    0.3621    3.3579    3.1947 C   0  0  0  0  0  0  0  0  0  0  0  0
    0.8024    3.0687    4.5126 C   0  0  0  0  0  0  0  0  0  0  0  0
    0.4163    2.0120    5.3545 C   0  0  0  0  0  0  0  0  0  0  0  0
   -0.4781    0.9552    4.9080 C   0  0  0  0  0  0  0  0  0  0  0  0
   -1.8580    0.4645    5.8465 S   0  0  0  0  0  0  0  0  0  0  0  0
   -2.2913   -0.7723    4.7147 C   0  0  0  0  0  0  0  0  0  0  0  0
   -3.5056   -1.6116    4.9057 C   0  0  0  0  0  0  0  0  0  0  0  0
   -4.7788   -0.7666    4.9412 C   0  0  0  0  0  0  0  0  0  0  0  0
   -1.4000   -0.8030    3.6848 C   0  0  0  0  0  0  0  0  0  0  0  0
   -1.4818   -1.9145    2.3743 Cl  0  0  0  0  0  0  0  0  0  0  0  0
   -0.3715    0.1731    3.7912 C   0  0  0  0  0  0  0  0  0  0  0  0
    0.9086    0.2864    2.6514 Cl  0  0  0  0  0  0  0  0  0  0  0  0
    0.9831    1.9819    6.6238 C   0  0  0  0  0  0  0  0  0  0  0  0
    1.9365    2.9264    7.0704 C   0  0  0  0  0  0  0  0  0  0  0  0
    2.3529    3.9570    6.2155 C   0  0  0  0  0  0  0  0  0  0  0  0
    3.3424    4.9419    6.6247 C   0  0  0  0  0  0  0  0  0  0  0  0
    4.9207    4.4741    7.1836 S   0  0  0  0  0  0  0  0  0  0  0  0
    5.4155    6.1168    7.4075 C   0  0  0  0  0  0  0  0  0  0  0  0
    6.7937    6.4592    7.8546 C   0  0  0  0  0  0  0  0  0  0  0  0
    7.7253    6.6453    6.6543 C   0  0  0  0  0  0  0  0  0  0  0  0
    4.4074    6.9656    7.0607 C   0  0  0  0  0  0  0  0  0  0  0  0
    3.2305    6.3042    6.6187 C   0  0  0  0  0  0  0  0  0  0  0  0
    1.7995    7.1509    6.2029 Cl  0  0  0  0  0  0  0  0  0  0  0  0
    4.5239    8.6746    7.1546 Cl  0  0  0  0  0  0  0  0  0  0  0  0
    1.7834    3.9940    4.9492 C   0  0  0  0  0  0  0  0  0  0  0  0
    2.2098    5.1118    3.6873 S   0  0  0  0  0  0  0  0  0  0  0  0
    2.3595    2.6555    8.4044 C   0  0  0  0  0  0  0  0  0  0  0  0
    1.7751    1.5575    8.9242 C   0  0  0  0  0  0  0  0  0  0  0  0
    0.6699    0.7839    7.8437 S   0  0  0  0  0  0  0  0  0  0  0  0
    3.5567   -6.1163   10.6687 H   0  0  0  0  0  0  0  0  0  0  0  0
    1.4544   -4.6225   10.3449 H   0  0  0  0  0  0  0  0  0  0  0  0
   -3.2066   -0.7696   10.6938 H   0  0  0  0  0  0  0  0  0  0  0  0
   -4.0799   -2.2784   10.3765 H   0  0  0  0  0  0  0  0  0  0  0  0
   -4.4477   -1.6079    8.0279 H   0  0  0  0  0  0  0  0  0  0  0  0
   -3.5186   -0.1257    8.2793 H   0  0  0  0  0  0  0  0  0  0  0  0
   -5.0609   -0.3572    9.1134 H   0  0  0  0  0  0  0  0  0  0  0  0
    4.2141   -8.7160    1.5290 H   0  0  0  0  0  0  0  0  0  0  0  0
    4.9125  -10.0886    2.4082 H   0  0  0  0  0  0  0  0  0  0  0  0
    6.6766   -8.5851    3.3357 H   0  0  0  0  0  0  0  0  0  0  0  0
    5.9686   -7.2163    2.4736 H   0  0  0  0  0  0  0  0  0  0  0  0
    6.6889   -8.5559    1.5705 H   0  0  0  0  0  0  0  0  0  0  0  0
    0.5100   -6.7505    3.5771 H   0  0  0  0  0  0  0  0  0  0  0  0
   -3.6302   -4.6786    3.8424 H   0  0  0  0  0  0  0  0  0  0  0  0
   -5.4277   -4.7223    0.5171 H   0  0  0  0  0  0  0  0  0  0  0  0
   -5.6336   -3.9284    3.4715 H   0  0  0  0  0  0  0  0  0  0  0  0
   -6.9391   -3.8891    2.1987 H   0  0  0  0  0  0  0  0  0  0  0  0
   -0.5688   -5.8468    1.2538 H   0  0  0  0  0  0  0  0  0  0  0  0
   -0.6977   -5.9518   -1.0058 H   0  0  0  0  0  0  0  0  0  0  0  0
    4.9023   -6.4462   -2.7480 H   0  0  0  0  0  0  0  0  0  0  0  0
    4.3500   -5.0506   -1.8027 H   0  0  0  0  0  0  0  0  0  0  0  0
    3.2389   -6.5782   -0.1819 H   0  0  0  0  0  0  0  0  0  0  0  0
    3.7851   -7.9752   -1.1207 H   0  0  0  0  0  0  0  0  0  0  0  0
    4.9650   -6.9343   -0.3131 H   0  0  0  0  0  0  0  0  0  0  0  0
   -7.7009   -0.5328   -4.7350 H   0  0  0  0  0  0  0  0  0  0  0  0
   -8.9832   -1.7506   -4.8643 H   0  0  0  0  0  0  0  0  0  0  0  0
   -7.0050   -0.9941   -7.0756 H   0  0  0  0  0  0  0  0  0  0  0  0
   -8.2678   -2.2227   -7.2183 H   0  0  0  0  0  0  0  0  0  0  0  0
   -8.7130   -0.5275   -7.0075 H   0  0  0  0  0  0  0  0  0  0  0  0
   -3.6656   -3.1076   -6.7956 H   0  0  0  0  0  0  0  0  0  0  0  0
    0.8609   -2.1488   -7.9004 H   0  0  0  0  0  0  0  0  0  0  0  0
    6.7868   -0.4304   -8.5394 H   0  0  0  0  0  0  0  0  0  0  0  0
    6.4134    0.9178   -7.4470 H   0  0  0  0  0  0  0  0  0  0  0  0
    7.3563   -0.9990   -6.1837 H   0  0  0  0  0  0  0  0  0  0  0  0
    5.6825   -0.7042   -5.6986 H   0  0  0  0  0  0  0  0  0  0  0  0
    6.0657   -2.0466   -6.7816 H   0  0  0  0  0  0  0  0  0  0  0  0
   -7.5266    1.2096   -8.4509 H   0  0  0  0  0  0  0  0  0  0  0  0
   -7.7122    2.9377   -8.8009 H   0  0  0  0  0  0  0  0  0  0  0  0
   -8.5271    2.3676   -6.5046 H   0  0  0  0  0  0  0  0  0  0  0  0
   -6.9150    1.7693   -6.0875 H   0  0  0  0  0  0  0  0  0  0  0  0
   -7.1601    3.4829   -6.4399 H   0  0  0  0  0  0  0  0  0  0  0  0
   -2.0140    3.9890   -7.1098 H   0  0  0  0  0  0  0  0  0  0  0  0
    2.2940    4.9996   -5.2152 H   0  0  0  0  0  0  0  0  0  0  0  0
    6.3458    7.6436   -5.0348 H   0  0  0  0  0  0  0  0  0  0  0  0
    7.5170    6.5490   -4.2737 H   0  0  0  0  0  0  0  0  0  0  0  0
    6.2745    9.0124   -2.9499 H   0  0  0  0  0  0  0  0  0  0  0  0
    7.9201    8.9062   -3.5857 H   0  0  0  0  0  0  0  0  0  0  0  0
    7.4449    7.9260   -2.1950 H   0  0  0  0  0  0  0  0  0  0  0  0
   -6.1487    3.1141   -1.9635 H   0  0  0  0  0  0  0  0  0  0  0  0
   -6.8594    4.5726   -1.2472 H   0  0  0  0  0  0  0  0  0  0  0  0
   -5.9056    4.2973   -4.1427 H   0  0  0  0  0  0  0  0  0  0  0  0
   -6.6392    5.7438   -3.4424 H   0  0  0  0  0  0  0  0  0  0  0  0
   -7.5939    4.2671   -3.6136 H   0  0  0  0  0  0  0  0  0  0  0  0
   -1.2034    4.6242    0.8854 H   0  0  0  0  0  0  0  0  0  0  0  0
   -0.4003    2.7981    2.6851 H   0  0  0  0  0  0  0  0  0  0  0  0
   -3.5516   -2.3150    4.0731 H   0  0  0  0  0  0  0  0  0  0  0  0
   -3.4122   -2.1759    5.8371 H   0  0  0  0  0  0  0  0  0  0  0  0
   -5.6476   -1.4021    5.0908 H   0  0  0  0  0  0  0  0  0  0  0  0
   -4.9004   -0.2293    4.0039 H   0  0  0  0  0  0  0  0  0  0  0  0
   -4.7320   -0.0450    5.7525 H   0  0  0  0  0  0  0  0  0  0  0  0
    7.1764    5.6621    8.4939 H   0  0  0  0  0  0  0  0  0  0  0  0
    6.7555    7.3851    8.4319 H   0  0  0  0  0  0  0  0  0  0  0  0
    7.3596    7.4448    6.0152 H   0  0  0  0  0  0  0  0  0  0  0  0
    7.7766    5.7296    6.0703 H   0  0  0  0  0  0  0  0  0  0  0  0
    8.7255    6.8999    6.9943 H   0  0  0  0  0  0  0  0  0  0  0  0
    3.0684    3.2627    8.9364 H   0  0  0  0  0  0  0  0  0  0  0  0
    1.9181    1.1349    9.8992 H   0  0  0  0  0  0  0  0  0  0  0  0
  1  2  2  0  0  0  0
  2  3  1  0  0  0  0
  3  4  2  0  0  0  0
  4  5  1  0  0  0  0
  5  6  1  0  0  0  0
  6  7  1  0  0  0  0
  7  8  1  0  0  0  0
  8  9  1  0  0  0  0
  7 10  2  0  0  0  0
 10 11  1  0  0  0  0
 10 12  1  0  0  0  0
 12 13  1  0  0  0  0
  4 14  1  0  0  0  0
 14 15  2  0  0  0  0
 15 16  1  0  0  0  0
 16 17  1  0  0  0  0
 17 18  1  0  0  0  0
 18 19  1  0  0  0  0
 19 20  1  0  0  0  0
 20 21  1  0  0  0  0
 19 22  2  0  0  0  0
 22 23  1  0  0  0  0
 23 24  1  0  0  0  0
 22 25  1  0  0  0  0
 16 26  2  0  0  0  0
 26 27  1  0  0  0  0
 15 28  1  0  0  0  0
 28 29  2  0  0  0  0
 29 30  1  0  0  0  0
 29 31  1  0  0  0  0
 31 32  1  0  0  0  0
 32 33  1  0  0  0  0
 33 34  1  0  0  0  0
 34 35  2  0  0  0  0
 33 36  2  0  0  0  0
 36 37  1  0  0  0  0
 36 38  1  0  0  0  0
 38 39  2  0  0  0  0
 39 40  1  0  0  0  0
 40 41  2  0  0  0  0
 41 42  1  0  0  0  0
 42 43  1  0  0  0  0
 43 44  1  0  0  0  0
 44 45  1  0  0  0  0
 45 46  1  0  0  0  0
 44 47  2  0  0  0  0
 47 48  1  0  0  0  0
 47 49  1  0  0  0  0
 49 50  1  0  0  0  0
 41 51  1  0  0  0  0
 51 52  2  0  0  0  0
 52 53  1  0  0  0  0
 53 54  1  0  0  0  0
 54 55  1  0  0  0  0
 55 56  1  0  0  0  0
 56 57  1  0  0  0  0
 57 58  1  0  0  0  0
 56 59  2  0  0  0  0
 59 60  1  0  0  0  0
 60 61  1  0  0  0  0
 59 62  1  0  0  0  0
 53 63  2  0  0  0  0
 63 64  1  0  0  0  0
 52 65  1  0  0  0  0
 65 66  2  0  0  0  0
 66 67  1  0  0  0  0
 66 68  1  0  0  0  0
 68 69  2  0  0  0  0
 69 70  1  0  0  0  0
 70 71  2  0  0  0  0
 71 72  1  0  0  0  0
 72 73  1  0  0  0  0
 73 74  1  0  0  0  0
 74 75  1  0  0  0  0
 75 76  1  0  0  0  0
 74 77  2  0  0  0  0
 77 78  1  0  0  0  0
 77 79  1  0  0  0  0
 79 80  1  0  0  0  0
 71 81  1  0  0  0  0
 81 82  2  0  0  0  0
 82 83  1  0  0  0  0
 83 84  1  0  0  0  0
 84 85  1  0  0  0  0
 85 86  1  0  0  0  0
 86 87  1  0  0  0  0
 87 88  1  0  0  0  0
 86 89  2  0  0  0  0
 89 90  1  0  0  0  0
 90 91  1  0  0  0  0
 89 92  1  0  0  0  0
 83 93  2  0  0  0  0
 93 94  1  0  0  0  0
 82 95  1  0  0  0  0
 95 96  2  0  0  0  0
 96 97  1  0  0  0  0
 96 98  1  0  0  0  0
 98 99  2  0  0  0  0
 99100  1  0  0  0  0
100101  2  0  0  0  0
101102  1  0  0  0  0
102103  1  0  0  0  0
103104  1  0  0  0  0
104105  1  0  0  0  0
105106  1  0  0  0  0
104107  2  0  0  0  0
107108  1  0  0  0  0
107109  1  0  0  0  0
109110  1  0  0  0  0
101111  1  0  0  0  0
111112  2  0  0  0  0
112113  1  0  0  0  0
113114  1  0  0  0  0
114115  1  0  0  0  0
115116  1  0  0  0  0
116117  1  0  0  0  0
117118  1  0  0  0  0
116119  2  0  0  0  0
119120  1  0  0  0  0
120121  1  0  0  0  0
119122  1  0  0  0  0
113123  2  0  0  0  0
123124  1  0  0  0  0
112125  1  0  0  0  0
125126  2  0  0  0  0
126127  1  0  0  0  0
126128  1  0  0  0  0
128129  2  0  0  0  0
129130  1  0  0  0  0
130131  2  0  0  0  0
131132  1  0  0  0  0
132133  1  0  0  0  0
133134  1  0  0  0  0
134135  1  0  0  0  0
135136  1  0  0  0  0
134137  2  0  0  0  0
137138  1  0  0  0  0
137139  1  0  0  0  0
139140  1  0  0  0  0
131141  1  0  0  0  0
141142  2  0  0  0  0
142143  1  0  0  0  0
143144  1  0  0  0  0
144145  1  0  0  0  0
145146  1  0  0  0  0
146147  1  0  0  0  0
147148  1  0  0  0  0
146149  2  0  0  0  0
149150  1  0  0  0  0
150151  1  0  0  0  0
149152  1  0  0  0  0
143153  2  0  0  0  0
153154  1  0  0  0  0
142155  1  0  0  0  0
155156  2  0  0  0  0
156157  1  0  0  0  0
 27  1  1  0  0  0  0
 37 31  2  0  0  0  0
 64 38  1  0  0  0  0
 94 68  1  0  0  0  0
124 98  1  0  0  0  0
154128  1  0  0  0  0
 26  3  1  0  0  0  0
 63 40  1  0  0  0  0
 93 70  1  0  0  0  0
123100  1  0  0  0  0
153130  1  0  0  0  0
 12  5  2  0  0  0  0
 30 14  1  0  0  0  0
 49 42  2  0  0  0  0
 67 51  1  0  0  0  0
 79 72  2  0  0  0  0
 97 81  1  0  0  0  0
109102  2  0  0  0  0
127111  1  0  0  0  0
139132  2  0  0  0  0
157141  1  0  0  0  0
 23 17  2  0  0  0  0
 60 54  2  0  0  0  0
 90 84  2  0  0  0  0
120114  2  0  0  0  0
150144  2  0  0  0  0
  1158  1  0  0  0  0
  2159  1  0  0  0  0
  8160  1  0  0  0  0
  8161  1  0  0  0  0
  9162  1  0  0  0  0
  9163  1  0  0  0  0
  9164  1  0  0  0  0
 20165  1  0  0  0  0
 20166  1  0  0  0  0
 21167  1  0  0  0  0
 21168  1  0  0  0  0
 21169  1  0  0  0  0
 28170  1  0  0  0  0
 32171  1  0  0  0  0
 34172  1  0  0  0  0
 35173  1  0  0  0  0
 35174  1  0  0  0  0
 37175  1  0  0  0  0
 39176  1  0  0  0  0
 45177  1  0  0  0  0
 45178  1  0  0  0  0
 46179  1  0  0  0  0
 46180  1  0  0  0  0
 46181  1  0  0  0  0
 57182  1  0  0  0  0
 57183  1  0  0  0  0
 58184  1  0  0  0  0
 58185  1  0  0  0  0
 58186  1  0  0  0  0
 65187  1  0  0  0  0
 69188  1  0  0  0  0
 75189  1  0  0  0  0
 75190  1  0  0  0  0
 76191  1  0  0  0  0
 76192  1  0  0  0  0
 76193  1  0  0  0  0
 87194  1  0  0  0  0
 87195  1  0  0  0  0
 88196  1  0  0  0  0
 88197  1  0  0  0  0
 88198  1  0  0  0  0
 95199  1  0  0  0  0
 99200  1  0  0  0  0
105201  1  0  0  0  0
105202  1  0  0  0  0
106203  1  0  0  0  0
106204  1  0  0  0  0
106205  1  0  0  0  0
117206  1  0  0  0  0
117207  1  0  0  0  0
118208  1  0  0  0  0
118209  1  0  0  0  0
118210  1  0  0  0  0
125211  1  0  0  0  0
129212  1  0  0  0  0
135213  1  0  0  0  0
135214  1  0  0  0  0
136215  1  0  0  0  0
136216  1  0  0  0  0
136217  1  0  0  0  0
147218  1  0  0  0  0
147219  1  0  0  0  0
148220  1  0  0  0  0
148221  1  0  0  0  0
148222  1  0  0  0  0
155223  1  0  0  0  0
156224  1  0  0  0  0
M  END
