104

C          0.71140        0.22130        5.45920
S          0.69960        1.20180        4.04930
C          2.42580        1.02280        3.86940
C          2.94580        0.23540        4.86150
C          1.95510       -0.22280        5.77660
C          2.28320       -1.05800        6.97590
C          3.63700       -1.74170        6.81320
C          4.69250       -0.72400        6.38040
N          6.01430       -1.31150        6.50590
C          4.36460       -0.23780        4.95780
C          3.09130        1.73160        2.78190
C          2.70120        1.62590        1.49970
C          3.31960        2.46800        0.40360
C          4.73770        2.74170        0.73940
C          5.14770        2.86100        2.09240
C          4.15610        2.73220        3.18610
N          6.43790        3.05780        2.22100
S          7.10930        3.10450        0.73490
N          5.73480        2.85490       -0.10510
C          1.64150        0.72760        1.07160
S          0.30860        1.37240        0.14860
C         -0.46900       -0.18900        0.08570
C          0.29430       -1.13450        0.71270
C          1.48710       -0.61410        1.27330
C          2.41430       -1.53970        1.98610
C          2.58780       -2.88060        1.24480
C          1.44450       -3.22850        0.26360
N          1.26490       -4.65540        0.06260
C          0.11310       -2.61330        0.71950
C         -1.76120       -0.32170       -0.53140
S         -2.05850        0.35570       -2.10600
C         -3.71650       -0.16760       -2.06230
C         -4.00590       -0.80780       -0.88700
C         -2.89210       -0.90210       -0.01590
C         -2.99550       -1.53240        1.33710
C         -4.45390       -1.61880        1.77470
C         -5.28060       -2.29350        0.67980
N         -6.63770       -2.51680        1.15780
C         -5.34890       -1.36910       -0.53790
C         -4.60410        0.12870       -3.18130
C         -4.27750       -0.18840       -4.44410
C         -5.16880        0.15100       -5.61720
C         -5.93430        1.38530       -5.31850
C         -6.27460        1.72800       -3.98530
C         -5.88380        0.86370       -2.84380
N         -6.92910        2.86230       -3.90320
S         -7.11570        3.47080       -5.40280
N         -6.34290        2.27340       -6.19350
C         -3.06370       -0.93900       -4.75470
S         -2.83320       -2.53600       -4.09620
C         -1.30210       -2.66400       -4.86670
C         -0.98450       -1.55400       -5.58260
C         -2.00290       -0.56240       -5.52780
C         -1.86600        0.75600       -6.22470
C         -0.40070        1.03780       -6.54230
C          0.21590       -0.15260       -7.27830
N          1.49410        0.23580       -7.84870
C          0.30630       -1.34630       -6.31160
H         -0.20830        0.03530        5.97770
H          2.31310       -0.40720        7.85580
H          1.49640       -1.79650        7.14450
H          3.94480       -2.19880        7.75360
H          3.56930       -2.52970        6.05890
H          4.66060        0.13210        7.06570
H          6.72960       -0.64380        6.23920
H          6.10030       -2.11830        5.89580
H          5.06900        0.53950        4.65580
H          4.50190       -1.07830        4.26510
H          3.24330        1.96670       -0.56220
H          2.77080        3.41470        0.32640
H          4.63570        2.46900        4.12720
H          3.66580        3.70300        3.33680
H          3.38320       -1.05890        2.12810
H          1.99400       -1.73040        2.97890
H          2.66270       -3.68070        1.98750
H          3.52710       -2.86790        0.68780
H          1.67990       -2.80350       -0.71990
H          2.11450       -5.07550       -0.29750
H          1.04150       -5.11000        0.94260
H         -0.12900       -2.97210        1.72400
H         -0.67350       -2.92110        0.03210
H         -2.40350       -0.96120        2.05630
H         -2.57940       -2.54330        1.30110
H         -4.52850       -2.18950        2.70240
H         -4.85970       -0.62330        1.95830
H         -4.77180       -3.23270        0.38840
H         -6.63410       -3.13210        1.96410
H         -7.19910       -2.95550        0.43570
H         -5.76010       -1.90670       -1.39660
H         -6.03840       -0.55730       -0.28930
H         -4.58920        0.26900       -6.53220
H         -5.86800       -0.67910       -5.78050
H         -5.76000        1.46300       -1.94080
H         -6.68580        0.14060       -2.65540
H         -0.72430       -3.55750       -4.73560
H         -2.28460        1.55060       -5.60310
H         -2.43140        0.73500       -7.16250
H         -0.31530        1.92700       -7.16710
H          0.15060        1.21550       -5.61620
H         -0.43440       -0.42380       -8.11960
H          1.91900       -0.54510       -8.33710
H          2.13150        0.52640       -7.11380
H          1.09630       -1.14450       -5.57790
H          0.58540       -2.25650       -6.85030
