
  xtb     03022223483D
 energy: -451.363118257980 gnorm: 0.000341554534 xtb: 6.4.1 (unknown)
231256  0     0  0            999 V2000
   -7.3591  -15.0341   10.3705 C   0  0  0  0  0  0  0  0  0  0  0  0
   -6.5729  -15.1317    9.2795 C   0  0  0  0  0  0  0  0  0  0  0  0
   -6.6100  -13.9622    8.4655 C   0  0  0  0  0  0  0  0  0  0  0  0
   -5.8873  -13.6950    7.2932 C   0  0  0  0  0  0  0  0  0  0  0  0
   -4.8992  -14.6293    6.7776 C   0  0  0  0  0  0  0  0  0  0  0  0
   -4.9512  -15.1900    5.1336 S   0  0  0  0  0  0  0  0  0  0  0  0
   -3.5300  -16.1555    5.3368 C   0  0  0  0  0  0  0  0  0  0  0  0
   -2.9518  -16.9232    4.1999 C   0  0  0  0  0  0  0  0  0  0  0  0
   -2.0736  -16.0229    3.3274 C   0  0  0  0  0  0  0  0  0  0  0  0
   -3.0479  -16.0296    6.6055 C   0  0  0  0  0  0  0  0  0  0  0  0
   -1.6410  -16.8275    7.1796 Cl  0  0  0  0  0  0  0  0  0  0  0  0
   -3.8247  -15.1697    7.4274 C   0  0  0  0  0  0  0  0  0  0  0  0
   -3.3915  -14.7971    9.0461 Cl  0  0  0  0  0  0  0  0  0  0  0  0
   -6.1332  -12.4827    6.6620 C   0  0  0  0  0  0  0  0  0  0  0  0
   -7.0404  -11.5217    7.1689 C   0  0  0  0  0  0  0  0  0  0  0  0
   -7.7377  -11.7725    8.3631 C   0  0  0  0  0  0  0  0  0  0  0  0
   -8.6269  -10.7730    8.9323 C   0  0  0  0  0  0  0  0  0  0  0  0
   -8.0611   -9.1544    9.2324 S   0  0  0  0  0  0  0  0  0  0  0  0
   -9.5870   -8.6544    9.8767 C   0  0  0  0  0  0  0  0  0  0  0  0
   -9.8168   -7.2450   10.2977 C   0  0  0  0  0  0  0  0  0  0  0  0
  -10.1082   -6.3585    9.0842 C   0  0  0  0  0  0  0  0  0  0  0  0
  -10.4735   -9.6887    9.8480 C   0  0  0  0  0  0  0  0  0  0  0  0
   -9.9319  -10.8929    9.3204 C   0  0  0  0  0  0  0  0  0  0  0  0
  -10.8745  -12.3089    9.1168 Cl  0  0  0  0  0  0  0  0  0  0  0  0
  -12.0964   -9.5740   10.3935 Cl  0  0  0  0  0  0  0  0  0  0  0  0
   -7.5067  -12.9950    8.9827 C   0  0  0  0  0  0  0  0  0  0  0  0
   -8.2107  -13.5337   10.4801 S   0  0  0  0  0  0  0  0  0  0  0  0
   -7.1068  -10.3724    6.3433 C   0  0  0  0  0  0  0  0  0  0  0  0
   -6.2658  -10.4244    5.2704 C   0  0  0  0  0  0  0  0  0  0  0  0
   -5.3545  -11.9173    5.2126 S   0  0  0  0  0  0  0  0  0  0  0  0
   -6.0622   -9.4074    4.2881 C   0  0  0  0  0  0  0  0  0  0  0  0
   -6.8038   -8.2765    4.1025 C   0  0  0  0  0  0  0  0  0  0  0  0
   -6.2928   -7.4225    3.0956 C   0  0  0  0  0  0  0  0  0  0  0  0
   -6.8106   -6.1904    2.6525 C   0  0  0  0  0  0  0  0  0  0  0  0
   -8.0308   -5.6268    3.2039 C   0  0  0  0  0  0  0  0  0  0  0  0
   -8.2685   -5.4508    4.9196 S   0  0  0  0  0  0  0  0  0  0  0  0
   -9.8184   -4.7038    4.7130 C   0  0  0  0  0  0  0  0  0  0  0  0
  -10.6178   -4.2489    5.8834 C   0  0  0  0  0  0  0  0  0  0  0  0
   -9.8962   -3.1498    6.6635 C   0  0  0  0  0  0  0  0  0  0  0  0
  -10.1195   -4.6071    3.3881 C   0  0  0  0  0  0  0  0  0  0  0  0
  -11.5735   -3.9296    2.7788 Cl  0  0  0  0  0  0  0  0  0  0  0  0
   -9.1128   -5.1296    2.5308 C   0  0  0  0  0  0  0  0  0  0  0  0
   -9.3111   -5.1987    0.8305 Cl  0  0  0  0  0  0  0  0  0  0  0  0
   -6.0834   -5.5173    1.6769 C   0  0  0  0  0  0  0  0  0  0  0  0
   -4.8962   -6.0422    1.1096 C   0  0  0  0  0  0  0  0  0  0  0  0
   -4.4247   -7.3106    1.4922 C   0  0  0  0  0  0  0  0  0  0  0  0
   -3.2469   -7.8772    0.8603 C   0  0  0  0  0  0  0  0  0  0  0  0
   -1.9062   -8.4809    1.7878 S   0  0  0  0  0  0  0  0  0  0  0  0
   -0.9981   -8.8681    0.3677 C   0  0  0  0  0  0  0  0  0  0  0  0
    0.3878   -9.4063    0.4512 C   0  0  0  0  0  0  0  0  0  0  0  0
    1.4172   -8.2825    0.3056 C   0  0  0  0  0  0  0  0  0  0  0  0
   -1.7062   -8.5461   -0.7522 C   0  0  0  0  0  0  0  0  0  0  0  0
   -2.9827   -7.9891   -0.4784 C   0  0  0  0  0  0  0  0  0  0  0  0
   -4.0948   -7.5781   -1.7212 Cl  0  0  0  0  0  0  0  0  0  0  0  0
   -1.1253   -8.7826   -2.3499 Cl  0  0  0  0  0  0  0  0  0  0  0  0
   -5.1216   -7.9572    2.5018 C   0  0  0  0  0  0  0  0  0  0  0  0
   -4.7026   -9.4972    3.1915 S   0  0  0  0  0  0  0  0  0  0  0  0
   -4.2712   -5.1212    0.2398 C   0  0  0  0  0  0  0  0  0  0  0  0
   -4.9452   -3.9398    0.1187 C   0  0  0  0  0  0  0  0  0  0  0  0
   -6.4066   -3.9150    1.0773 S   0  0  0  0  0  0  0  0  0  0  0  0
   -4.5183   -2.8082   -0.6395 C   0  0  0  0  0  0  0  0  0  0  0  0
   -3.3798   -2.7330   -1.3905 C   0  0  0  0  0  0  0  0  0  0  0  0
   -3.1480   -1.4524   -1.9399 C   0  0  0  0  0  0  0  0  0  0  0  0
   -2.0252   -1.0175   -2.6668 C   0  0  0  0  0  0  0  0  0  0  0  0
   -0.9328   -1.9178   -2.9959 C   0  0  0  0  0  0  0  0  0  0  0  0
   -0.1665   -2.9043   -1.7831 S   0  0  0  0  0  0  0  0  0  0  0  0
    0.9457   -3.5853   -2.9190 C   0  0  0  0  0  0  0  0  0  0  0  0
    1.9900   -4.5588   -2.4957 C   0  0  0  0  0  0  0  0  0  0  0  0
    3.3072   -3.8464   -2.1794 C   0  0  0  0  0  0  0  0  0  0  0  0
    0.7322   -3.0617   -4.1588 C   0  0  0  0  0  0  0  0  0  0  0  0
    1.6447   -3.4943   -5.5457 Cl  0  0  0  0  0  0  0  0  0  0  0  0
   -0.3319   -2.1213   -4.2083 C   0  0  0  0  0  0  0  0  0  0  0  0
   -0.8470   -1.4038   -5.6765 Cl  0  0  0  0  0  0  0  0  0  0  0  0
   -1.9864    0.3276   -3.0083 C   0  0  0  0  0  0  0  0  0  0  0  0
   -3.0365    1.2330   -2.7112 C   0  0  0  0  0  0  0  0  0  0  0  0
   -4.1827    0.7836   -2.0307 C   0  0  0  0  0  0  0  0  0  0  0  0
   -5.2808    1.6817   -1.7156 C   0  0  0  0  0  0  0  0  0  0  0  0
   -5.0134    3.2011   -0.9112 S   0  0  0  0  0  0  0  0  0  0  0  0
   -6.6991    3.5896   -0.9073 C   0  0  0  0  0  0  0  0  0  0  0  0
   -7.1868    4.8920   -0.3766 C   0  0  0  0  0  0  0  0  0  0  0  0
   -7.0414    5.9964   -1.4268 C   0  0  0  0  0  0  0  0  0  0  0  0
   -7.4141    2.5943   -1.5034 C   0  0  0  0  0  0  0  0  0  0  0  0
   -6.6165    1.5081   -1.9551 C   0  0  0  0  0  0  0  0  0  0  0  0
   -7.2826    0.1716   -2.7949 Cl  0  0  0  0  0  0  0  0  0  0  0  0
   -9.1182    2.6254   -1.6984 Cl  0  0  0  0  0  0  0  0  0  0  0  0
   -4.1959   -0.5483   -1.6339 C   0  0  0  0  0  0  0  0  0  0  0  0
   -5.4053   -1.3026   -0.6350 S   0  0  0  0  0  0  0  0  0  0  0  0
   -2.7269    2.5502   -3.1300 C   0  0  0  0  0  0  0  0  0  0  0  0
   -1.4791    2.6718   -3.6652 C   0  0  0  0  0  0  0  0  0  0  0  0
   -0.6360    1.1397   -3.7428 S   0  0  0  0  0  0  0  0  0  0  0  0
   -0.8081    3.8638   -4.0627 C   0  0  0  0  0  0  0  0  0  0  0  0
    0.4945    3.9776   -4.4487 C   0  0  0  0  0  0  0  0  0  0  0  0
    0.9103    5.3146   -4.6513 C   0  0  0  0  0  0  0  0  0  0  0  0
    2.2014    5.7868   -4.9477 C   0  0  0  0  0  0  0  0  0  0  0  0
    3.3313    4.8817   -5.0725 C   0  0  0  0  0  0  0  0  0  0  0  0
    3.6305    3.6669   -3.8611 S   0  0  0  0  0  0  0  0  0  0  0  0
    5.0672    3.1134   -4.6452 C   0  0  0  0  0  0  0  0  0  0  0  0
    5.8216    1.9391   -4.1298 C   0  0  0  0  0  0  0  0  0  0  0  0
    5.3200    0.6470   -4.7803 C   0  0  0  0  0  0  0  0  0  0  0  0
    5.2936    3.8374   -5.7772 C   0  0  0  0  0  0  0  0  0  0  0  0
    6.6355    3.5896   -6.8150 Cl  0  0  0  0  0  0  0  0  0  0  0  0
    4.3153    4.8375   -6.0228 C   0  0  0  0  0  0  0  0  0  0  0  0
    4.3346    5.7875   -7.4472 Cl  0  0  0  0  0  0  0  0  0  0  0  0
    2.3588    7.1651   -5.0289 C   0  0  0  0  0  0  0  0  0  0  0  0
    1.2936    8.0825   -4.8501 C   0  0  0  0  0  0  0  0  0  0  0  0
    0.0003    7.6072   -4.5730 C   0  0  0  0  0  0  0  0  0  0  0  0
   -1.1187    8.5073   -4.3489 C   0  0  0  0  0  0  0  0  0  0  0  0
   -1.0398    9.7766   -3.1619 S   0  0  0  0  0  0  0  0  0  0  0  0
   -2.6701   10.2695   -3.4638 C   0  0  0  0  0  0  0  0  0  0  0  0
   -3.3102   11.3614   -2.6799 C   0  0  0  0  0  0  0  0  0  0  0  0
   -4.0412   10.7975   -1.4588 C   0  0  0  0  0  0  0  0  0  0  0  0
   -3.2303    9.4861   -4.4281 C   0  0  0  0  0  0  0  0  0  0  0  0
   -2.3546    8.4886   -4.9342 C   0  0  0  0  0  0  0  0  0  0  0  0
   -2.8023    7.4360   -6.2104 Cl  0  0  0  0  0  0  0  0  0  0  0  0
   -4.8384    9.6749   -4.9957 Cl  0  0  0  0  0  0  0  0  0  0  0  0
   -0.1549    6.2306   -4.4651 C   0  0  0  0  0  0  0  0  0  0  0  0
   -1.6167    5.4137   -3.9886 S   0  0  0  0  0  0  0  0  0  0  0  0
    1.7328    9.4263   -4.9518 C   0  0  0  0  0  0  0  0  0  0  0  0
    3.0753    9.5443   -5.1605 C   0  0  0  0  0  0  0  0  0  0  0  0
    3.8694    7.9871   -5.2679 S   0  0  0  0  0  0  0  0  0  0  0  0
    3.8636   10.7310   -5.2266 C   0  0  0  0  0  0  0  0  0  0  0  0
    3.2208   12.2906   -4.8195 S   0  0  0  0  0  0  0  0  0  0  0  0
    4.7696   13.0172   -4.9969 C   0  0  0  0  0  0  0  0  0  0  0  0
    5.7259   12.1250   -5.3596 C   0  0  0  0  0  0  0  0  0  0  0  0
    5.2144   10.8149   -5.5090 C   0  0  0  0  0  0  0  0  0  0  0  0
    5.9554    9.6957   -5.9221 N   0  0  0  0  0  0  0  0  0  0  0  0
    5.8323    9.2898   -7.3096 C   0  0  0  0  0  0  0  0  0  0  0  0
    6.9015    9.9467   -8.1796 C   0  0  0  0  0  0  0  0  0  0  0  0
    6.9148    9.1907   -5.1013 C   0  0  0  0  0  0  0  0  0  0  0  0
    7.6688    8.0957   -5.3249 C   0  0  0  0  0  0  0  0  0  0  0  0
    8.5913    7.5755   -4.3734 C   0  0  0  0  0  0  0  0  0  0  0  0
    9.2517    6.3828   -4.4465 C   0  0  0  0  0  0  0  0  0  0  0  0
   10.0977    6.1230   -3.3413 C   0  0  0  0  0  0  0  0  0  0  0  0
   10.8774    4.9829   -3.0904 C   0  0  0  0  0  0  0  0  0  0  0  0
   10.8478    3.8402   -3.9877 C   0  0  0  0  0  0  0  0  0  0  0  0
    9.3390    3.0779   -4.3947 S   0  0  0  0  0  0  0  0  0  0  0  0
   10.1109    1.8787   -5.3763 C   0  0  0  0  0  0  0  0  0  0  0  0
    9.3290    0.7967   -6.0358 C   0  0  0  0  0  0  0  0  0  0  0  0
    9.1253   -0.3866   -5.0868 C   0  0  0  0  0  0  0  0  0  0  0  0
   11.4595    2.0700   -5.3727 C   0  0  0  0  0  0  0  0  0  0  0  0
   12.5657    1.0802   -6.2338 Cl  0  0  0  0  0  0  0  0  0  0  0  0
   11.8804    3.1809   -4.5913 C   0  0  0  0  0  0  0  0  0  0  0  0
   13.5206    3.6702   -4.4987 Cl  0  0  0  0  0  0  0  0  0  0  0  0
   11.6336    4.9743   -1.9229 C   0  0  0  0  0  0  0  0  0  0  0  0
   11.6438    6.0496   -1.0058 C   0  0  0  0  0  0  0  0  0  0  0  0
   10.8653    7.1916   -1.2572 C   0  0  0  0  0  0  0  0  0  0  0  0
   10.8410    8.3140   -0.3310 C   0  0  0  0  0  0  0  0  0  0  0  0
   10.4017    8.1036    1.3386 S   0  0  0  0  0  0  0  0  0  0  0  0
   10.5874    9.7894    1.6839 C   0  0  0  0  0  0  0  0  0  0  0  0
   10.2975   10.3420    3.0360 C   0  0  0  0  0  0  0  0  0  0  0  0
    8.8364   10.7846    3.1448 C   0  0  0  0  0  0  0  0  0  0  0  0
   10.9592   10.4623    0.5592 C   0  0  0  0  0  0  0  0  0  0  0  0
   11.1069    9.6302   -0.5831 C   0  0  0  0  0  0  0  0  0  0  0  0
   11.6443   10.2306   -2.0953 Cl  0  0  0  0  0  0  0  0  0  0  0  0
   11.2429   12.1541    0.5108 Cl  0  0  0  0  0  0  0  0  0  0  0  0
   10.1055    7.1974   -2.4174 C   0  0  0  0  0  0  0  0  0  0  0  0
    9.0103    8.4575   -2.9132 S   0  0  0  0  0  0  0  0  0  0  0  0
   12.4955    5.7848    0.1062 C   0  0  0  0  0  0  0  0  0  0  0  0
   13.0696    4.5662    0.0474 C   0  0  0  0  0  0  0  0  0  0  0  0
   12.6316    3.6629   -1.3612 S   0  0  0  0  0  0  0  0  0  0  0  0
   -7.5101  -15.7645   11.1412 H   0  0  0  0  0  0  0  0  0  0  0  0
   -5.9874  -16.0003    9.0414 H   0  0  0  0  0  0  0  0  0  0  0  0
   -3.7590  -17.3390    3.5945 H   0  0  0  0  0  0  0  0  0  0  0  0
   -2.3536  -17.7442    4.5990 H   0  0  0  0  0  0  0  0  0  0  0  0
   -1.2571  -15.6103    3.9146 H   0  0  0  0  0  0  0  0  0  0  0  0
   -2.6604  -15.2016    2.9231 H   0  0  0  0  0  0  0  0  0  0  0  0
   -1.6563  -16.5949    2.5032 H   0  0  0  0  0  0  0  0  0  0  0  0
   -8.9326   -6.8702   10.8160 H   0  0  0  0  0  0  0  0  0  0  0  0
  -10.6643   -7.2186   10.9845 H   0  0  0  0  0  0  0  0  0  0  0  0
   -9.2658   -6.3735    8.3958 H   0  0  0  0  0  0  0  0  0  0  0  0
  -10.9935   -6.7192    8.5655 H   0  0  0  0  0  0  0  0  0  0  0  0
  -10.2819   -5.3344    9.4031 H   0  0  0  0  0  0  0  0  0  0  0  0
   -7.7448   -9.5332    6.5461 H   0  0  0  0  0  0  0  0  0  0  0  0
   -7.6900   -8.0601    4.6684 H   0  0  0  0  0  0  0  0  0  0  0  0
  -10.8044   -5.0958    6.5475 H   0  0  0  0  0  0  0  0  0  0  0  0
  -11.5769   -3.8786    5.5184 H   0  0  0  0  0  0  0  0  0  0  0  0
   -8.9438   -3.5167    7.0389 H   0  0  0  0  0  0  0  0  0  0  0  0
  -10.5045   -2.8293    7.5049 H   0  0  0  0  0  0  0  0  0  0  0  0
   -9.7096   -2.2917    6.0229 H   0  0  0  0  0  0  0  0  0  0  0  0
    0.5229   -9.9070    1.4105 H   0  0  0  0  0  0  0  0  0  0  0  0
    0.5334  -10.1350   -0.3491 H   0  0  0  0  0  0  0  0  0  0  0  0
    1.2847   -7.5443    1.0929 H   0  0  0  0  0  0  0  0  0  0  0  0
    2.4233   -8.6874    0.3715 H   0  0  0  0  0  0  0  0  0  0  0  0
    1.3016   -7.7913   -0.6572 H   0  0  0  0  0  0  0  0  0  0  0  0
   -3.3347   -5.3155   -0.2466 H   0  0  0  0  0  0  0  0  0  0  0  0
   -2.7175   -3.5648   -1.5335 H   0  0  0  0  0  0  0  0  0  0  0  0
    2.1503   -5.2757   -3.3038 H   0  0  0  0  0  0  0  0  0  0  0  0
    1.6440   -5.0972   -1.6119 H   0  0  0  0  0  0  0  0  0  0  0  0
    4.0584   -4.5702   -1.8752 H   0  0  0  0  0  0  0  0  0  0  0  0
    3.1653   -3.1298   -1.3740 H   0  0  0  0  0  0  0  0  0  0  0  0
    3.6677   -3.3165   -3.0572 H   0  0  0  0  0  0  0  0  0  0  0  0
   -8.2370    4.7854   -0.0993 H   0  0  0  0  0  0  0  0  0  0  0  0
   -6.6139    5.1598    0.5130 H   0  0  0  0  0  0  0  0  0  0  0  0
   -7.4013    6.9408   -1.0273 H   0  0  0  0  0  0  0  0  0  0  0  0
   -5.9982    6.1120   -1.7120 H   0  0  0  0  0  0  0  0  0  0  0  0
   -7.6195    5.7508   -2.3140 H   0  0  0  0  0  0  0  0  0  0  0  0
   -3.3880    3.3900   -3.0188 H   0  0  0  0  0  0  0  0  0  0  0  0
    1.1350    3.1223   -4.5623 H   0  0  0  0  0  0  0  0  0  0  0  0
    6.8814    2.0772   -4.3509 H   0  0  0  0  0  0  0  0  0  0  0  0
    5.6969    1.8761   -3.0481 H   0  0  0  0  0  0  0  0  0  0  0  0
    4.2650    0.4978   -4.5623 H   0  0  0  0  0  0  0  0  0  0  0  0
    5.4473    0.6927   -5.8589 H   0  0  0  0  0  0  0  0  0  0  0  0
    5.8779   -0.2039   -4.3995 H   0  0  0  0  0  0  0  0  0  0  0  0
   -2.5466   12.0695   -2.3546 H   0  0  0  0  0  0  0  0  0  0  0  0
   -4.0236   11.8833   -3.3208 H   0  0  0  0  0  0  0  0  0  0  0  0
   -4.8127   10.0991   -1.7726 H   0  0  0  0  0  0  0  0  0  0  0  0
   -4.5068   11.6032   -0.8980 H   0  0  0  0  0  0  0  0  0  0  0  0
   -3.3433   10.2758   -0.8082 H   0  0  0  0  0  0  0  0  0  0  0  0
    1.0822   10.2778   -4.8675 H   0  0  0  0  0  0  0  0  0  0  0  0
    4.8734   14.0705   -4.8302 H   0  0  0  0  0  0  0  0  0  0  0  0
    6.7584   12.3760   -5.5228 H   0  0  0  0  0  0  0  0  0  0  0  0
    4.8384    9.5798   -7.6585 H   0  0  0  0  0  0  0  0  0  0  0  0
    5.9083    8.2028   -7.3713 H   0  0  0  0  0  0  0  0  0  0  0  0
    6.8019   11.0297   -8.1512 H   0  0  0  0  0  0  0  0  0  0  0  0
    7.8929    9.6784   -7.8233 H   0  0  0  0  0  0  0  0  0  0  0  0
    6.7978    9.6152   -9.2091 H   0  0  0  0  0  0  0  0  0  0  0  0
    7.0069    9.7116   -4.1560 H   0  0  0  0  0  0  0  0  0  0  0  0
    7.5780    7.5225   -6.2346 H   0  0  0  0  0  0  0  0  0  0  0  0
    9.1298    5.7062   -5.2724 H   0  0  0  0  0  0  0  0  0  0  0  0
    8.3591    1.1881   -6.3466 H   0  0  0  0  0  0  0  0  0  0  0  0
    9.8717    0.4635   -6.9223 H   0  0  0  0  0  0  0  0  0  0  0  0
    8.5371   -1.1595   -5.5743 H   0  0  0  0  0  0  0  0  0  0  0  0
    8.6069   -0.0647   -4.1865 H   0  0  0  0  0  0  0  0  0  0  0  0
   10.0858   -0.8074   -4.8008 H   0  0  0  0  0  0  0  0  0  0  0  0
   10.5053    9.5807    3.7896 H   0  0  0  0  0  0  0  0  0  0  0  0
   10.9508   11.1989    3.2130 H   0  0  0  0  0  0  0  0  0  0  0  0
    8.6216   11.5556    2.4093 H   0  0  0  0  0  0  0  0  0  0  0  0
    8.1724    9.9417    2.9688 H   0  0  0  0  0  0  0  0  0  0  0  0
    8.6399   11.1836    4.1363 H   0  0  0  0  0  0  0  0  0  0  0  0
   12.6614    6.4831    0.9059 H   0  0  0  0  0  0  0  0  0  0  0  0
   13.7462    4.1207    0.7500 H   0  0  0  0  0  0  0  0  0  0  0  0
  1  2  2  0  0  0  0
  2  3  1  0  0  0  0
  3  4  2  0  0  0  0
  4  5  1  0  0  0  0
  5  6  1  0  0  0  0
  6  7  1  0  0  0  0
  7  8  1  0  0  0  0
  8  9  1  0  0  0  0
  7 10  2  0  0  0  0
 10 11  1  0  0  0  0
 10 12  1  0  0  0  0
 12 13  1  0  0  0  0
  4 14  1  0  0  0  0
 14 15  2  0  0  0  0
 15 16  1  0  0  0  0
 16 17  1  0  0  0  0
 17 18  1  0  0  0  0
 18 19  1  0  0  0  0
 19 20  1  0  0  0  0
 20 21  1  0  0  0  0
 19 22  2  0  0  0  0
 22 23  1  0  0  0  0
 23 24  1  0  0  0  0
 22 25  1  0  0  0  0
 16 26  2  0  0  0  0
 26 27  1  0  0  0  0
 15 28  1  0  0  0  0
 28 29  2  0  0  0  0
 29 30  1  0  0  0  0
 29 31  1  0  0  0  0
 31 32  2  0  0  0  0
 32 33  1  0  0  0  0
 33 34  2  0  0  0  0
 34 35  1  0  0  0  0
 35 36  1  0  0  0  0
 36 37  1  0  0  0  0
 37 38  1  0  0  0  0
 38 39  1  0  0  0  0
 37 40  2  0  0  0  0
 40 41  1  0  0  0  0
 40 42  1  0  0  0  0
 42 43  1  0  0  0  0
 34 44  1  0  0  0  0
 44 45  2  0  0  0  0
 45 46  1  0  0  0  0
 46 47  1  0  0  0  0
 47 48  1  0  0  0  0
 48 49  1  0  0  0  0
 49 50  1  0  0  0  0
 50 51  1  0  0  0  0
 49 52  2  0  0  0  0
 52 53  1  0  0  0  0
 53 54  1  0  0  0  0
 52 55  1  0  0  0  0
 46 56  2  0  0  0  0
 56 57  1  0  0  0  0
 45 58  1  0  0  0  0
 58 59  2  0  0  0  0
 59 60  1  0  0  0  0
 59 61  1  0  0  0  0
 61 62  2  0  0  0  0
 62 63  1  0  0  0  0
 63 64  2  0  0  0  0
 64 65  1  0  0  0  0
 65 66  1  0  0  0  0
 66 67  1  0  0  0  0
 67 68  1  0  0  0  0
 68 69  1  0  0  0  0
 67 70  2  0  0  0  0
 70 71  1  0  0  0  0
 70 72  1  0  0  0  0
 72 73  1  0  0  0  0
 64 74  1  0  0  0  0
 74 75  2  0  0  0  0
 75 76  1  0  0  0  0
 76 77  1  0  0  0  0
 77 78  1  0  0  0  0
 78 79  1  0  0  0  0
 79 80  1  0  0  0  0
 80 81  1  0  0  0  0
 79 82  2  0  0  0  0
 82 83  1  0  0  0  0
 83 84  1  0  0  0  0
 82 85  1  0  0  0  0
 76 86  2  0  0  0  0
 86 87  1  0  0  0  0
 75 88  1  0  0  0  0
 88 89  2  0  0  0  0
 89 90  1  0  0  0  0
 89 91  1  0  0  0  0
 91 92  2  0  0  0  0
 92 93  1  0  0  0  0
 93 94  2  0  0  0  0
 94 95  1  0  0  0  0
 95 96  1  0  0  0  0
 96 97  1  0  0  0  0
 97 98  1  0  0  0  0
 98 99  1  0  0  0  0
 97100  2  0  0  0  0
100101  1  0  0  0  0
100102  1  0  0  0  0
102103  1  0  0  0  0
 94104  1  0  0  0  0
104105  2  0  0  0  0
105106  1  0  0  0  0
106107  1  0  0  0  0
107108  1  0  0  0  0
108109  1  0  0  0  0
109110  1  0  0  0  0
110111  1  0  0  0  0
109112  2  0  0  0  0
112113  1  0  0  0  0
113114  1  0  0  0  0
112115  1  0  0  0  0
106116  2  0  0  0  0
116117  1  0  0  0  0
105118  1  0  0  0  0
118119  2  0  0  0  0
119120  1  0  0  0  0
119121  1  0  0  0  0
121122  1  0  0  0  0
122123  1  0  0  0  0
123124  2  0  0  0  0
124125  1  0  0  0  0
125126  1  0  0  0  0
126127  1  0  0  0  0
127128  1  0  0  0  0
126129  1  0  0  0  0
129130  2  0  0  0  0
130131  1  0  0  0  0
131132  2  0  0  0  0
132133  1  0  0  0  0
133134  2  0  0  0  0
134135  1  0  0  0  0
135136  1  0  0  0  0
136137  1  0  0  0  0
137138  1  0  0  0  0
138139  1  0  0  0  0
137140  2  0  0  0  0
140141  1  0  0  0  0
140142  1  0  0  0  0
142143  1  0  0  0  0
134144  1  0  0  0  0
144145  2  0  0  0  0
145146  1  0  0  0  0
146147  1  0  0  0  0
147148  1  0  0  0  0
148149  1  0  0  0  0
149150  1  0  0  0  0
150151  1  0  0  0  0
149152  2  0  0  0  0
152153  1  0  0  0  0
153154  1  0  0  0  0
152155  1  0  0  0  0
146156  2  0  0  0  0
156157  1  0  0  0  0
145158  1  0  0  0  0
158159  2  0  0  0  0
159160  1  0  0  0  0
 27  1  1  0  0  0  0
 57 31  1  0  0  0  0
 87 61  1  0  0  0  0
117 91  1  0  0  0  0
125121  2  0  0  0  0
157131  1  0  0  0  0
 26  3  1  0  0  0  0
 56 33  1  0  0  0  0
 86 63  1  0  0  0  0
116 93  1  0  0  0  0
156133  1  0  0  0  0
 12  5  2  0  0  0  0
 30 14  1  0  0  0  0
 42 35  2  0  0  0  0
 60 44  1  0  0  0  0
 72 65  2  0  0  0  0
 90 74  1  0  0  0  0
102 95  2  0  0  0  0
120104  1  0  0  0  0
142135  2  0  0  0  0
160144  1  0  0  0  0
 23 17  2  0  0  0  0
 53 47  2  0  0  0  0
 83 77  2  0  0  0  0
113107  2  0  0  0  0
153147  2  0  0  0  0
  1161  1  0  0  0  0
  2162  1  0  0  0  0
  8163  1  0  0  0  0
  8164  1  0  0  0  0
  9165  1  0  0  0  0
  9166  1  0  0  0  0
  9167  1  0  0  0  0
 20168  1  0  0  0  0
 20169  1  0  0  0  0
 21170  1  0  0  0  0
 21171  1  0  0  0  0
 21172  1  0  0  0  0
 28173  1  0  0  0  0
 32174  1  0  0  0  0
 38175  1  0  0  0  0
 38176  1  0  0  0  0
 39177  1  0  0  0  0
 39178  1  0  0  0  0
 39179  1  0  0  0  0
 50180  1  0  0  0  0
 50181  1  0  0  0  0
 51182  1  0  0  0  0
 51183  1  0  0  0  0
 51184  1  0  0  0  0
 58185  1  0  0  0  0
 62186  1  0  0  0  0
 68187  1  0  0  0  0
 68188  1  0  0  0  0
 69189  1  0  0  0  0
 69190  1  0  0  0  0
 69191  1  0  0  0  0
 80192  1  0  0  0  0
 80193  1  0  0  0  0
 81194  1  0  0  0  0
 81195  1  0  0  0  0
 81196  1  0  0  0  0
 88197  1  0  0  0  0
 92198  1  0  0  0  0
 98199  1  0  0  0  0
 98200  1  0  0  0  0
 99201  1  0  0  0  0
 99202  1  0  0  0  0
 99203  1  0  0  0  0
110204  1  0  0  0  0
110205  1  0  0  0  0
111206  1  0  0  0  0
111207  1  0  0  0  0
111208  1  0  0  0  0
118209  1  0  0  0  0
123210  1  0  0  0  0
124211  1  0  0  0  0
127212  1  0  0  0  0
127213  1  0  0  0  0
128214  1  0  0  0  0
128215  1  0  0  0  0
128216  1  0  0  0  0
129217  1  0  0  0  0
130218  1  0  0  0  0
132219  1  0  0  0  0
138220  1  0  0  0  0
138221  1  0  0  0  0
139222  1  0  0  0  0
139223  1  0  0  0  0
139224  1  0  0  0  0
150225  1  0  0  0  0
150226  1  0  0  0  0
151227  1  0  0  0  0
151228  1  0  0  0  0
151229  1  0  0  0  0
158230  1  0  0  0  0
159231  1  0  0  0  0
M  END
