248

C          2.56860       -2.01510        7.83400
C          2.36350       -0.99110        6.98340
C          1.49520       -1.33240        5.90470
C          1.01450       -0.50340        4.88340
C          1.32410        0.93000        4.79790
C          2.63160        1.39480        4.76970
C          2.91420        2.74640        4.70100
C          1.88890        3.68460        4.68440
S          2.09770        5.42490        4.70290
C          3.91150        5.65390        4.74040
C          4.19750        7.14090        4.83520
C          0.57810        3.20080        4.68330
F         -0.43800        4.08730        4.64070
C          0.28520        1.85890        4.73560
C          0.16220       -1.09180        3.96500
C         -0.29400       -2.42890        4.03840
C          0.13270       -3.23920        5.10780
C         -0.38610       -4.59780        5.29500
C          0.45840       -5.67120        5.57760
C         -0.04750       -6.94330        5.73430
C         -1.41340       -7.20030        5.63000
S         -1.93480       -8.88410        5.76820
C         -3.48220       -8.79530        6.74310
C         -3.26640       -8.13040        8.08750
C         -2.24700       -6.11980        5.35710
C         -1.75410       -4.84060        5.19950
F         -3.58170       -6.28820        5.22440
C          1.04970       -2.67460        5.98860
S          1.72850       -3.46090        7.39110
C         -1.14400       -2.74620        2.94420
C         -1.34300       -1.71390        2.07110
S         -0.45460       -0.27880        2.55920
C         -2.22310       -1.66380        0.95010
S         -3.27550       -3.01970        0.61000
C         -4.05850       -2.16420       -0.70320
C         -3.56080       -0.88650       -0.80100
C         -2.48030       -0.62670        0.07680
C         -1.69780        0.61970       -0.14820
S         -2.44770        2.10880        0.66760
C         -1.60650        0.86930       -1.65530
C         -2.97480        0.98840       -2.33320
C         -4.09750        0.32440       -1.52130
O         -5.19370        0.13020       -2.37230
C         -4.99030       -2.81980       -1.57420
C         -4.99880       -2.50020       -2.88750
C         -5.89400       -2.86120       -3.93410
S         -5.49830       -2.20660       -5.49770
C         -6.93560       -2.85150       -6.21890
C         -7.65890       -3.56690       -5.28110
C         -7.09730       -3.54310       -3.98690
C         -7.77010       -4.16770       -2.81510
S         -6.85760       -5.73250       -2.38330
C         -9.23140       -4.46650       -3.11700
C         -9.34430       -5.20120       -4.44590
C         -8.95830       -4.25970       -5.59030
O         -9.93290       -3.25290       -5.80030
C         -7.26220       -2.68730       -7.60640
C         -6.67130       -1.88110       -8.50260
C         -5.60230       -0.94880       -8.18840
C         -5.65260        0.13270       -7.37220
C         -4.38470        0.73460       -7.13500
C         -4.06150        1.74520       -6.21510
C         -5.06930        2.38900       -5.36450
C         -5.08190        3.77070       -5.19830
C         -5.99290        4.38430       -4.36000
C         -6.92290        3.63320       -3.65100
S         -8.11340        4.26840       -2.51720
C         -8.04180        6.07750       -2.74500
C         -8.68520        6.52180       -4.04510
C         -6.89200        2.24860       -3.82320
F         -7.76380        1.48510       -3.12670
C         -5.99760        1.62480       -4.66060
C         -2.71230        2.03280       -6.05950
C         -1.68920        1.37540       -6.78570
C         -2.01540        0.39710       -7.73940
C         -0.98530       -0.34100       -8.48190
C          0.07910       -0.95970       -7.82980
C          1.05100       -1.64130       -8.53510
C          0.99370       -1.73380       -9.92150
S          2.16630       -2.59500      -10.91700
C          3.70500       -2.50130       -9.93490
C          4.20400       -1.07920       -9.78750
C         -0.09670       -1.14080      -10.55910
C         -1.07060       -0.45510       -9.86750
F         -0.20040       -1.22590      -11.89940
C         -3.36230        0.09830       -7.88060
S         -3.99490       -1.21520       -8.83840
C         -0.40020        1.71470       -6.30570
C         -0.41870        2.51730       -5.20100
S         -2.03930        3.06760       -4.82210
C          0.65140        2.63800       -4.25820
C          1.70150        1.76770       -4.20310
C          2.41750        1.80990       -2.98530
C          3.41000        0.90660       -2.57490
C          3.95660       -0.06720       -3.52720
C          3.97760       -1.43170       -3.25880
C          4.44470       -2.33800       -4.19270
C          4.91390       -1.90980       -5.42860
S          5.53180       -2.94160       -6.71810
C          5.15350       -4.64070       -6.16940
C          3.68040       -4.98090       -6.29870
C          4.91380       -0.53470       -5.67240
F          5.38720       -0.08040       -6.85150
C          4.44220        0.37660       -4.75710
C          3.76540        0.95930       -1.23820
C          3.28790        1.95370       -0.34920
C          2.37210        2.92320       -0.79430
C          1.97310        4.04640        0.06350
C          2.96460        4.86360        0.60700
C          2.62920        5.98780        1.32670
C          1.29800        6.33670        1.55650
S          1.02250        7.84300        2.43430
C         -0.50160        7.57680        3.41760
C         -1.70260        8.28920        2.82960
C          0.32100        5.50050        1.02450
C          0.64250        4.37510        0.28960
F         -0.98750        5.77820        1.18300
C          1.90040        2.77940       -2.09270
S          0.58220        3.66150       -2.83530
C          3.72200        1.71680        0.98800
C          4.47120        0.59140        1.11980
S          4.77420       -0.19650       -0.41800
C          4.79600       -0.15760        2.30970
C          5.42660        0.15820        3.46650
C          5.39370       -0.89320        4.43440
C          5.96100       -0.91530        5.71640
C          6.68940        0.23750        6.26520
C          7.99560        0.11420        6.73380
C          8.66950        1.21100        7.22610
C          8.07170        2.47040        7.29070
S          9.03960        3.77620        7.98340
C          8.50810        5.28660        7.09430
C          8.70700        5.17060        5.59650
C          6.75370        2.56570        6.85860
F          6.07100        3.73560        6.92280
C          6.07490        1.48130        6.34220
C          5.78680       -2.07740        6.45460
C          5.06840       -3.20480        5.98750
C          4.51660       -3.19590        4.69710
C          3.78950       -4.33820        4.13340
C          2.62470       -4.14570        3.39410
C          1.93360       -5.20340        2.83760
C          2.37740       -6.50970        3.00400
S          1.59480       -7.95340        2.37790
C          0.23740       -7.32810        1.32890
C         -1.00840       -6.97940        2.12010
C          3.55200       -6.69140        3.73970
C          4.25530       -5.64430        4.29030
F          4.02590       -7.94210        3.91310
C          4.69680       -2.03040        3.96040
S          4.14250       -1.78600        2.33050
C          4.97770       -4.21410        6.99370
C          5.60440       -3.87640        8.13790
S          6.34640       -2.31320        8.08990
H          3.17310       -2.02620        8.71970
H          2.79370       -0.01430        7.10900
H          3.43650        0.67790        4.78100
H          3.94070        3.07390        4.66610
H          4.31960        5.23320        3.82060
H          4.30480        5.12660        5.60890
H          3.80430        7.54310        5.76570
H          5.27120        7.31360        4.80680
H          3.73110        7.67440        4.00960
H         -0.74710        1.54700        4.76090
H          1.52120       -5.51010        5.65690
H          0.61420       -7.77150        5.93330
H         -4.24520       -8.29020        6.15510
H         -3.76060       -9.84240        6.86210
H         -4.18490       -8.17470        8.66940
H         -2.47690       -8.63450        8.64090
H         -2.98830       -7.08520        7.96400
H         -2.45080       -4.03830        5.01190
H         -1.60010       -3.70900        2.79760
H         -0.68910        0.54150        0.26160
H         -2.07690        1.78720        1.90340
H         -1.04590        0.03430       -2.08460
H         -1.03320        1.77920       -1.83000
H         -2.95320        0.51750       -3.31700
H         -3.24310        2.03500       -2.47450
H         -4.38870        1.02510       -0.72060
H         -5.99310       -0.01420       -1.85560
H         -5.60580       -3.59770       -1.15160
H         -4.22540       -1.82270       -3.22460
H         -7.67450       -3.52010       -1.93970
H         -7.55230       -5.98150       -1.27300
H         -9.77020       -3.51750       -3.18510
H         -9.67000       -5.05720       -2.31030
H        -10.36430       -5.56140       -4.59980
H         -8.67340       -6.06280       -4.44810
H         -8.84050       -4.85400       -6.51420
H        -10.78810       -3.67240       -5.94650
H         -8.08170       -3.30570       -7.94600
H         -6.97520       -1.93550       -9.53970
H         -6.56850        0.47570       -6.92730
H         -4.37640        4.38150       -5.74150
H         -5.95970        5.45640       -4.25630
H         -7.00430        6.39730       -2.65930
H         -8.59460        6.46420       -1.88870
H         -8.64770        7.60660       -4.12530
H         -8.17360        6.09120       -4.90330
H         -9.72560        6.20660       -4.07460
H         -5.99200        0.54920       -4.71200
H          0.12980       -0.93630       -6.75140
H          1.85730       -2.11220       -7.99510
H          4.40890       -3.10540      -10.50660
H          3.54280       -2.97920       -8.97040
H          5.13250       -1.07330       -9.22190
H          3.47710       -0.46550       -9.25930
H          4.38340       -0.63740      -10.76460
H         -1.87850        0.00360      -10.41530
H          0.50540        1.33530       -6.74020
H          1.90170        1.03930       -4.96660
H          3.60060       -1.79840       -2.31660
H          4.43740       -3.38630       -3.94290
H          5.52330       -4.76510       -5.15260
H          5.75320       -5.26250       -6.83420
H          3.50530       -5.99740       -5.95160
H          3.06620       -4.30320       -5.70900
H          3.36650       -4.91570       -7.33820
H          4.46760        1.42790       -4.99810
H          4.00360        4.62490        0.43280
H          3.39880        6.63550        1.71710
H         -0.25330        7.97610        4.40120
H         -0.65650        6.50490        3.50490
H         -2.56130        8.14870        3.48280
H         -1.94780        7.89090        1.84920
H         -1.50440        9.35500        2.73560
H         -0.16400        3.77020       -0.09410
H          3.40300        2.31330        1.82480
H          5.91730        1.10000        3.63480
H          8.49210       -0.84250        6.68800
H          9.68620        1.11440        7.57330
H          9.15340        6.05750        7.51550
H          7.47600        5.50970        7.35560
H          8.06610        4.39800        5.17610
H          9.74110        4.92260        5.36720
H          8.46080        6.11740        5.11980
H          5.04850        1.61190        6.04160
H          2.22610       -3.15210        3.27170
H          1.03740       -4.99300        2.27840
H          0.03810       -8.15580        0.64800
H          0.61600       -6.48540        0.75210
H         -1.79180       -6.63880        1.44510
H         -0.80480       -6.19550        2.84570
H         -1.36700       -7.85330        2.65870
H          5.17830       -5.85180        4.80820
H          4.44000       -5.13540        6.86760
H          5.68350       -4.45250        9.03910
