
  xtb     02282216233D
 energy: -110.877977105016 gnorm: 0.000161571396 xtb: 6.4.1 (unknown)
 76 81  0     0  0            999 V2000
   -2.8977   -0.9759   -2.3056 C   0  0  0  0  0  0  0  0  0  0  0  0
   -3.6292   -0.9546   -1.1868 C   0  0  0  0  0  0  0  0  0  0  0  0
   -3.5580    0.3983   -0.5592 C   0  0  0  0  0  0  0  0  0  0  0  0
   -2.6973    1.1497   -1.5143 C   0  0  0  0  0  0  0  0  0  0  0  0
   -2.3096    0.3398   -2.5255 C   0  0  0  0  0  0  0  0  0  0  0  0
   -1.4530    0.7367   -3.6239 C   0  0  0  0  0  0  0  0  0  0  0  0
   -0.7827   -0.0549   -4.4624 C   0  0  0  0  0  0  0  0  0  0  0  0
   -0.7516   -1.5208   -4.5202 C   0  0  0  0  0  0  0  0  0  0  0  0
   -1.4446   -2.2771   -5.3877 C   0  0  0  0  0  0  0  0  0  0  0  0
   -1.0298   -3.7065   -5.2820 C   0  0  0  0  0  0  0  0  0  0  0  0
    0.0339   -3.6494   -4.2402 C   0  0  0  0  0  0  0  0  0  0  0  0
    0.1816   -2.3890   -3.7796 C   0  0  0  0  0  0  0  0  0  0  0  0
    1.1108   -1.9797   -2.7463 C   0  0  0  0  0  0  0  0  0  0  0  0
    0.8864   -0.9760   -1.8923 C   0  0  0  0  0  0  0  0  0  0  0  0
    1.7947   -0.4700   -0.8895 C   0  0  0  0  0  0  0  0  0  0  0  0
    1.7985    0.8254   -0.5036 C   0  0  0  0  0  0  0  0  0  0  0  0
    2.9314    1.0963    0.4206 C   0  0  0  0  0  0  0  0  0  0  0  0
    3.5758   -0.2409    0.5239 C   0  0  0  0  0  0  0  0  0  0  0  0
    2.9018   -1.1550   -0.2073 C   0  0  0  0  0  0  0  0  0  0  0  0
    3.2624   -2.5622   -0.2201 C   0  0  0  0  0  0  0  0  0  0  0  0
    2.4887   -3.6552   -0.2180 C   0  0  0  0  0  0  0  0  0  0  0  0
    1.0440   -3.7830   -0.2768 C   0  0  0  0  0  0  0  0  0  0  0  0
    0.4266   -4.7767   -0.9510 C   0  0  0  0  0  0  0  0  0  0  0  0
   -1.0495   -4.5889   -0.9320 C   0  0  0  0  0  0  0  0  0  0  0  0
   -1.1981   -3.3608   -0.1065 C   0  0  0  0  0  0  0  0  0  0  0  0
    0.0096   -2.9069    0.2916 C   0  0  0  0  0  0  0  0  0  0  0  0
    0.1945   -1.7966    1.1943 C   0  0  0  0  0  0  0  0  0  0  0  0
    1.1682   -1.7042    2.1128 C   0  0  0  0  0  0  0  0  0  0  0  0
    1.3232   -0.5960    3.0053 C   0  0  0  0  0  0  0  0  0  0  0  0
    2.5110   -0.4428    3.6397 O   0  0  0  0  0  0  0  0  0  0  0  0
    2.4547    0.7093    4.3286 C   0  0  0  0  0  0  0  0  0  0  0  0
    1.2519    1.3182    4.1610 C   0  0  0  0  0  0  0  0  0  0  0  0
    0.4927    0.4740    3.3041 C   0  0  0  0  0  0  0  0  0  0  0  0
   -0.8959    0.6379    2.9309 C   0  0  0  0  0  0  0  0  0  0  0  0
   -1.4747    1.7706    2.5029 C   0  0  0  0  0  0  0  0  0  0  0  0
   -0.8073    2.9875    2.1395 C   0  0  0  0  0  0  0  0  0  0  0  0
    0.5288    3.0005    1.9219 O   0  0  0  0  0  0  0  0  0  0  0  0
    0.8556    4.2206    1.4687 C   0  0  0  0  0  0  0  0  0  0  0  0
   -0.2424    5.0140    1.3764 C   0  0  0  0  0  0  0  0  0  0  0  0
   -1.3427    4.2284    1.8203 C   0  0  0  0  0  0  0  0  0  0  0  0
   -2.7090    4.6940    1.9129 C   0  0  0  0  0  0  0  0  0  0  0  0
   -3.6249    4.2551    2.7687 C   0  0  0  0  0  0  0  0  0  0  0  0
   -2.7538   -1.8079   -2.9684 H   0  0  0  0  0  0  0  0  0  0  0  0
   -4.2049   -1.7607   -0.7685 H   0  0  0  0  0  0  0  0  0  0  0  0
   -4.5440    0.8551   -0.4446 H   0  0  0  0  0  0  0  0  0  0  0  0
   -3.1073    0.3573    0.4359 H   0  0  0  0  0  0  0  0  0  0  0  0
   -2.4295    2.1814   -1.3726 H   0  0  0  0  0  0  0  0  0  0  0  0
   -1.3319    1.8093   -3.7246 H   0  0  0  0  0  0  0  0  0  0  0  0
   -0.1652    0.4142   -5.2221 H   0  0  0  0  0  0  0  0  0  0  0  0
   -2.1919   -1.9332   -6.0801 H   0  0  0  0  0  0  0  0  0  0  0  0
   -0.6503   -4.0842   -6.2353 H   0  0  0  0  0  0  0  0  0  0  0  0
   -1.8570   -4.3603   -4.9911 H   0  0  0  0  0  0  0  0  0  0  0  0
    0.5763   -4.5148   -3.9062 H   0  0  0  0  0  0  0  0  0  0  0  0
    2.0162   -2.5677   -2.6741 H   0  0  0  0  0  0  0  0  0  0  0  0
   -0.0295   -0.4110   -1.9725 H   0  0  0  0  0  0  0  0  0  0  0  0
    1.1140    1.5857   -0.8347 H   0  0  0  0  0  0  0  0  0  0  0  0
    2.5873    1.4616    1.3914 H   0  0  0  0  0  0  0  0  0  0  0  0
    3.6109    1.8542    0.0198 H   0  0  0  0  0  0  0  0  0  0  0  0
    4.4292   -0.4320    1.1501 H   0  0  0  0  0  0  0  0  0  0  0  0
    4.3340   -2.7237   -0.1573 H   0  0  0  0  0  0  0  0  0  0  0  0
    2.9975   -4.6140   -0.2411 H   0  0  0  0  0  0  0  0  0  0  0  0
    0.9078   -5.5794   -1.4810 H   0  0  0  0  0  0  0  0  0  0  0  0
   -1.5783   -5.4424   -0.4994 H   0  0  0  0  0  0  0  0  0  0  0  0
   -1.4428   -4.4449   -1.9416 H   0  0  0  0  0  0  0  0  0  0  0  0
   -2.1507   -2.9370    0.1510 H   0  0  0  0  0  0  0  0  0  0  0  0
   -0.5526   -1.0177    1.1289 H   0  0  0  0  0  0  0  0  0  0  0  0
    1.9295   -2.4672    2.1877 H   0  0  0  0  0  0  0  0  0  0  0  0
    3.3210    0.9825    4.8986 H   0  0  0  0  0  0  0  0  0  0  0  0
    0.9247    2.2364    4.6043 H   0  0  0  0  0  0  0  0  0  0  0  0
   -1.5121   -0.2444    3.0583 H   0  0  0  0  0  0  0  0  0  0  0  0
   -2.5441    1.7955    2.3452 H   0  0  0  0  0  0  0  0  0  0  0  0
    1.8894    4.3996    1.2477 H   0  0  0  0  0  0  0  0  0  0  0  0
   -0.2784    6.0337    1.0505 H   0  0  0  0  0  0  0  0  0  0  0  0
   -2.9567    5.4987    1.2310 H   0  0  0  0  0  0  0  0  0  0  0  0
   -4.6229    4.6593    2.7768 H   0  0  0  0  0  0  0  0  0  0  0  0
   -3.4075    3.5006    3.5049 H   0  0  0  0  0  0  0  0  0  0  0  0
  1  2  2  0  0  0  0
  2  3  1  0  0  0  0
  3  4  1  0  0  0  0
  4  5  2  0  0  0  0
  5  6  1  0  0  0  0
  6  7  2  0  0  0  0
  7  8  1  0  0  0  0
  8  9  2  0  0  0  0
  9 10  1  0  0  0  0
 10 11  1  0  0  0  0
 11 12  2  0  0  0  0
 12 13  1  0  0  0  0
 13 14  2  0  0  0  0
 14 15  1  0  0  0  0
 15 16  2  0  0  0  0
 16 17  1  0  0  0  0
 17 18  1  0  0  0  0
 18 19  2  0  0  0  0
 19 20  1  0  0  0  0
 20 21  2  0  0  0  0
 21 22  1  0  0  0  0
 22 23  2  0  0  0  0
 23 24  1  0  0  0  0
 24 25  1  0  0  0  0
 25 26  2  0  0  0  0
 26 27  1  0  0  0  0
 27 28  2  0  0  0  0
 28 29  1  0  0  0  0
 29 30  1  0  0  0  0
 30 31  1  0  0  0  0
 31 32  2  0  0  0  0
 32 33  1  0  0  0  0
 33 34  1  0  0  0  0
 34 35  2  0  0  0  0
 35 36  1  0  0  0  0
 36 37  1  0  0  0  0
 37 38  1  0  0  0  0
 38 39  2  0  0  0  0
 39 40  1  0  0  0  0
 40 41  1  0  0  0  0
 41 42  2  0  0  0  0
  5  1  1  0  0  0  0
 12  8  1  0  0  0  0
 19 15  1  0  0  0  0
 26 22  1  0  0  0  0
 33 29  2  0  0  0  0
 40 36  2  0  0  0  0
  1 43  1  0  0  0  0
  2 44  1  0  0  0  0
  3 45  1  0  0  0  0
  3 46  1  0  0  0  0
  4 47  1  0  0  0  0
  6 48  1  0  0  0  0
  7 49  1  0  0  0  0
  9 50  1  0  0  0  0
 10 51  1  0  0  0  0
 10 52  1  0  0  0  0
 11 53  1  0  0  0  0
 13 54  1  0  0  0  0
 14 55  1  0  0  0  0
 16 56  1  0  0  0  0
 17 57  1  0  0  0  0
 17 58  1  0  0  0  0
 18 59  1  0  0  0  0
 20 60  1  0  0  0  0
 21 61  1  0  0  0  0
 23 62  1  0  0  0  0
 24 63  1  0  0  0  0
 24 64  1  0  0  0  0
 25 65  1  0  0  0  0
 27 66  1  0  0  0  0
 28 67  1  0  0  0  0
 31 68  1  0  0  0  0
 32 69  1  0  0  0  0
 34 70  1  0  0  0  0
 35 71  1  0  0  0  0
 38 72  1  0  0  0  0
 39 73  1  0  0  0  0
 41 74  1  0  0  0  0
 42 75  1  0  0  0  0
 42 76  1  0  0  0  0
M  END
