185

C          8.19970       -8.98670        5.42460
O          8.25420       -8.45430        6.65250
C          7.16450       -7.67710        6.79660
C          6.39600       -7.71850        5.68110
C          7.07410       -8.57310        4.75730
C          6.57250       -8.96150        3.46630
C          7.22520       -9.44140        2.39280
C          8.61880       -9.55000        2.07540
O          8.86990      -10.44140        1.07830
C         10.19010      -10.47250        0.86290
C         10.82840       -9.61550        1.69570
C          9.82110       -8.97430        2.48090
C         10.17640       -7.99450        3.47180
C          9.55160       -6.88310        3.90270
C          8.38900       -6.22270        3.39140
C          7.75160       -6.31770        2.19040
C          6.69590       -5.38270        2.02180
C          5.87650       -5.18990        0.89600
C          5.98490       -6.03920       -0.29580
C          6.12040       -5.49170       -1.56690
C          6.20290       -6.29800       -2.68640
C          6.14110       -7.68250       -2.57300
S          6.22690       -8.82090       -3.91080
C          6.20520       -7.73980       -5.38930
C          6.14250       -8.61300       -6.62830
C          6.00250       -8.21640       -1.28970
F          5.93080       -9.55560       -1.14070
C          5.92520       -7.42480       -0.16810
C          4.94260       -4.16720        0.96730
C          4.76440       -3.36680        2.12110
C          5.57270       -3.56300        3.25280
C          5.37400       -2.74420        4.45530
C          4.10430       -2.60450        5.01630
C          3.90630       -1.80350        6.11990
C          4.96030       -1.10290        6.70320
S          4.57170       -0.04290        8.06560
C          5.96430       -0.28270        9.22820
C          6.13160       -1.73700        9.61860
C          6.22050       -1.24910        6.13210
C          6.43680       -2.06520        5.03980
F          7.28420       -0.57610        6.62360
C          6.54180       -4.54870        3.15970
S          7.69970       -4.95260        4.39270
C          3.74430       -2.40240        1.94400
C          3.13170       -2.46750        0.72650
S          3.81040       -3.72390       -0.28710
C          2.04460       -1.64510        0.30000
C          1.32210       -0.81100        1.10230
C          0.29050       -0.11830        0.42570
C         -0.62930        0.78930        0.97910
C         -0.60930        1.05490        2.42340
C         -0.65500       -0.00330        3.33170
C         -0.52990        0.22500        4.68390
C         -0.35620        1.51390        5.18620
S         -0.15870        1.68690        6.93130
C          1.04430        3.06840        7.08520
C          1.85100        2.87830        8.35420
C         -0.38190        2.56540        4.27420
F         -0.28130        3.84490        4.69690
C         -0.49720        2.35010        2.91480
C         -1.51350        1.38850        0.09840
C         -1.53140        1.08820       -1.28730
C         -0.64120        0.14640       -1.83310
C         -0.70180       -0.19420       -3.25950
C         -1.91530       -0.53430       -3.85910
C         -1.98100       -0.81040       -5.20590
C         -0.84720       -0.75410       -6.01930
S         -1.11210       -1.05320       -7.73660
C          0.51340       -1.58450       -8.40110
C          0.28940       -2.25360       -9.74300
C          0.35730       -0.42410       -5.40540
C          0.43900       -0.16110       -4.05200
F          1.50380       -0.33030       -6.11720
C          0.26840       -0.42440       -0.95750
S          1.48600       -1.61010       -1.35910
C         -2.50960        1.84440       -1.97440
C         -3.24960        2.65660       -1.16440
S         -2.75170        2.54740        0.51100
C         -4.32720        3.49260       -1.58870
C         -4.72120        3.68580       -2.88080
C         -5.85290        4.52430       -3.01300
C         -6.52720        4.86140       -4.19820
C         -6.00240        4.40620       -5.49230
C         -6.78130        3.66640       -6.37580
C         -6.24430        3.16550       -7.54640
C         -4.91260        3.39150       -7.87610
S         -4.12150        2.77610       -9.32860
C         -4.99580        1.20130       -9.63720
C         -4.80140        0.21170       -8.50530
C         -4.15930        4.18150       -7.00750
F         -2.87440        4.45430       -7.30800
C         -4.67840        4.67750       -5.83270
C         -7.68010        5.61500       -4.06350
C         -8.16340        6.06570       -2.80850
C         -7.48380        5.73270       -1.62370
C         -7.98720        6.14730       -0.30890
C         -7.15340        6.76600        0.62030
C         -7.63430        7.13540        1.85830
C         -8.96060        6.90840        2.21900
S         -9.48160        7.46760        3.81520
C        -10.52920        6.09830        4.43330
C         -9.77370        4.78560        4.48210
C         -9.78670        6.30720        1.27450
C         -9.31520        5.91750        0.03780
F        -11.09420        6.08250        1.53750
C         -6.33300        4.96990       -1.75790
S         -5.34160        4.36130       -0.45490
C         -9.32030        6.87480       -2.95100
C         -9.73170        7.01480       -4.24320
S         -8.68570        6.17430       -5.37280
C        -10.85240        7.73490       -4.76190
O        -10.84530        8.05000       -6.07910
C        -11.97090        8.73170       -6.33470
C        -12.72150        8.87040       -5.21140
C        -12.01060        8.21680       -4.16580
C        -12.44370        8.03330       -2.79940
C        -13.38210        8.76000       -2.20350
H          8.97120       -9.67680        5.15010
H          7.05200       -7.15580        7.72630
H          5.47460       -7.20000        5.50990
H          5.49250       -8.90330        3.39310
H          6.62120       -9.84740        1.58880
H         10.54820      -11.13800        0.10230
H         11.88070       -9.42180        1.74520
H         11.14010       -8.19930        3.92620
H         10.01500       -6.35400        4.72740
H          8.06380       -6.99560        1.41850
H          6.18220       -4.42080       -1.68530
H          6.31820       -5.83490       -3.65230
H          5.32710       -7.09780       -5.31980
H          7.11450       -7.13810       -5.38400
H          7.00840       -9.26920       -6.67620
H          5.24550       -9.22760       -6.61530
H          6.12670       -7.98930       -7.51950
H          5.79550       -7.88020        0.79980
H          3.27310       -3.14950        4.59500
H          2.92330       -1.69970        6.55270
H          5.67990        0.32600       10.08660
H          6.86900        0.12830        8.78570
H          6.91390       -1.82590       10.36970
H          6.41280       -2.34090        8.75750
H          5.20450       -2.13140       10.02990
H          7.43290       -2.13150        4.63140
H          3.49540       -1.66960        2.68860
H          1.51870       -0.68740        2.15070
H         -0.78940       -1.01070        2.96770
H         -0.54990       -0.59620        5.38340
H          0.48850        4.00510        7.10150
H          1.68540        3.03390        6.20600
H          1.19700        2.85700        9.22290
H          2.40960        1.94560        8.31600
H          2.55340        3.70130        8.46660
H         -0.48130        3.19980        2.25030
H         -2.80740       -0.60440       -3.25540
H         -2.92210       -1.07450       -5.66350
H          1.14760       -0.70530       -8.50170
H          0.94810       -2.27690       -7.68180
H         -0.35970       -3.12010       -9.63580
H          1.24290       -2.57840      -10.15360
H         -0.17300       -1.56020      -10.44190
H          1.39880        0.10580       -3.63800
H         -2.64880        1.78930       -3.03760
H         -4.23340        3.22830       -3.72090
H         -7.81280        3.46050       -6.13380
H         -6.87220        2.58910       -8.20700
H         -6.04740        1.41050       -9.83010
H         -4.53930        0.83590      -10.55670
H         -3.74140        0.02850       -8.34240
H         -5.28300       -0.73210       -8.75340
H         -5.23470        0.59070       -7.58130
H         -4.05220        5.27730       -5.19060
H         -6.12430        6.96650        0.36580
H         -6.98520        7.61240        2.57570
H        -11.42510        6.03180        3.81990
H        -10.80790        6.42970        5.43350
H         -9.49170        4.46210        3.48160
H         -8.86970        4.88700        5.07880
H        -10.40290        4.01730        4.92720
H         -9.99020        5.42390       -0.64440
H         -9.78880        7.37640       -2.12540
H        -12.12320        9.06180       -7.34330
H        -13.67200        9.35520       -5.13140
H        -11.96290        7.22820       -2.26100
H        -13.87260        9.57890       -2.70120
H        -13.68100        8.56710       -1.18810
