76

C         -2.89770       -0.97590       -2.30560
C         -3.62920       -0.95460       -1.18680
C         -3.55800        0.39830       -0.55920
C         -2.69730        1.14970       -1.51430
C         -2.30960        0.33980       -2.52550
C         -1.45300        0.73670       -3.62390
C         -0.78270       -0.05490       -4.46240
C         -0.75160       -1.52080       -4.52020
C         -1.44460       -2.27710       -5.38770
C         -1.02980       -3.70650       -5.28200
C          0.03390       -3.64940       -4.24020
C          0.18160       -2.38900       -3.77960
C          1.11080       -1.97970       -2.74630
C          0.88640       -0.97600       -1.89230
C          1.79470       -0.47000       -0.88950
C          1.79850        0.82540       -0.50360
C          2.93140        1.09630        0.42060
C          3.57580       -0.24090        0.52390
C          2.90180       -1.15500       -0.20730
C          3.26240       -2.56220       -0.22010
C          2.48870       -3.65520       -0.21800
C          1.04400       -3.78300       -0.27680
C          0.42660       -4.77670       -0.95100
C         -1.04950       -4.58890       -0.93200
C         -1.19810       -3.36080       -0.10650
C          0.00960       -2.90690        0.29160
C          0.19450       -1.79660        1.19430
C          1.16820       -1.70420        2.11280
C          1.32320       -0.59600        3.00530
O          2.51100       -0.44280        3.63970
C          2.45470        0.70930        4.32860
C          1.25190        1.31820        4.16100
C          0.49270        0.47400        3.30410
C         -0.89590        0.63790        2.93090
C         -1.47470        1.77060        2.50290
C         -0.80730        2.98750        2.13950
O          0.52880        3.00050        1.92190
C          0.85560        4.22060        1.46870
C         -0.24240        5.01400        1.37640
C         -1.34270        4.22840        1.82030
C         -2.70900        4.69400        1.91290
C         -3.62490        4.25510        2.76870
H         -2.75380       -1.80790       -2.96840
H         -4.20490       -1.76070       -0.76850
H         -4.54400        0.85510       -0.44460
H         -3.10730        0.35730        0.43590
H         -2.42950        2.18140       -1.37260
H         -1.33190        1.80930       -3.72460
H         -0.16520        0.41420       -5.22210
H         -2.19190       -1.93320       -6.08010
H         -0.65030       -4.08420       -6.23530
H         -1.85700       -4.36030       -4.99110
H          0.57630       -4.51480       -3.90620
H          2.01620       -2.56770       -2.67410
H         -0.02950       -0.41100       -1.97250
H          1.11400        1.58570       -0.83470
H          2.58730        1.46160        1.39140
H          3.61090        1.85420        0.01980
H          4.42920       -0.43200        1.15010
H          4.33400       -2.72370       -0.15730
H          2.99750       -4.61400       -0.24110
H          0.90780       -5.57940       -1.48100
H         -1.57830       -5.44240       -0.49940
H         -1.44280       -4.44490       -1.94160
H         -2.15070       -2.93700        0.15100
H         -0.55260       -1.01770        1.12890
H          1.92950       -2.46720        2.18770
H          3.32100        0.98250        4.89860
H          0.92470        2.23640        4.60430
H         -1.51210       -0.24440        3.05830
H         -2.54410        1.79550        2.34520
H          1.88940        4.39960        1.24770
H         -0.27840        6.03370        1.05050
H         -2.95670        5.49870        1.23100
H         -4.62290        4.65930        2.77680
H         -3.40750        3.50060        3.50490
