
  xtb     03032205573D
 energy: -467.274501144672 gnorm: 0.000424803676 xtb: 6.4.1 (unknown)
237263  0     0  0            999 V2000
   -3.3605   -1.8644   19.7797 C   0  0  0  0  0  0  0  0  0  0  0  0
   -3.0170   -0.6407   19.3291 C   0  0  0  0  0  0  0  0  0  0  0  0
   -3.2076   -0.4960   17.9240 C   0  0  0  0  0  0  0  0  0  0  0  0
   -2.9179    0.6133   17.1151 C   0  0  0  0  0  0  0  0  0  0  0  0
   -2.2909    1.8099   17.6543 C   0  0  0  0  0  0  0  0  0  0  0  0
   -2.9860    3.3837   17.4107 S   0  0  0  0  0  0  0  0  0  0  0  0
   -1.7021    4.1683   18.2660 C   0  0  0  0  0  0  0  0  0  0  0  0
   -1.6616    5.6510   18.3932 C   0  0  0  0  0  0  0  0  0  0  0  0
   -1.2220    6.2997   17.0787 C   0  0  0  0  0  0  0  0  0  0  0  0
   -0.7918    3.2515   18.6997 C   0  0  0  0  0  0  0  0  0  0  0  0
    0.6286    3.6487   19.5780 Cl  0  0  0  0  0  0  0  0  0  0  0  0
   -1.1246    1.9125   18.3594 C   0  0  0  0  0  0  0  0  0  0  0  0
   -0.1057    0.5827   18.7339 Cl  0  0  0  0  0  0  0  0  0  0  0  0
   -3.2289    0.5094   15.7660 C   0  0  0  0  0  0  0  0  0  0  0  0
   -3.7836   -0.6591   15.1913 C   0  0  0  0  0  0  0  0  0  0  0  0
   -4.0548   -1.7781   15.9959 C   0  0  0  0  0  0  0  0  0  0  0  0
   -4.5995   -2.9988   15.4235 C   0  0  0  0  0  0  0  0  0  0  0  0
   -3.8125   -3.7920   14.0898 S   0  0  0  0  0  0  0  0  0  0  0  0
   -4.9936   -5.0545   14.0393 C   0  0  0  0  0  0  0  0  0  0  0  0
   -4.8801   -6.1828   13.0743 C   0  0  0  0  0  0  0  0  0  0  0  0
   -4.0834   -7.3412   13.6790 C   0  0  0  0  0  0  0  0  0  0  0  0
   -5.9311   -4.8637   15.0099 C   0  0  0  0  0  0  0  0  0  0  0  0
   -5.7139   -3.6988   15.7942 C   0  0  0  0  0  0  0  0  0  0  0  0
   -6.8060   -3.1982   17.0156 Cl  0  0  0  0  0  0  0  0  0  0  0  0
   -7.2649   -5.9117   15.2669 Cl  0  0  0  0  0  0  0  0  0  0  0  0
   -3.7580   -1.6677   17.3493 C   0  0  0  0  0  0  0  0  0  0  0  0
   -3.9551   -2.9173   18.5442 S   0  0  0  0  0  0  0  0  0  0  0  0
   -3.9949   -0.5112   13.7985 C   0  0  0  0  0  0  0  0  0  0  0  0
   -3.5969    0.6983   13.3131 C   0  0  0  0  0  0  0  0  0  0  0  0
   -2.9514    1.7398   14.5652 S   0  0  0  0  0  0  0  0  0  0  0  0
   -3.6425    1.1395   11.9593 C   0  0  0  0  0  0  0  0  0  0  0  0
   -3.1993    2.3217   11.4457 C   0  0  0  0  0  0  0  0  0  0  0  0
   -3.3590    2.4239   10.0421 C   0  0  0  0  0  0  0  0  0  0  0  0
   -3.0049    3.4962    9.2009 C   0  0  0  0  0  0  0  0  0  0  0  0
   -2.5398    4.7517    9.7616 C   0  0  0  0  0  0  0  0  0  0  0  0
   -1.0968    5.5318    9.1895 S   0  0  0  0  0  0  0  0  0  0  0  0
   -1.2616    6.8376   10.3126 C   0  0  0  0  0  0  0  0  0  0  0  0
   -0.3034    7.9777   10.3292 C   0  0  0  0  0  0  0  0  0  0  0  0
   -0.8120    9.1291    9.4579 C   0  0  0  0  0  0  0  0  0  0  0  0
   -2.3825    6.6718   11.0705 C   0  0  0  0  0  0  0  0  0  0  0  0
   -2.8785    7.7690   12.2925 Cl  0  0  0  0  0  0  0  0  0  0  0  0
   -3.1090    5.4911   10.7636 C   0  0  0  0  0  0  0  0  0  0  0  0
   -4.5973    5.1067   11.5286 Cl  0  0  0  0  0  0  0  0  0  0  0  0
   -3.1204    3.2905    7.8325 C   0  0  0  0  0  0  0  0  0  0  0  0
   -3.6526    2.0961    7.2835 C   0  0  0  0  0  0  0  0  0  0  0  0
   -4.1053    1.0657    8.1278 C   0  0  0  0  0  0  0  0  0  0  0  0
   -4.7234   -0.1306    7.5855 C   0  0  0  0  0  0  0  0  0  0  0  0
   -4.1874   -1.7190    8.0467 S   0  0  0  0  0  0  0  0  0  0  0  0
   -5.3472   -2.4939    7.0214 C   0  0  0  0  0  0  0  0  0  0  0  0
   -5.4549   -3.9779    6.9759 C   0  0  0  0  0  0  0  0  0  0  0  0
   -6.1165   -4.5172    8.2459 C   0  0  0  0  0  0  0  0  0  0  0  0
   -6.1053   -1.5634    6.3758 C   0  0  0  0  0  0  0  0  0  0  0  0
   -5.7516   -0.2231    6.6879 C   0  0  0  0  0  0  0  0  0  0  0  0
   -6.6041    1.1253    6.0545 Cl  0  0  0  0  0  0  0  0  0  0  0  0
   -7.3685   -1.9464    5.2793 Cl  0  0  0  0  0  0  0  0  0  0  0  0
   -3.9116    1.2429    9.4898 C   0  0  0  0  0  0  0  0  0  0  0  0
   -4.2926    0.0786   10.7253 S   0  0  0  0  0  0  0  0  0  0  0  0
   -3.6019    2.0961    5.8731 C   0  0  0  0  0  0  0  0  0  0  0  0
   -3.0755    3.2438    5.3486 C   0  0  0  0  0  0  0  0  0  0  0  0
   -2.6299    4.4039    6.5803 S   0  0  0  0  0  0  0  0  0  0  0  0
   -2.8174    3.5174    3.9857 C   0  0  0  0  0  0  0  0  0  0  0  0
   -3.2382    2.3922    2.7277 S   0  0  0  0  0  0  0  0  0  0  0  0
   -2.4949    3.3598    1.4947 C   0  0  0  0  0  0  0  0  0  0  0  0
   -1.9688    4.5200    2.0461 C   0  0  0  0  0  0  0  0  0  0  0  0
   -2.1525    4.6137    3.4514 C   0  0  0  0  0  0  0  0  0  0  0  0
   -1.6647    5.6650    4.1563 N   0  0  0  0  0  0  0  0  0  0  0  0
   -1.0492    6.5854    3.4752 C   0  0  0  0  0  0  0  0  0  0  0  0
   -0.5401    7.6610    4.0593 O   0  0  0  0  0  0  0  0  0  0  0  0
   -0.6228    7.7294    5.4816 C   0  0  0  0  0  0  0  0  0  0  0  0
    0.4290    6.8517    6.1453 C   0  0  0  0  0  0  0  0  0  0  0  0
   -0.8751    6.4960    2.0229 C   0  0  0  0  0  0  0  0  0  0  0  0
   -0.2509    7.5063    1.4375 O   0  0  0  0  0  0  0  0  0  0  0  0
   -0.0427    7.4148    0.0276 C   0  0  0  0  0  0  0  0  0  0  0  0
    1.1561    6.5403   -0.3095 C   0  0  0  0  0  0  0  0  0  0  0  0
   -1.3149    5.4775    1.3456 N   0  0  0  0  0  0  0  0  0  0  0  0
   -2.3519    2.9449    0.1515 C   0  0  0  0  0  0  0  0  0  0  0  0
   -2.8396    1.8186   -0.4503 C   0  0  0  0  0  0  0  0  0  0  0  0
   -2.3623    1.6410   -1.7681 C   0  0  0  0  0  0  0  0  0  0  0  0
   -2.5667    0.5435   -2.6222 C   0  0  0  0  0  0  0  0  0  0  0  0
   -3.3733   -0.5937   -2.2082 C   0  0  0  0  0  0  0  0  0  0  0  0
   -4.7154   -1.1459   -3.1644 S   0  0  0  0  0  0  0  0  0  0  0  0
   -5.0912   -2.4111   -2.0462 C   0  0  0  0  0  0  0  0  0  0  0  0
   -6.2704   -3.2974   -2.2476 C   0  0  0  0  0  0  0  0  0  0  0  0
   -7.5258   -2.6832   -1.6230 C   0  0  0  0  0  0  0  0  0  0  0  0
   -4.2190   -2.3933   -0.9988 C   0  0  0  0  0  0  0  0  0  0  0  0
   -4.2755   -3.4990    0.3121 Cl  0  0  0  0  0  0  0  0  0  0  0  0
   -3.2400   -1.3683   -1.0897 C   0  0  0  0  0  0  0  0  0  0  0  0
   -1.9777   -1.1919    0.0611 Cl  0  0  0  0  0  0  0  0  0  0  0  0
   -1.9201    0.5705   -3.8489 C   0  0  0  0  0  0  0  0  0  0  0  0
   -1.0781    1.6349   -4.2551 C   0  0  0  0  0  0  0  0  0  0  0  0
   -0.8943    2.7470   -3.4115 C   0  0  0  0  0  0  0  0  0  0  0  0
   -0.0142    3.8440   -3.7774 C   0  0  0  0  0  0  0  0  0  0  0  0
    1.6144    3.5457   -4.3148 S   0  0  0  0  0  0  0  0  0  0  0  0
    1.9638    5.2342   -4.4722 C   0  0  0  0  0  0  0  0  0  0  0  0
    3.2876    5.6973   -4.9715 C   0  0  0  0  0  0  0  0  0  0  0  0
    3.5363    5.2210   -6.4029 C   0  0  0  0  0  0  0  0  0  0  0  0
    0.8726    5.9715   -4.1248 C   0  0  0  0  0  0  0  0  0  0  0  0
   -0.2471    5.1903   -3.7269 C   0  0  0  0  0  0  0  0  0  0  0  0
   -1.7506    5.9029   -3.3217 Cl  0  0  0  0  0  0  0  0  0  0  0  0
    0.8230    7.6892   -4.1466 Cl  0  0  0  0  0  0  0  0  0  0  0  0
   -1.5332    2.7173   -2.1793 C   0  0  0  0  0  0  0  0  0  0  0  0
   -1.3428    3.8971   -0.9119 S   0  0  0  0  0  0  0  0  0  0  0  0
   -0.4692    1.3734   -5.5047 C   0  0  0  0  0  0  0  0  0  0  0  0
   -0.7874    0.1504   -6.0220 C   0  0  0  0  0  0  0  0  0  0  0  0
   -1.9269   -0.7187   -5.0180 S   0  0  0  0  0  0  0  0  0  0  0  0
   -0.2112   -0.4617   -7.1758 C   0  0  0  0  0  0  0  0  0  0  0  0
    0.9169   -0.0534   -7.8283 C   0  0  0  0  0  0  0  0  0  0  0  0
    1.3202   -0.9307   -8.8614 C   0  0  0  0  0  0  0  0  0  0  0  0
    2.4878   -0.8571   -9.6435 C   0  0  0  0  0  0  0  0  0  0  0  0
    3.3635    0.2991   -9.5756 C   0  0  0  0  0  0  0  0  0  0  0  0
    5.0788    0.1321   -9.3432 S   0  0  0  0  0  0  0  0  0  0  0  0
    5.3309    1.8440   -9.3830 C   0  0  0  0  0  0  0  0  0  0  0  0
    6.6981    2.4228   -9.2738 C   0  0  0  0  0  0  0  0  0  0  0  0
    7.4487    2.3054  -10.6020 C   0  0  0  0  0  0  0  0  0  0  0  0
    4.1483    2.4924   -9.5794 C   0  0  0  0  0  0  0  0  0  0  0  0
    3.9989    4.1973   -9.7031 Cl  0  0  0  0  0  0  0  0  0  0  0  0
    3.0300    1.6222   -9.6802 C   0  0  0  0  0  0  0  0  0  0  0  0
    1.4421    2.1999   -9.9857 Cl  0  0  0  0  0  0  0  0  0  0  0  0
    2.7670   -1.9486  -10.4543 C   0  0  0  0  0  0  0  0  0  0  0  0
    1.8987   -3.0616  -10.5704 C   0  0  0  0  0  0  0  0  0  0  0  0
    0.7002   -3.1077   -9.8353 C   0  0  0  0  0  0  0  0  0  0  0  0
   -0.1940   -4.2484   -9.9335 C   0  0  0  0  0  0  0  0  0  0  0  0
    0.4029   -5.8731   -9.7528 S   0  0  0  0  0  0  0  0  0  0  0  0
   -1.1629   -6.5651  -10.0047 C   0  0  0  0  0  0  0  0  0  0  0  0
   -1.3429   -8.0425  -10.0374 C   0  0  0  0  0  0  0  0  0  0  0  0
   -0.6411   -8.6553  -11.2511 C   0  0  0  0  0  0  0  0  0  0  0  0
   -2.0846   -5.5821  -10.2075 C   0  0  0  0  0  0  0  0  0  0  0  0
   -1.5424   -4.2685  -10.1597 C   0  0  0  0  0  0  0  0  0  0  0  0
   -2.4922   -2.8738  -10.4562 Cl  0  0  0  0  0  0  0  0  0  0  0  0
   -3.7507   -5.8721  -10.4998 Cl  0  0  0  0  0  0  0  0  0  0  0  0
    0.4493   -2.0432   -8.9792 C   0  0  0  0  0  0  0  0  0  0  0  0
   -0.8558   -1.9469   -7.8335 S   0  0  0  0  0  0  0  0  0  0  0  0
    2.4105   -4.0353  -11.4604 C   0  0  0  0  0  0  0  0  0  0  0  0
    3.6295   -3.7158  -11.9783 C   0  0  0  0  0  0  0  0  0  0  0  0
    4.1907   -2.1469  -11.4389 S   0  0  0  0  0  0  0  0  0  0  0  0
    4.4521   -4.5500  -12.7888 C   0  0  0  0  0  0  0  0  0  0  0  0
    5.7277   -4.3217  -13.2087 C   0  0  0  0  0  0  0  0  0  0  0  0
    6.2989   -5.4203  -13.8989 C   0  0  0  0  0  0  0  0  0  0  0  0
    7.5769   -5.5148  -14.4730 C   0  0  0  0  0  0  0  0  0  0  0  0
    8.5272   -4.4202  -14.3628 C   0  0  0  0  0  0  0  0  0  0  0  0
    8.9383   -3.7526  -12.8099 S   0  0  0  0  0  0  0  0  0  0  0  0
   10.0290   -2.6012  -13.5041 C   0  0  0  0  0  0  0  0  0  0  0  0
   10.7361   -1.6090  -12.6483 C   0  0  0  0  0  0  0  0  0  0  0  0
    9.7528   -0.6065  -12.0410 C   0  0  0  0  0  0  0  0  0  0  0  0
   10.0601   -2.7388  -14.8591 C   0  0  0  0  0  0  0  0  0  0  0  0
   11.0181   -1.7698  -15.9023 Cl  0  0  0  0  0  0  0  0  0  0  0  0
    9.2157   -3.7726  -15.3496 C   0  0  0  0  0  0  0  0  0  0  0  0
    9.0299   -4.0892  -17.0230 Cl  0  0  0  0  0  0  0  0  0  0  0  0
    7.8897   -6.7032  -15.1232 C   0  0  0  0  0  0  0  0  0  0  0  0
    6.9877   -7.7907  -15.2185 C   0  0  0  0  0  0  0  0  0  0  0  0
    5.7132   -7.6997  -14.6377 C   0  0  0  0  0  0  0  0  0  0  0  0
    4.7557   -8.7933  -14.6962 C   0  0  0  0  0  0  0  0  0  0  0  0
    4.2816   -9.4998  -16.2131 S   0  0  0  0  0  0  0  0  0  0  0  0
    3.1525  -10.5696  -15.4550 C   0  0  0  0  0  0  0  0  0  0  0  0
    2.3787  -11.5676  -16.2434 C   0  0  0  0  0  0  0  0  0  0  0  0
    3.1636  -12.8738  -16.3881 C   0  0  0  0  0  0  0  0  0  0  0  0
    3.1641  -10.3873  -14.1048 C   0  0  0  0  0  0  0  0  0  0  0  0
    4.0674   -9.3804  -13.6703 C   0  0  0  0  0  0  0  0  0  0  0  0
    4.3099   -9.0301  -12.0101 Cl  0  0  0  0  0  0  0  0  0  0  0  0
    2.1778  -11.2691  -13.0130 Cl  0  0  0  0  0  0  0  0  0  0  0  0
    5.3972   -6.5081  -13.9968 C   0  0  0  0  0  0  0  0  0  0  0  0
    3.8711   -6.1350  -13.2525 S   0  0  0  0  0  0  0  0  0  0  0  0
    7.5778   -8.9041  -15.8844 C   0  0  0  0  0  0  0  0  0  0  0  0
    8.8507   -8.6715  -16.2646 C   0  0  0  0  0  0  0  0  0  0  0  0
    9.4221   -7.0945  -15.8489 S   0  0  0  0  0  0  0  0  0  0  0  0
   -3.3112   -2.2334   20.7856 H   0  0  0  0  0  0  0  0  0  0  0  0
   -2.6470    0.1454   19.9608 H   0  0  0  0  0  0  0  0  0  0  0  0
   -2.6529    6.0200   18.6637 H   0  0  0  0  0  0  0  0  0  0  0  0
   -0.9616    5.9144   19.1880 H   0  0  0  0  0  0  0  0  0  0  0  0
   -0.2284    5.9559   16.8019 H   0  0  0  0  0  0  0  0  0  0  0  0
   -1.1998    7.3809   17.1851 H   0  0  0  0  0  0  0  0  0  0  0  0
   -1.9139    6.0406   16.2808 H   0  0  0  0  0  0  0  0  0  0  0  0
   -4.3846   -5.8333   12.1672 H   0  0  0  0  0  0  0  0  0  0  0  0
   -5.8836   -6.5270   12.8166 H   0  0  0  0  0  0  0  0  0  0  0  0
   -4.5741   -7.7069   14.5771 H   0  0  0  0  0  0  0  0  0  0  0  0
   -4.0102   -8.1569   12.9648 H   0  0  0  0  0  0  0  0  0  0  0  0
   -3.0800   -7.0136   13.9398 H   0  0  0  0  0  0  0  0  0  0  0  0
   -4.4242   -1.2709   13.1708 H   0  0  0  0  0  0  0  0  0  0  0  0
   -2.7436    3.0801   12.0562 H   0  0  0  0  0  0  0  0  0  0  0  0
    0.6672    7.6395    9.9634 H   0  0  0  0  0  0  0  0  0  0  0  0
   -0.1872    8.3263   11.3573 H   0  0  0  0  0  0  0  0  0  0  0  0
   -1.7604    9.4968    9.8401 H   0  0  0  0  0  0  0  0  0  0  0  0
   -0.0948    9.9455    9.4623 H   0  0  0  0  0  0  0  0  0  0  0  0
   -0.9573    8.7943    8.4336 H   0  0  0  0  0  0  0  0  0  0  0  0
   -4.4575   -4.4112    6.8771 H   0  0  0  0  0  0  0  0  0  0  0  0
   -6.0452   -4.2584    6.1022 H   0  0  0  0  0  0  0  0  0  0  0  0
   -6.1810   -5.6011    8.2024 H   0  0  0  0  0  0  0  0  0  0  0  0
   -7.1199   -4.1121    8.3496 H   0  0  0  0  0  0  0  0  0  0  0  0
   -5.5359   -4.2341    9.1209 H   0  0  0  0  0  0  0  0  0  0  0  0
   -3.9042    1.2684    5.2577 H   0  0  0  0  0  0  0  0  0  0  0  0
   -1.6237    7.4228    5.8012 H   0  0  0  0  0  0  0  0  0  0  0  0
   -0.4566    8.7844    5.7109 H   0  0  0  0  0  0  0  0  0  0  0  0
    0.4091    7.0033    7.2197 H   0  0  0  0  0  0  0  0  0  0  0  0
    1.4172    7.1011    5.7665 H   0  0  0  0  0  0  0  0  0  0  0  0
    0.2191    5.8056    5.9419 H   0  0  0  0  0  0  0  0  0  0  0  0
   -0.9439    7.0140   -0.4455 H   0  0  0  0  0  0  0  0  0  0  0  0
    0.1251    8.4452   -0.2924 H   0  0  0  0  0  0  0  0  0  0  0  0
    2.0424    6.9035    0.2050 H   0  0  0  0  0  0  0  0  0  0  0  0
    0.9633    5.5134   -0.0116 H   0  0  0  0  0  0  0  0  0  0  0  0
    1.3317    6.5659   -1.3803 H   0  0  0  0  0  0  0  0  0  0  0  0
   -3.5039    1.1393    0.0514 H   0  0  0  0  0  0  0  0  0  0  0  0
   -6.4311   -3.4487   -3.3160 H   0  0  0  0  0  0  0  0  0  0  0  0
   -6.0672   -4.2638   -1.7822 H   0  0  0  0  0  0  0  0  0  0  0  0
   -7.7440   -1.7221   -2.0825 H   0  0  0  0  0  0  0  0  0  0  0  0
   -7.3811   -2.5337   -0.5561 H   0  0  0  0  0  0  0  0  0  0  0  0
   -8.3770   -3.3423   -1.7702 H   0  0  0  0  0  0  0  0  0  0  0  0
    4.0775    5.3113   -4.3222 H   0  0  0  0  0  0  0  0  0  0  0  0
    3.3094    6.7874   -4.9309 H   0  0  0  0  0  0  0  0  0  0  0  0
    4.4963    5.5851   -6.7583 H   0  0  0  0  0  0  0  0  0  0  0  0
    3.5392    4.1341   -6.4445 H   0  0  0  0  0  0  0  0  0  0  0  0
    2.7584    5.5912   -7.0659 H   0  0  0  0  0  0  0  0  0  0  0  0
    0.1891    2.0611   -6.0006 H   0  0  0  0  0  0  0  0  0  0  0  0
    1.4768    0.8157   -7.5392 H   0  0  0  0  0  0  0  0  0  0  0  0
    7.2543    1.8952   -8.4967 H   0  0  0  0  0  0  0  0  0  0  0  0
    6.6106    3.4731   -8.9908 H   0  0  0  0  0  0  0  0  0  0  0  0
    7.5380    1.2616  -10.8923 H   0  0  0  0  0  0  0  0  0  0  0  0
    6.9163    2.8401  -11.3843 H   0  0  0  0  0  0  0  0  0  0  0  0
    8.4447    2.7291  -10.5069 H   0  0  0  0  0  0  0  0  0  0  0  0
   -2.4111   -8.2613  -10.0742 H   0  0  0  0  0  0  0  0  0  0  0  0
   -0.9300   -8.4802   -9.1256 H   0  0  0  0  0  0  0  0  0  0  0  0
   -0.7829   -9.7326  -11.2606 H   0  0  0  0  0  0  0  0  0  0  0  0
   -1.0470   -8.2431  -12.1717 H   0  0  0  0  0  0  0  0  0  0  0  0
    0.4255   -8.4451  -11.2175 H   0  0  0  0  0  0  0  0  0  0  0  0
    1.9108   -4.9556  -11.7003 H   0  0  0  0  0  0  0  0  0  0  0  0
    6.2404   -3.3968  -13.0171 H   0  0  0  0  0  0  0  0  0  0  0  0
   11.4716   -1.0855  -13.2607 H   0  0  0  0  0  0  0  0  0  0  0  0
   11.2609   -2.1297  -11.8441 H   0  0  0  0  0  0  0  0  0  0  0  0
    9.0234   -1.1241  -11.4219 H   0  0  0  0  0  0  0  0  0  0  0  0
    9.2261   -0.0710  -12.8272 H   0  0  0  0  0  0  0  0  0  0  0  0
   10.2859    0.1137  -11.4262 H   0  0  0  0  0  0  0  0  0  0  0  0
    1.4355  -11.7642  -15.7301 H   0  0  0  0  0  0  0  0  0  0  0  0
    2.1623  -11.1609  -17.2324 H   0  0  0  0  0  0  0  0  0  0  0  0
    4.1022  -12.6948  -16.9071 H   0  0  0  0  0  0  0  0  0  0  0  0
    3.3814  -13.2923  -15.4087 H   0  0  0  0  0  0  0  0  0  0  0  0
    2.5838  -13.5969  -16.9550 H   0  0  0  0  0  0  0  0  0  0  0  0
    7.0636   -9.8313  -16.0573 H   0  0  0  0  0  0  0  0  0  0  0  0
    9.5161   -9.3375  -16.7783 H   0  0  0  0  0  0  0  0  0  0  0  0
  1  2  2  0  0  0  0
  2  3  1  0  0  0  0
  3  4  2  0  0  0  0
  4  5  1  0  0  0  0
  5  6  1  0  0  0  0
  6  7  1  0  0  0  0
  7  8  1  0  0  0  0
  8  9  1  0  0  0  0
  7 10  2  0  0  0  0
 10 11  1  0  0  0  0
 10 12  1  0  0  0  0
 12 13  1  0  0  0  0
  4 14  1  0  0  0  0
 14 15  2  0  0  0  0
 15 16  1  0  0  0  0
 16 17  1  0  0  0  0
 17 18  1  0  0  0  0
 18 19  1  0  0  0  0
 19 20  1  0  0  0  0
 20 21  1  0  0  0  0
 19 22  2  0  0  0  0
 22 23  1  0  0  0  0
 23 24  1  0  0  0  0
 22 25  1  0  0  0  0
 16 26  2  0  0  0  0
 26 27  1  0  0  0  0
 15 28  1  0  0  0  0
 28 29  2  0  0  0  0
 29 30  1  0  0  0  0
 29 31  1  0  0  0  0
 31 32  2  0  0  0  0
 32 33  1  0  0  0  0
 33 34  2  0  0  0  0
 34 35  1  0  0  0  0
 35 36  1  0  0  0  0
 36 37  1  0  0  0  0
 37 38  1  0  0  0  0
 38 39  1  0  0  0  0
 37 40  2  0  0  0  0
 40 41  1  0  0  0  0
 40 42  1  0  0  0  0
 42 43  1  0  0  0  0
 34 44  1  0  0  0  0
 44 45  2  0  0  0  0
 45 46  1  0  0  0  0
 46 47  1  0  0  0  0
 47 48  1  0  0  0  0
 48 49  1  0  0  0  0
 49 50  1  0  0  0  0
 50 51  1  0  0  0  0
 49 52  2  0  0  0  0
 52 53  1  0  0  0  0
 53 54  1  0  0  0  0
 52 55  1  0  0  0  0
 46 56  2  0  0  0  0
 56 57  1  0  0  0  0
 45 58  1  0  0  0  0
 58 59  2  0  0  0  0
 59 60  1  0  0  0  0
 59 61  1  0  0  0  0
 61 62  1  0  0  0  0
 62 63  1  0  0  0  0
 63 64  2  0  0  0  0
 64 65  1  0  0  0  0
 65 66  1  0  0  0  0
 66 67  2  0  0  0  0
 67 68  1  0  0  0  0
 68 69  1  0  0  0  0
 69 70  1  0  0  0  0
 67 71  1  0  0  0  0
 71 72  1  0  0  0  0
 72 73  1  0  0  0  0
 73 74  1  0  0  0  0
 71 75  2  0  0  0  0
 63 76  1  0  0  0  0
 76 77  2  0  0  0  0
 77 78  1  0  0  0  0
 78 79  2  0  0  0  0
 79 80  1  0  0  0  0
 80 81  1  0  0  0  0
 81 82  1  0  0  0  0
 82 83  1  0  0  0  0
 83 84  1  0  0  0  0
 82 85  2  0  0  0  0
 85 86  1  0  0  0  0
 85 87  1  0  0  0  0
 87 88  1  0  0  0  0
 79 89  1  0  0  0  0
 89 90  2  0  0  0  0
 90 91  1  0  0  0  0
 91 92  1  0  0  0  0
 92 93  1  0  0  0  0
 93 94  1  0  0  0  0
 94 95  1  0  0  0  0
 95 96  1  0  0  0  0
 94 97  2  0  0  0  0
 97 98  1  0  0  0  0
 98 99  1  0  0  0  0
 97100  1  0  0  0  0
 91101  2  0  0  0  0
101102  1  0  0  0  0
 90103  1  0  0  0  0
103104  2  0  0  0  0
104105  1  0  0  0  0
104106  1  0  0  0  0
106107  2  0  0  0  0
107108  1  0  0  0  0
108109  2  0  0  0  0
109110  1  0  0  0  0
110111  1  0  0  0  0
111112  1  0  0  0  0
112113  1  0  0  0  0
113114  1  0  0  0  0
112115  2  0  0  0  0
115116  1  0  0  0  0
115117  1  0  0  0  0
117118  1  0  0  0  0
109119  1  0  0  0  0
119120  2  0  0  0  0
120121  1  0  0  0  0
121122  1  0  0  0  0
122123  1  0  0  0  0
123124  1  0  0  0  0
124125  1  0  0  0  0
125126  1  0  0  0  0
124127  2  0  0  0  0
127128  1  0  0  0  0
128129  1  0  0  0  0
127130  1  0  0  0  0
121131  2  0  0  0  0
131132  1  0  0  0  0
120133  1  0  0  0  0
133134  2  0  0  0  0
134135  1  0  0  0  0
134136  1  0  0  0  0
136137  2  0  0  0  0
137138  1  0  0  0  0
138139  2  0  0  0  0
139140  1  0  0  0  0
140141  1  0  0  0  0
141142  1  0  0  0  0
142143  1  0  0  0  0
143144  1  0  0  0  0
142145  2  0  0  0  0
145146  1  0  0  0  0
145147  1  0  0  0  0
147148  1  0  0  0  0
139149  1  0  0  0  0
149150  2  0  0  0  0
150151  1  0  0  0  0
151152  1  0  0  0  0
152153  1  0  0  0  0
153154  1  0  0  0  0
154155  1  0  0  0  0
155156  1  0  0  0  0
154157  2  0  0  0  0
157158  1  0  0  0  0
158159  1  0  0  0  0
157160  1  0  0  0  0
151161  2  0  0  0  0
161162  1  0  0  0  0
150163  1  0  0  0  0
163164  2  0  0  0  0
164165  1  0  0  0  0
 27  1  1  0  0  0  0
 57 31  1  0  0  0  0
 65 61  2  0  0  0  0
102 76  1  0  0  0  0
132106  1  0  0  0  0
162136  1  0  0  0  0
 26  3  1  0  0  0  0
 56 33  1  0  0  0  0
 75 64  1  0  0  0  0
101 78  1  0  0  0  0
131108  1  0  0  0  0
161138  1  0  0  0  0
 12  5  2  0  0  0  0
 30 14  1  0  0  0  0
 42 35  2  0  0  0  0
 60 44  1  0  0  0  0
 87 80  2  0  0  0  0
105 89  1  0  0  0  0
117110  2  0  0  0  0
135119  1  0  0  0  0
147140  2  0  0  0  0
165149  1  0  0  0  0
 23 17  2  0  0  0  0
 53 47  2  0  0  0  0
 98 92  2  0  0  0  0
128122  2  0  0  0  0
158152  2  0  0  0  0
  1166  1  0  0  0  0
  2167  1  0  0  0  0
  8168  1  0  0  0  0
  8169  1  0  0  0  0
  9170  1  0  0  0  0
  9171  1  0  0  0  0
  9172  1  0  0  0  0
 20173  1  0  0  0  0
 20174  1  0  0  0  0
 21175  1  0  0  0  0
 21176  1  0  0  0  0
 21177  1  0  0  0  0
 28178  1  0  0  0  0
 32179  1  0  0  0  0
 38180  1  0  0  0  0
 38181  1  0  0  0  0
 39182  1  0  0  0  0
 39183  1  0  0  0  0
 39184  1  0  0  0  0
 50185  1  0  0  0  0
 50186  1  0  0  0  0
 51187  1  0  0  0  0
 51188  1  0  0  0  0
 51189  1  0  0  0  0
 58190  1  0  0  0  0
 69191  1  0  0  0  0
 69192  1  0  0  0  0
 70193  1  0  0  0  0
 70194  1  0  0  0  0
 70195  1  0  0  0  0
 73196  1  0  0  0  0
 73197  1  0  0  0  0
 74198  1  0  0  0  0
 74199  1  0  0  0  0
 74200  1  0  0  0  0
 77201  1  0  0  0  0
 83202  1  0  0  0  0
 83203  1  0  0  0  0
 84204  1  0  0  0  0
 84205  1  0  0  0  0
 84206  1  0  0  0  0
 95207  1  0  0  0  0
 95208  1  0  0  0  0
 96209  1  0  0  0  0
 96210  1  0  0  0  0
 96211  1  0  0  0  0
103212  1  0  0  0  0
107213  1  0  0  0  0
113214  1  0  0  0  0
113215  1  0  0  0  0
114216  1  0  0  0  0
114217  1  0  0  0  0
114218  1  0  0  0  0
125219  1  0  0  0  0
125220  1  0  0  0  0
126221  1  0  0  0  0
126222  1  0  0  0  0
126223  1  0  0  0  0
133224  1  0  0  0  0
137225  1  0  0  0  0
143226  1  0  0  0  0
143227  1  0  0  0  0
144228  1  0  0  0  0
144229  1  0  0  0  0
144230  1  0  0  0  0
155231  1  0  0  0  0
155232  1  0  0  0  0
156233  1  0  0  0  0
156234  1  0  0  0  0
156235  1  0  0  0  0
163236  1  0  0  0  0
164237  1  0  0  0  0
M  END
