
  xtb     03032211453D
 energy: -504.696704060473 gnorm: 0.000415586118 xtb: 6.4.1 (unknown)
258287  0     0  0            999 V2000
    2.4081  -11.5421    2.6390 C   0  0  0  0  0  0  0  0  0  0  0  0
    2.6141  -10.6887    1.6152 C   0  0  0  0  0  0  0  0  0  0  0  0
    1.6466   -9.6425    1.5591 C   0  0  0  0  0  0  0  0  0  0  0  0
    1.5328   -8.6033    0.6180 C   0  0  0  0  0  0  0  0  0  0  0  0
    2.5925   -8.2922   -0.3225 C   0  0  0  0  0  0  0  0  0  0  0  0
    2.2351   -7.8214   -1.9601 S   0  0  0  0  0  0  0  0  0  0  0  0
    3.8937   -7.5003   -2.3224 C   0  0  0  0  0  0  0  0  0  0  0  0
    4.2980   -6.9464   -3.6431 C   0  0  0  0  0  0  0  0  0  0  0  0
    4.1044   -5.4281   -3.6698 C   0  0  0  0  0  0  0  0  0  0  0  0
    4.6711   -7.7467   -1.2309 C   0  0  0  0  0  0  0  0  0  0  0  0
    6.3717   -7.5048   -1.2027 Cl  0  0  0  0  0  0  0  0  0  0  0  0
    3.9437   -8.2082   -0.1021 C   0  0  0  0  0  0  0  0  0  0  0  0
    4.7273   -8.5423    1.3851 Cl  0  0  0  0  0  0  0  0  0  0  0  0
    0.3574   -7.8553    0.6577 C   0  0  0  0  0  0  0  0  0  0  0  0
   -0.6360   -8.0315    1.6517 C   0  0  0  0  0  0  0  0  0  0  0  0
   -0.4567   -8.9858    2.6670 C   0  0  0  0  0  0  0  0  0  0  0  0
   -1.4307   -9.1521    3.7329 C   0  0  0  0  0  0  0  0  0  0  0  0
   -3.1155   -9.4276    3.3940 S   0  0  0  0  0  0  0  0  0  0  0  0
   -3.5224   -9.5222    5.0733 C   0  0  0  0  0  0  0  0  0  0  0  0
   -4.9343   -9.6881    5.5131 C   0  0  0  0  0  0  0  0  0  0  0  0
   -5.6706   -8.3466    5.4841 C   0  0  0  0  0  0  0  0  0  0  0  0
   -2.4096   -9.3438    5.8393 C   0  0  0  0  0  0  0  0  0  0  0  0
   -1.2233   -9.1418    5.0839 C   0  0  0  0  0  0  0  0  0  0  0  0
    0.2878   -8.8277    5.8206 Cl  0  0  0  0  0  0  0  0  0  0  0  0
   -2.4136   -9.3602    7.5560 Cl  0  0  0  0  0  0  0  0  0  0  0  0
    0.6755   -9.7859    2.5796 C   0  0  0  0  0  0  0  0  0  0  0  0
    1.0322  -11.1455    3.6073 S   0  0  0  0  0  0  0  0  0  0  0  0
   -1.7262   -7.1435    1.4822 C   0  0  0  0  0  0  0  0  0  0  0  0
   -1.5990   -6.3317    0.3942 C   0  0  0  0  0  0  0  0  0  0  0  0
   -0.0921   -6.5945   -0.4543 S   0  0  0  0  0  0  0  0  0  0  0  0
   -2.5356   -5.3609   -0.0747 C   0  0  0  0  0  0  0  0  0  0  0  0
   -3.6607   -4.9190    0.5579 C   0  0  0  0  0  0  0  0  0  0  0  0
   -4.3567   -3.9127   -0.1548 C   0  0  0  0  0  0  0  0  0  0  0  0
   -5.5146   -3.2154    0.2500 C   0  0  0  0  0  0  0  0  0  0  0  0
   -6.2656   -3.5902    1.4297 C   0  0  0  0  0  0  0  0  0  0  0  0
   -6.8951   -2.7761    2.3309 C   0  0  0  0  0  0  0  0  0  0  0  0
   -7.5726   -3.4849    3.3425 C   0  0  0  0  0  0  0  0  0  0  0  0
   -8.3908   -2.6843    4.6244 Cl  0  0  0  0  0  0  0  0  0  0  0  0
   -7.4964   -4.8456    3.2094 C   0  0  0  0  0  0  0  0  0  0  0  0
   -8.1703   -6.1073    4.2169 S   0  0  0  0  0  0  0  0  0  0  0  0
   -9.9574   -5.7119    4.1138 C   0  0  0  0  0  0  0  0  0  0  0  0
  -10.4729   -5.8019    2.6924 C   0  0  0  0  0  0  0  0  0  0  0  0
   -6.5475   -5.2661    1.8177 S   0  0  0  0  0  0  0  0  0  0  0  0
   -5.8914   -2.1366   -0.5450 C   0  0  0  0  0  0  0  0  0  0  0  0
   -5.2474   -1.8148   -1.7647 C   0  0  0  0  0  0  0  0  0  0  0  0
   -4.1652   -2.5899   -2.2328 C   0  0  0  0  0  0  0  0  0  0  0  0
   -3.5606   -2.3571   -3.5235 C   0  0  0  0  0  0  0  0  0  0  0  0
   -4.5534   -1.9081   -4.8914 S   0  0  0  0  0  0  0  0  0  0  0  0
   -3.1864   -1.8872   -5.9568 C   0  0  0  0  0  0  0  0  0  0  0  0
   -3.2689   -1.5402   -7.6619 S   0  0  0  0  0  0  0  0  0  0  0  0
   -4.9898   -0.9514   -7.8425 C   0  0  0  0  0  0  0  0  0  0  0  0
   -5.1682    0.4657   -7.3357 C   0  0  0  0  0  0  0  0  0  0  0  0
   -2.0452   -2.2226   -5.2727 C   0  0  0  0  0  0  0  0  0  0  0  0
   -2.2550   -2.4949   -3.9084 C   0  0  0  0  0  0  0  0  0  0  0  0
   -0.5065   -2.2976   -6.0297 Cl  0  0  0  0  0  0  0  0  0  0  0  0
   -3.7095   -3.5863   -1.3720 C   0  0  0  0  0  0  0  0  0  0  0  0
   -2.2965   -4.5728   -1.6153 S   0  0  0  0  0  0  0  0  0  0  0  0
   -5.7353   -0.6053   -2.3129 C   0  0  0  0  0  0  0  0  0  0  0  0
   -6.7070   -0.0081   -1.5623 C   0  0  0  0  0  0  0  0  0  0  0  0
   -7.1411   -0.9783   -0.1736 S   0  0  0  0  0  0  0  0  0  0  0  0
   -7.1168    1.3558   -1.6779 C   0  0  0  0  0  0  0  0  0  0  0  0
   -6.8091    2.2151   -2.6943 C   0  0  0  0  0  0  0  0  0  0  0  0
   -6.9324    3.5793   -2.3368 C   0  0  0  0  0  0  0  0  0  0  0  0
   -6.4399    4.6953   -3.0393 C   0  0  0  0  0  0  0  0  0  0  0  0
   -5.7614    4.5714   -4.3189 C   0  0  0  0  0  0  0  0  0  0  0  0
   -4.7495    3.7115   -4.6388 C   0  0  0  0  0  0  0  0  0  0  0  0
   -4.1870    3.9651   -5.9064 C   0  0  0  0  0  0  0  0  0  0  0  0
   -2.8396    3.0731   -6.4956 Cl  0  0  0  0  0  0  0  0  0  0  0  0
   -4.7836    5.0013   -6.5740 C   0  0  0  0  0  0  0  0  0  0  0  0
   -4.4315    5.6875   -8.1401 S   0  0  0  0  0  0  0  0  0  0  0  0
   -4.3658    4.1780   -9.1945 C   0  0  0  0  0  0  0  0  0  0  0  0
   -4.7875    4.5353  -10.6052 C   0  0  0  0  0  0  0  0  0  0  0  0
   -6.0582    5.6912   -5.6149 S   0  0  0  0  0  0  0  0  0  0  0  0
   -6.4016    5.8967   -2.3471 C   0  0  0  0  0  0  0  0  0  0  0  0
   -6.8132    6.0408   -0.9980 C   0  0  0  0  0  0  0  0  0  0  0  0
   -7.3882    4.9453   -0.3256 C   0  0  0  0  0  0  0  0  0  0  0  0
   -7.7609    5.0040    1.0756 C   0  0  0  0  0  0  0  0  0  0  0  0
   -9.2876    4.3380    1.5968 S   0  0  0  0  0  0  0  0  0  0  0  0
   -8.9529    4.7301    3.2541 C   0  0  0  0  0  0  0  0  0  0  0  0
  -10.0049    4.3540    4.5918 S   0  0  0  0  0  0  0  0  0  0  0  0
  -11.5291    3.8306    3.7318 C   0  0  0  0  0  0  0  0  0  0  0  0
  -12.3072    5.0058    3.1742 C   0  0  0  0  0  0  0  0  0  0  0  0
   -7.7223    5.3240    3.3667 C   0  0  0  0  0  0  0  0  0  0  0  0
   -7.0500    5.4795    2.1388 C   0  0  0  0  0  0  0  0  0  0  0  0
   -7.0646    5.8205    4.8721 Cl  0  0  0  0  0  0  0  0  0  0  0  0
   -7.4246    3.7397   -1.0189 C   0  0  0  0  0  0  0  0  0  0  0  0
   -7.7576    2.1959   -0.2802 S   0  0  0  0  0  0  0  0  0  0  0  0
   -6.2996    7.2284   -0.4184 C   0  0  0  0  0  0  0  0  0  0  0  0
   -5.4481    7.9106   -1.2425 C   0  0  0  0  0  0  0  0  0  0  0  0
   -5.4963    7.2842   -2.8872 S   0  0  0  0  0  0  0  0  0  0  0  0
   -4.2561    8.5796   -0.8281 C   0  0  0  0  0  0  0  0  0  0  0  0
   -3.1406    8.7058   -1.6090 C   0  0  0  0  0  0  0  0  0  0  0  0
   -1.9313    8.5796   -0.8850 C   0  0  0  0  0  0  0  0  0  0  0  0
   -0.6635    8.2994   -1.4176 C   0  0  0  0  0  0  0  0  0  0  0  0
   -0.4741    8.2147   -2.8626 C   0  0  0  0  0  0  0  0  0  0  0  0
    0.6139    9.2408   -3.7395 S   0  0  0  0  0  0  0  0  0  0  0  0
    0.2263    8.4868   -5.2505 C   0  0  0  0  0  0  0  0  0  0  0  0
    0.9013    8.8999   -6.5114 C   0  0  0  0  0  0  0  0  0  0  0  0
    2.2787    8.2438   -6.6322 C   0  0  0  0  0  0  0  0  0  0  0  0
   -0.6830    7.4887   -5.0649 C   0  0  0  0  0  0  0  0  0  0  0  0
   -1.3158    6.5074   -6.3209 Cl  0  0  0  0  0  0  0  0  0  0  0  0
   -1.0830    7.3332   -3.7107 C   0  0  0  0  0  0  0  0  0  0  0  0
   -2.1800    6.1097   -3.2060 Cl  0  0  0  0  0  0  0  0  0  0  0  0
    0.3168    7.8819   -0.5306 C   0  0  0  0  0  0  0  0  0  0  0  0
    0.0778    7.7231    0.8564 C   0  0  0  0  0  0  0  0  0  0  0  0
   -1.1789    8.0478    1.3965 C   0  0  0  0  0  0  0  0  0  0  0  0
   -1.4832    7.7750    2.7963 C   0  0  0  0  0  0  0  0  0  0  0  0
   -0.6856    8.6122    4.0908 S   0  0  0  0  0  0  0  0  0  0  0  0
   -1.5689    7.7416    5.2995 C   0  0  0  0  0  0  0  0  0  0  0  0
   -1.3099    7.9575    6.7494 C   0  0  0  0  0  0  0  0  0  0  0  0
   -0.1355    7.0988    7.2257 C   0  0  0  0  0  0  0  0  0  0  0  0
   -2.4157    6.8461    4.7177 C   0  0  0  0  0  0  0  0  0  0  0  0
   -2.3682    6.8633    3.2977 C   0  0  0  0  0  0  0  0  0  0  0  0
   -3.2709    5.7730    2.3316 Cl  0  0  0  0  0  0  0  0  0  0  0  0
   -3.4576    5.7974    5.5897 Cl  0  0  0  0  0  0  0  0  0  0  0  0
   -2.1585    8.4607    0.5098 C   0  0  0  0  0  0  0  0  0  0  0  0
   -3.8539    8.6209    0.8866 S   0  0  0  0  0  0  0  0  0  0  0  0
    1.1086    6.9833    1.4868 C   0  0  0  0  0  0  0  0  0  0  0  0
    2.0907    6.5797    0.6315 C   0  0  0  0  0  0  0  0  0  0  0  0
    1.8543    7.2051   -0.9927 S   0  0  0  0  0  0  0  0  0  0  0  0
    3.0754    5.5717    0.8587 C   0  0  0  0  0  0  0  0  0  0  0  0
    4.0958    5.1855    0.0423 C   0  0  0  0  0  0  0  0  0  0  0  0
    4.7072    3.9687    0.4361 C   0  0  0  0  0  0  0  0  0  0  0  0
    5.7051    3.2468   -0.2452 C   0  0  0  0  0  0  0  0  0  0  0  0
    6.4266    3.8408   -1.3541 C   0  0  0  0  0  0  0  0  0  0  0  0
    6.6670    2.9972   -2.8550 S   0  0  0  0  0  0  0  0  0  0  0  0
    7.5563    4.3126   -3.5420 C   0  0  0  0  0  0  0  0  0  0  0  0
    8.1460    4.2128   -4.9050 C   0  0  0  0  0  0  0  0  0  0  0  0
    9.4668    3.4403   -4.8690 C   0  0  0  0  0  0  0  0  0  0  0  0
    7.6638    5.3336   -2.6448 C   0  0  0  0  0  0  0  0  0  0  0  0
    8.4907    6.8039   -2.9608 Cl  0  0  0  0  0  0  0  0  0  0  0  0
    7.0197    5.0741   -1.4063 C   0  0  0  0  0  0  0  0  0  0  0  0
    7.0751    6.1775   -0.0928 Cl  0  0  0  0  0  0  0  0  0  0  0  0
    5.9459    1.9485    0.1881 C   0  0  0  0  0  0  0  0  0  0  0  0
    5.2824    1.3771    1.3010 C   0  0  0  0  0  0  0  0  0  0  0  0
    4.3566    2.1331    2.0436 C   0  0  0  0  0  0  0  0  0  0  0  0
    3.6558    1.5564    3.1779 C   0  0  0  0  0  0  0  0  0  0  0  0
    2.8622    0.0125    3.0423 S   0  0  0  0  0  0  0  0  0  0  0  0
    2.3123    0.0553    4.6832 C   0  0  0  0  0  0  0  0  0  0  0  0
    1.5209   -1.0688    5.2574 C   0  0  0  0  0  0  0  0  0  0  0  0
    2.1323   -2.4282    4.9235 C   0  0  0  0  0  0  0  0  0  0  0  0
    2.7173    1.2103    5.2825 C   0  0  0  0  0  0  0  0  0  0  0  0
    3.4730    2.0649    4.4335 C   0  0  0  0  0  0  0  0  0  0  0  0
    4.1545    3.5360    4.9869 Cl  0  0  0  0  0  0  0  0  0  0  0  0
    2.3687    1.6203    6.9124 Cl  0  0  0  0  0  0  0  0  0  0  0  0
    4.0884    3.4164    1.5855 C   0  0  0  0  0  0  0  0  0  0  0  0
    2.8530    4.4713    2.2071 S   0  0  0  0  0  0  0  0  0  0  0  0
    5.6793    0.0377    1.5198 C   0  0  0  0  0  0  0  0  0  0  0  0
    6.5896   -0.4191    0.6126 C   0  0  0  0  0  0  0  0  0  0  0  0
    7.0493    0.8137   -0.5396 S   0  0  0  0  0  0  0  0  0  0  0  0
    7.1116   -1.7480    0.5541 C   0  0  0  0  0  0  0  0  0  0  0  0
    6.5921   -2.8393    1.1871 C   0  0  0  0  0  0  0  0  0  0  0  0
    7.3367   -4.0241    0.9732 C   0  0  0  0  0  0  0  0  0  0  0  0
    7.1061   -5.2969    1.5209 C   0  0  0  0  0  0  0  0  0  0  0  0
    5.8908   -5.5797    2.2649 C   0  0  0  0  0  0  0  0  0  0  0  0
    5.9257   -6.3422    3.8255 S   0  0  0  0  0  0  0  0  0  0  0  0
    4.1984   -6.3819    3.9334 C   0  0  0  0  0  0  0  0  0  0  0  0
    3.5232   -7.0448    5.0816 C   0  0  0  0  0  0  0  0  0  0  0  0
    3.6955   -8.5628    4.9978 C   0  0  0  0  0  0  0  0  0  0  0  0
    3.6420   -5.8278    2.8199 C   0  0  0  0  0  0  0  0  0  0  0  0
    1.9496   -5.7106    2.5532 Cl  0  0  0  0  0  0  0  0  0  0  0  0
    4.5965   -5.3656    1.8745 C   0  0  0  0  0  0  0  0  0  0  0  0
    4.1364   -4.7134    0.3544 Cl  0  0  0  0  0  0  0  0  0  0  0  0
    8.0716   -6.2680    1.2810 C   0  0  0  0  0  0  0  0  0  0  0  0
    9.1992   -6.0411    0.4546 C   0  0  0  0  0  0  0  0  0  0  0  0
    9.4063   -4.7792   -0.1240 C   0  0  0  0  0  0  0  0  0  0  0  0
   10.5708   -4.5003   -0.9491 C   0  0  0  0  0  0  0  0  0  0  0  0
   10.4111   -3.8318   -2.5452 S   0  0  0  0  0  0  0  0  0  0  0  0
   12.1242   -3.7840   -2.7804 C   0  0  0  0  0  0  0  0  0  0  0  0
   12.7164   -3.3212   -4.0657 C   0  0  0  0  0  0  0  0  0  0  0  0
   12.8388   -4.4771   -5.0615 C   0  0  0  0  0  0  0  0  0  0  0  0
   12.7680   -4.2672   -1.6803 C   0  0  0  0  0  0  0  0  0  0  0  0
   11.8909   -4.6701   -0.6380 C   0  0  0  0  0  0  0  0  0  0  0  0
   12.4562   -5.2345    0.8818 Cl  0  0  0  0  0  0  0  0  0  0  0  0
   14.4752   -4.3722   -1.5405 Cl  0  0  0  0  0  0  0  0  0  0  0  0
    8.4668   -3.7953    0.1531 C   0  0  0  0  0  0  0  0  0  0  0  0
    8.5479   -2.1351   -0.3669 S   0  0  0  0  0  0  0  0  0  0  0  0
    9.9820   -7.2219    0.2997 C   0  0  0  0  0  0  0  0  0  0  0  0
    9.4925   -8.2682    0.9955 C   0  0  0  0  0  0  0  0  0  0  0  0
    8.0475   -7.9053    1.8701 S   0  0  0  0  0  0  0  0  0  0  0  0
    2.9849  -12.4078    2.8991 H   0  0  0  0  0  0  0  0  0  0  0  0
    3.3994  -10.8114    0.8935 H   0  0  0  0  0  0  0  0  0  0  0  0
    3.6940   -7.4032   -4.4291 H   0  0  0  0  0  0  0  0  0  0  0  0
    5.3478   -7.1868   -3.8212 H   0  0  0  0  0  0  0  0  0  0  0  0
    3.0608   -5.1786   -3.4927 H   0  0  0  0  0  0  0  0  0  0  0  0
    4.7097   -4.9566   -2.8992 H   0  0  0  0  0  0  0  0  0  0  0  0
    4.4002   -5.0298   -4.6365 H   0  0  0  0  0  0  0  0  0  0  0  0
   -4.9398  -10.0894    6.5280 H   0  0  0  0  0  0  0  0  0  0  0  0
   -5.4419  -10.3941    4.8536 H   0  0  0  0  0  0  0  0  0  0  0  0
   -6.6971   -8.4726    5.8149 H   0  0  0  0  0  0  0  0  0  0  0  0
   -5.6849   -7.9412    4.4755 H   0  0  0  0  0  0  0  0  0  0  0  0
   -5.1807   -7.6313    6.1394 H   0  0  0  0  0  0  0  0  0  0  0  0
   -2.5804   -7.1247    2.1321 H   0  0  0  0  0  0  0  0  0  0  0  0
   -3.9568   -5.2734    1.5268 H   0  0  0  0  0  0  0  0  0  0  0  0
   -6.8436   -1.7035    2.3152 H   0  0  0  0  0  0  0  0  0  0  0  0
  -10.4247   -6.4569    4.7565 H   0  0  0  0  0  0  0  0  0  0  0  0
  -10.1080   -4.7216    4.5391 H   0  0  0  0  0  0  0  0  0  0  0  0
   -9.9963   -5.0529    2.0624 H   0  0  0  0  0  0  0  0  0  0  0  0
  -11.5469   -5.6286    2.6804 H   0  0  0  0  0  0  0  0  0  0  0  0
  -10.2721   -6.7859    2.2745 H   0  0  0  0  0  0  0  0  0  0  0  0
   -5.1813   -1.0113   -8.9135 H   0  0  0  0  0  0  0  0  0  0  0  0
   -5.6362   -1.6570   -7.3209 H   0  0  0  0  0  0  0  0  0  0  0  0
   -4.4967    1.1402   -7.8610 H   0  0  0  0  0  0  0  0  0  0  0  0
   -4.9527    0.5267   -6.2718 H   0  0  0  0  0  0  0  0  0  0  0  0
   -6.1946    0.7888   -7.4982 H   0  0  0  0  0  0  0  0  0  0  0  0
   -1.4512   -2.7398   -3.2402 H   0  0  0  0  0  0  0  0  0  0  0  0
   -5.3139   -0.1379   -3.1823 H   0  0  0  0  0  0  0  0  0  0  0  0
   -6.4539    1.8893   -3.6539 H   0  0  0  0  0  0  0  0  0  0  0  0
   -4.3605    2.9670   -3.9684 H   0  0  0  0  0  0  0  0  0  0  0  0
   -3.3466    3.7947   -9.1718 H   0  0  0  0  0  0  0  0  0  0  0  0
   -5.0446    3.4544   -8.7462 H   0  0  0  0  0  0  0  0  0  0  0  0
   -4.7492    3.6496  -11.2360 H   0  0  0  0  0  0  0  0  0  0  0  0
   -4.1227    5.2885  -11.0213 H   0  0  0  0  0  0  0  0  0  0  0  0
   -5.8013    4.9287  -10.6120 H   0  0  0  0  0  0  0  0  0  0  0  0
  -11.2395    3.1257    2.9523 H   0  0  0  0  0  0  0  0  0  0  0  0
  -12.1018    3.3074    4.4970 H   0  0  0  0  0  0  0  0  0  0  0  0
  -11.7208    5.5393    2.4298 H   0  0  0  0  0  0  0  0  0  0  0  0
  -13.2200    4.6492    2.7019 H   0  0  0  0  0  0  0  0  0  0  0  0
  -12.5722    5.6971    3.9706 H   0  0  0  0  0  0  0  0  0  0  0  0
   -6.0567    5.8821    2.0712 H   0  0  0  0  0  0  0  0  0  0  0  0
   -6.4356    7.4939    0.6135 H   0  0  0  0  0  0  0  0  0  0  0  0
   -3.1873    8.7355   -2.6826 H   0  0  0  0  0  0  0  0  0  0  0  0
    1.0142    9.9854   -6.5251 H   0  0  0  0  0  0  0  0  0  0  0  0
    0.2764    8.6017   -7.3551 H   0  0  0  0  0  0  0  0  0  0  0  0
    2.7604    8.5542   -7.5555 H   0  0  0  0  0  0  0  0  0  0  0  0
    2.1810    7.1611   -6.6360 H   0  0  0  0  0  0  0  0  0  0  0  0
    2.9085    8.5327   -5.7941 H   0  0  0  0  0  0  0  0  0  0  0  0
   -2.2086    7.6906    7.3085 H   0  0  0  0  0  0  0  0  0  0  0  0
   -1.0860    9.0108    6.9267 H   0  0  0  0  0  0  0  0  0  0  0  0
    0.7680    7.3565    6.6779 H   0  0  0  0  0  0  0  0  0  0  0  0
    0.0405    7.2619    8.2854 H   0  0  0  0  0  0  0  0  0  0  0  0
   -0.3498    6.0451    7.0661 H   0  0  0  0  0  0  0  0  0  0  0  0
    1.0853    6.6961    2.5231 H   0  0  0  0  0  0  0  0  0  0  0  0
    4.3600    5.7268   -0.8483 H   0  0  0  0  0  0  0  0  0  0  0  0
    7.4453    3.7018   -5.5676 H   0  0  0  0  0  0  0  0  0  0  0  0
    8.3193    5.2204   -5.2868 H   0  0  0  0  0  0  0  0  0  0  0  0
    9.8869    3.3720   -5.8689 H   0  0  0  0  0  0  0  0  0  0  0  0
   10.1814    3.9459   -4.2245 H   0  0  0  0  0  0  0  0  0  0  0  0
    9.3045    2.4352   -4.4870 H   0  0  0  0  0  0  0  0  0  0  0  0
    0.5004   -1.0291    4.8644 H   0  0  0  0  0  0  0  0  0  0  0  0
    1.4696   -0.9326    6.3392 H   0  0  0  0  0  0  0  0  0  0  0  0
    1.5400   -3.2241    5.3668 H   0  0  0  0  0  0  0  0  0  0  0  0
    3.1471   -2.4954    5.3091 H   0  0  0  0  0  0  0  0  0  0  0  0
    2.1597   -2.5777    3.8463 H   0  0  0  0  0  0  0  0  0  0  0  0
    5.3113   -0.5659    2.3270 H   0  0  0  0  0  0  0  0  0  0  0  0
    5.7102   -2.7999    1.7984 H   0  0  0  0  0  0  0  0  0  0  0  0
    2.4620   -6.7914    5.0602 H   0  0  0  0  0  0  0  0  0  0  0  0
    3.9506   -6.6832    6.0193 H   0  0  0  0  0  0  0  0  0  0  0  0
    3.2627   -8.9380    4.0739 H   0  0  0  0  0  0  0  0  0  0  0  0
    4.7511   -8.8245    5.0166 H   0  0  0  0  0  0  0  0  0  0  0  0
    3.1998   -9.0445    5.8357 H   0  0  0  0  0  0  0  0  0  0  0  0
   13.7062   -2.9063   -3.8659 H   0  0  0  0  0  0  0  0  0  0  0  0
   12.0869   -2.5383   -4.4916 H   0  0  0  0  0  0  0  0  0  0  0  0
   13.2756   -4.1236   -5.9916 H   0  0  0  0  0  0  0  0  0  0  0  0
   11.8587   -4.8981   -5.2728 H   0  0  0  0  0  0  0  0  0  0  0  0
   13.4735   -5.2597   -4.6538 H   0  0  0  0  0  0  0  0  0  0  0  0
   10.8609   -7.2731   -0.3157 H   0  0  0  0  0  0  0  0  0  0  0  0
    9.8898   -9.2628    1.0537 H   0  0  0  0  0  0  0  0  0  0  0  0
  1  2  2  0  0  0  0
  2  3  1  0  0  0  0
  3  4  2  0  0  0  0
  4  5  1  0  0  0  0
  5  6  1  0  0  0  0
  6  7  1  0  0  0  0
  7  8  1  0  0  0  0
  8  9  1  0  0  0  0
  7 10  2  0  0  0  0
 10 11  1  0  0  0  0
 10 12  1  0  0  0  0
 12 13  1  0  0  0  0
  4 14  1  0  0  0  0
 14 15  2  0  0  0  0
 15 16  1  0  0  0  0
 16 17  1  0  0  0  0
 17 18  1  0  0  0  0
 18 19  1  0  0  0  0
 19 20  1  0  0  0  0
 20 21  1  0  0  0  0
 19 22  2  0  0  0  0
 22 23  1  0  0  0  0
 23 24  1  0  0  0  0
 22 25  1  0  0  0  0
 16 26  2  0  0  0  0
 26 27  1  0  0  0  0
 15 28  1  0  0  0  0
 28 29  2  0  0  0  0
 29 30  1  0  0  0  0
 29 31  1  0  0  0  0
 31 32  2  0  0  0  0
 32 33  1  0  0  0  0
 33 34  2  0  0  0  0
 34 35  1  0  0  0  0
 35 36  2  0  0  0  0
 36 37  1  0  0  0  0
 37 38  1  0  0  0  0
 37 39  2  0  0  0  0
 39 40  1  0  0  0  0
 40 41  1  0  0  0  0
 41 42  1  0  0  0  0
 39 43  1  0  0  0  0
 34 44  1  0  0  0  0
 44 45  2  0  0  0  0
 45 46  1  0  0  0  0
 46 47  1  0  0  0  0
 47 48  1  0  0  0  0
 48 49  1  0  0  0  0
 49 50  1  0  0  0  0
 50 51  1  0  0  0  0
 51 52  1  0  0  0  0
 49 53  2  0  0  0  0
 53 54  1  0  0  0  0
 53 55  1  0  0  0  0
 46 56  2  0  0  0  0
 56 57  1  0  0  0  0
 45 58  1  0  0  0  0
 58 59  2  0  0  0  0
 59 60  1  0  0  0  0
 59 61  1  0  0  0  0
 61 62  2  0  0  0  0
 62 63  1  0  0  0  0
 63 64  2  0  0  0  0
 64 65  1  0  0  0  0
 65 66  2  0  0  0  0
 66 67  1  0  0  0  0
 67 68  1  0  0  0  0
 67 69  2  0  0  0  0
 69 70  1  0  0  0  0
 70 71  1  0  0  0  0
 71 72  1  0  0  0  0
 69 73  1  0  0  0  0
 64 74  1  0  0  0  0
 74 75  2  0  0  0  0
 75 76  1  0  0  0  0
 76 77  1  0  0  0  0
 77 78  1  0  0  0  0
 78 79  1  0  0  0  0
 79 80  1  0  0  0  0
 80 81  1  0  0  0  0
 81 82  1  0  0  0  0
 79 83  2  0  0  0  0
 83 84  1  0  0  0  0
 83 85  1  0  0  0  0
 76 86  2  0  0  0  0
 86 87  1  0  0  0  0
 75 88  1  0  0  0  0
 88 89  2  0  0  0  0
 89 90  1  0  0  0  0
 89 91  1  0  0  0  0
 91 92  2  0  0  0  0
 92 93  1  0  0  0  0
 93 94  2  0  0  0  0
 94 95  1  0  0  0  0
 95 96  1  0  0  0  0
 96 97  1  0  0  0  0
 97 98  1  0  0  0  0
 98 99  1  0  0  0  0
 97100  2  0  0  0  0
100101  1  0  0  0  0
100102  1  0  0  0  0
102103  1  0  0  0  0
 94104  1  0  0  0  0
104105  2  0  0  0  0
105106  1  0  0  0  0
106107  1  0  0  0  0
107108  1  0  0  0  0
108109  1  0  0  0  0
109110  1  0  0  0  0
110111  1  0  0  0  0
109112  2  0  0  0  0
112113  1  0  0  0  0
113114  1  0  0  0  0
112115  1  0  0  0  0
106116  2  0  0  0  0
116117  1  0  0  0  0
105118  1  0  0  0  0
118119  2  0  0  0  0
119120  1  0  0  0  0
119121  1  0  0  0  0
121122  2  0  0  0  0
122123  1  0  0  0  0
123124  2  0  0  0  0
124125  1  0  0  0  0
125126  1  0  0  0  0
126127  1  0  0  0  0
127128  1  0  0  0  0
128129  1  0  0  0  0
127130  2  0  0  0  0
130131  1  0  0  0  0
130132  1  0  0  0  0
132133  1  0  0  0  0
124134  1  0  0  0  0
134135  2  0  0  0  0
135136  1  0  0  0  0
136137  1  0  0  0  0
137138  1  0  0  0  0
138139  1  0  0  0  0
139140  1  0  0  0  0
140141  1  0  0  0  0
139142  2  0  0  0  0
142143  1  0  0  0  0
143144  1  0  0  0  0
142145  1  0  0  0  0
136146  2  0  0  0  0
146147  1  0  0  0  0
135148  1  0  0  0  0
148149  2  0  0  0  0
149150  1  0  0  0  0
149151  1  0  0  0  0
151152  2  0  0  0  0
152153  1  0  0  0  0
153154  2  0  0  0  0
154155  1  0  0  0  0
155156  1  0  0  0  0
156157  1  0  0  0  0
157158  1  0  0  0  0
158159  1  0  0  0  0
157160  2  0  0  0  0
160161  1  0  0  0  0
160162  1  0  0  0  0
162163  1  0  0  0  0
154164  1  0  0  0  0
164165  2  0  0  0  0
165166  1  0  0  0  0
166167  1  0  0  0  0
167168  1  0  0  0  0
168169  1  0  0  0  0
169170  1  0  0  0  0
170171  1  0  0  0  0
169172  2  0  0  0  0
172173  1  0  0  0  0
173174  1  0  0  0  0
172175  1  0  0  0  0
166176  2  0  0  0  0
176177  1  0  0  0  0
165178  1  0  0  0  0
178179  2  0  0  0  0
179180  1  0  0  0  0
 27  1  1  0  0  0  0
 57 31  1  0  0  0  0
 87 61  1  0  0  0  0
117 91  1  0  0  0  0
147121  1  0  0  0  0
177151  1  0  0  0  0
 26  3  1  0  0  0  0
 56 33  1  0  0  0  0
 86 63  1  0  0  0  0
116 93  1  0  0  0  0
146123  1  0  0  0  0
176153  1  0  0  0  0
 12  5  2  0  0  0  0
 30 14  1  0  0  0  0
 43 35  1  0  0  0  0
 60 44  1  0  0  0  0
 73 65  1  0  0  0  0
 90 74  1  0  0  0  0
102 95  2  0  0  0  0
120104  1  0  0  0  0
132125  2  0  0  0  0
150134  1  0  0  0  0
162155  2  0  0  0  0
180164  1  0  0  0  0
 23 17  2  0  0  0  0
 54 47  2  0  0  0  0
 84 77  2  0  0  0  0
113107  2  0  0  0  0
143137  2  0  0  0  0
173167  2  0  0  0  0
  1181  1  0  0  0  0
  2182  1  0  0  0  0
  8183  1  0  0  0  0
  8184  1  0  0  0  0
  9185  1  0  0  0  0
  9186  1  0  0  0  0
  9187  1  0  0  0  0
 20188  1  0  0  0  0
 20189  1  0  0  0  0
 21190  1  0  0  0  0
 21191  1  0  0  0  0
 21192  1  0  0  0  0
 28193  1  0  0  0  0
 32194  1  0  0  0  0
 36195  1  0  0  0  0
 41196  1  0  0  0  0
 41197  1  0  0  0  0
 42198  1  0  0  0  0
 42199  1  0  0  0  0
 42200  1  0  0  0  0
 51201  1  0  0  0  0
 51202  1  0  0  0  0
 52203  1  0  0  0  0
 52204  1  0  0  0  0
 52205  1  0  0  0  0
 54206  1  0  0  0  0
 58207  1  0  0  0  0
 62208  1  0  0  0  0
 66209  1  0  0  0  0
 71210  1  0  0  0  0
 71211  1  0  0  0  0
 72212  1  0  0  0  0
 72213  1  0  0  0  0
 72214  1  0  0  0  0
 81215  1  0  0  0  0
 81216  1  0  0  0  0
 82217  1  0  0  0  0
 82218  1  0  0  0  0
 82219  1  0  0  0  0
 84220  1  0  0  0  0
 88221  1  0  0  0  0
 92222  1  0  0  0  0
 98223  1  0  0  0  0
 98224  1  0  0  0  0
 99225  1  0  0  0  0
 99226  1  0  0  0  0
 99227  1  0  0  0  0
110228  1  0  0  0  0
110229  1  0  0  0  0
111230  1  0  0  0  0
111231  1  0  0  0  0
111232  1  0  0  0  0
118233  1  0  0  0  0
122234  1  0  0  0  0
128235  1  0  0  0  0
128236  1  0  0  0  0
129237  1  0  0  0  0
129238  1  0  0  0  0
129239  1  0  0  0  0
140240  1  0  0  0  0
140241  1  0  0  0  0
141242  1  0  0  0  0
141243  1  0  0  0  0
141244  1  0  0  0  0
148245  1  0  0  0  0
152246  1  0  0  0  0
158247  1  0  0  0  0
158248  1  0  0  0  0
159249  1  0  0  0  0
159250  1  0  0  0  0
159251  1  0  0  0  0
170252  1  0  0  0  0
170253  1  0  0  0  0
171254  1  0  0  0  0
171255  1  0  0  0  0
171256  1  0  0  0  0
178257  1  0  0  0  0
179258  1  0  0  0  0
M  END
