192

C          6.10600       -0.32050        3.74680
C          5.34020        0.74310        4.06580
C          3.95940        0.41180        4.18940
C          2.88430        1.25470        4.51290
C          3.07650        2.68970        4.65300
S          3.80800        3.58810        3.35500
C          3.62710        5.09440        4.18180
C          4.01800        6.37290        3.52830
C          2.87890        6.89650        2.65070
C          3.03660        4.89730        5.39370
Cl         2.69700        6.15760        6.50770
C          2.72740        3.53610        5.66680
Cl         2.06340        3.03140        7.16330
C          1.63460        0.66100        4.63440
C          1.40280       -0.71630        4.38350
C          2.47180       -1.54730        4.02020
C          2.32790       -2.97040        3.73100
S          1.50260       -3.57380        2.32390
C          1.97930       -5.20760        2.64590
C          1.64430       -6.32460        1.72000
C          2.89130       -6.86530        1.01740
C          2.71440       -5.26550        3.79220
C          2.91750       -4.00160        4.40430
Cl         3.78140       -3.80830        5.87380
Cl         3.35830       -6.71200        4.44940
C          3.73240       -0.96450        3.96170
S          5.21490       -1.79280        3.57800
C          0.05240       -1.07950        4.62030
C         -0.72160       -0.04620        5.06010
S          0.16850        1.46590        5.11230
C         -2.05360       -0.09370        5.57100
C         -2.67360        0.83260        6.37740
C         -3.92200        0.40910        6.83760
C         -4.30090       -0.83230        6.37160
S         -3.06330       -1.48960        5.33870
C         -5.54950       -1.46180        6.69440
C         -6.18100       -2.47710        6.08310
C         -5.69340       -3.17320        4.91060
C         -4.55760       -3.89460        4.74210
C         -4.29960       -4.24530        3.38830
C         -3.13410       -4.81000        2.84340
C         -2.06800       -5.35520        3.66930
S         -1.33490       -4.47890        4.97880
C         -0.29640       -5.79650        5.40150
C          0.59870       -5.71230        6.58700
C         -0.17220       -6.01410        7.87410
C         -0.51750       -6.85060        4.56760
Cl         0.29450       -8.35810        4.69190
C         -1.50520       -6.59870        3.57660
Cl        -1.98310       -7.78800        2.43880
C         -3.02780       -4.79400        1.45770
C         -4.07030       -4.36440        0.60180
C         -5.27880       -3.90200        1.14710
C         -6.36670       -3.41950        0.31260
S         -6.11020       -2.21030       -0.91250
C         -7.78680       -2.17280       -1.34180
C         -8.27230       -1.29110       -2.43840
C         -7.68120       -1.70500       -3.78620
C         -8.48920       -3.05350       -0.57560
C         -7.69060       -3.75390        0.36910
Cl        -8.33470       -4.95080        1.41200
Cl       -10.18070       -3.31030       -0.71010
C         -5.34120       -3.81400        2.53220
S         -6.60230       -3.01040        3.41940
C         -3.66290       -4.33100       -0.75450
C         -2.34020       -4.60820       -0.92620
S         -1.56470       -5.09420        0.56500
C         -1.56420       -4.27480       -2.07810
C         -0.28100       -3.81740       -2.06660
C          0.10270       -3.19080       -3.27750
C          1.26550       -2.44240       -3.52210
C          2.24920       -2.24330       -2.47090
S          2.60400       -0.63110       -1.92240
C          3.63120       -1.21080       -0.65620
C          4.26120       -0.24950        0.28780
C          3.19900        0.63750        0.93150
C          3.69310       -2.57160       -0.67560
Cl         4.61700       -3.50340        0.43270
C          2.90750       -3.16110       -1.70410
Cl         2.84730       -4.85070       -1.98920
C          1.33440       -1.76000       -4.72670
C          0.30270       -1.78170       -5.69690
C         -0.88390       -2.48650       -5.42540
C         -2.05840       -2.33870       -6.27270
S         -2.04400       -2.73370       -7.96380
C         -3.68830       -2.23500       -8.17570
C         -4.37570       -2.37090       -9.48930
C         -5.00890       -3.75690       -9.63360
C         -4.20440       -1.79590       -6.99380
C         -3.28370       -1.84780       -5.91380
Cl        -3.67440       -1.26830       -4.34910
Cl        -5.80440       -1.20890       -6.81250
C         -0.94420       -3.19320       -4.23170
S         -2.33690       -4.05200       -3.63230
C          0.55610       -0.87260       -6.75650
C          1.70280       -0.15270       -6.58750
S          2.59890       -0.65260       -5.16760
C          2.08500        1.05810       -7.24610
C          1.72040        1.56310       -8.47020
C          2.10720        2.89850       -8.64880
C          2.72420        3.44330       -7.54950
S          2.92930        2.24950       -6.30660
C          3.17760        4.79700       -7.35070
C          3.14720        5.45170       -6.18020
C          2.50540        4.97720       -4.96850
C          3.00060        4.95840       -3.70550
C          2.09390        4.43610       -2.74190
C          2.29660        4.27900       -1.36490
C          3.56340        4.67750       -0.75710
S          4.71970        3.51670       -0.18710
C          5.85290        4.75060        0.25600
C          7.19320        4.40590        0.80830
C          7.10230        3.53660        2.06020
C          5.34100        5.98320       -0.01880
Cl         6.15750        7.46230        0.29420
C          4.04730        5.94300       -0.60700
Cl         3.17710        7.34890       -1.06830
C          1.24740        3.75480       -0.62490
C          0.01350        3.37120       -1.20190
C         -0.19110        3.52000       -2.58250
C         -1.44880        3.16360       -3.22250
S         -2.97520        3.79690       -2.67390
C         -3.84870        3.04380       -3.96530
C         -5.32980        3.14750       -4.08010
C         -6.01050        1.88820       -3.53660
C         -2.99630        2.33890       -4.76070
C         -1.64350        2.39480       -4.33600
Cl        -0.41930        1.47880       -5.10200
Cl        -3.47700        1.49970       -6.17600
C          0.85940        4.05770       -3.32180
S          0.84710        4.39870       -5.02610
C         -0.87990        2.84900       -0.21970
C         -0.36180        2.86570        1.02490
S          1.24050        3.51100        1.10090
H          7.16840       -0.34600        3.60240
H          5.72960        1.73110        4.22610
H          4.25660        7.10850        4.29850
H          4.90300        6.21050        2.91070
H          2.59990        6.14910        1.91130
H          3.19100        7.80050        2.13540
H          2.00720        7.12370        3.25900
H          0.92950       -5.97120        0.97720
H          1.17910       -7.13340        2.28730
H          3.58770       -7.28390        1.73840
H          2.60670       -7.64550        0.31650
H          3.39390       -6.07290        0.47120
H         -0.31690       -2.08390        4.52010
H         -2.21690        1.76910        6.64510
H         -4.54180        0.99490        7.49330
H         -6.06090       -0.98170        7.52020
H         -7.17960       -2.73690        6.40950
H         -3.90700       -4.15060        5.55750
H          1.02760       -4.71060        6.64890
H          1.40870       -6.43300        6.46890
H         -0.97910       -5.29710        8.00850
H          0.49510       -5.95290        8.72940
H         -0.59730       -7.01410        7.83470
H         -9.36120       -1.35060       -2.47290
H         -7.98710       -0.25800       -2.22540
H         -8.04380       -1.04720       -4.57140
H         -6.59620       -1.64620       -3.75480
H         -7.96660       -2.72570       -4.02910
H         -4.29680       -4.02560       -1.56640
H          0.33450       -3.84720       -1.18600
H          4.97260        0.38320       -0.24960
H          4.80490       -0.81160        1.04700
H          2.48000        0.03470        1.48120
H          3.65720        1.34850        1.61260
H          2.67040        1.19060        0.15990
H         -5.15150       -1.60580       -9.56030
H         -3.65500       -2.21470      -10.29370
H         -5.50640       -3.84150      -10.59590
H         -4.24640       -4.52910       -9.56510
H         -5.74090       -3.92040       -8.84670
H         -0.13260       -0.69250       -7.56150
H          1.19160        0.98760       -9.20840
H          1.89430        3.46570       -9.53780
H          3.58070        5.29260       -8.22450
H          3.60210        6.43140       -6.10980
H          3.99870        5.27500       -3.46040
H          7.72100        5.33420        1.03330
H          7.76260        3.86930        0.04400
H          6.59130        4.07120        2.85650
H          8.09940        3.27250        2.40220
H          6.55000        2.62460        1.84670
H         -5.67530        4.02230       -3.52760
H         -5.59340        3.27180       -5.13300
H         -5.68530        1.01410       -4.09410
H         -7.08930        1.98110       -3.63140
H         -5.75970        1.74280       -2.48810
H         -1.86230        2.47930       -0.44960
H         -0.82050        2.53690        1.93700
