
  xtb     03012212433D
 energy: -375.223955741303 gnorm: 0.000609971107 xtb: 6.4.1 (unknown)
192213  0     0  0            999 V2000
    6.1060   -0.3205    3.7468 C   0  0  0  0  0  0  0  0  0  0  0  0
    5.3402    0.7431    4.0658 C   0  0  0  0  0  0  0  0  0  0  0  0
    3.9594    0.4118    4.1894 C   0  0  0  0  0  0  0  0  0  0  0  0
    2.8843    1.2547    4.5129 C   0  0  0  0  0  0  0  0  0  0  0  0
    3.0765    2.6897    4.6530 C   0  0  0  0  0  0  0  0  0  0  0  0
    3.8080    3.5881    3.3550 S   0  0  0  0  0  0  0  0  0  0  0  0
    3.6271    5.0944    4.1818 C   0  0  0  0  0  0  0  0  0  0  0  0
    4.0180    6.3729    3.5283 C   0  0  0  0  0  0  0  0  0  0  0  0
    2.8789    6.8965    2.6507 C   0  0  0  0  0  0  0  0  0  0  0  0
    3.0366    4.8973    5.3937 C   0  0  0  0  0  0  0  0  0  0  0  0
    2.6970    6.1576    6.5077 Cl  0  0  0  0  0  0  0  0  0  0  0  0
    2.7274    3.5361    5.6668 C   0  0  0  0  0  0  0  0  0  0  0  0
    2.0634    3.0314    7.1633 Cl  0  0  0  0  0  0  0  0  0  0  0  0
    1.6346    0.6610    4.6344 C   0  0  0  0  0  0  0  0  0  0  0  0
    1.4028   -0.7163    4.3835 C   0  0  0  0  0  0  0  0  0  0  0  0
    2.4718   -1.5473    4.0202 C   0  0  0  0  0  0  0  0  0  0  0  0
    2.3279   -2.9704    3.7310 C   0  0  0  0  0  0  0  0  0  0  0  0
    1.5026   -3.5738    2.3239 S   0  0  0  0  0  0  0  0  0  0  0  0
    1.9793   -5.2076    2.6459 C   0  0  0  0  0  0  0  0  0  0  0  0
    1.6443   -6.3246    1.7200 C   0  0  0  0  0  0  0  0  0  0  0  0
    2.8913   -6.8653    1.0174 C   0  0  0  0  0  0  0  0  0  0  0  0
    2.7144   -5.2655    3.7922 C   0  0  0  0  0  0  0  0  0  0  0  0
    2.9175   -4.0016    4.4043 C   0  0  0  0  0  0  0  0  0  0  0  0
    3.7814   -3.8083    5.8738 Cl  0  0  0  0  0  0  0  0  0  0  0  0
    3.3583   -6.7120    4.4494 Cl  0  0  0  0  0  0  0  0  0  0  0  0
    3.7324   -0.9645    3.9617 C   0  0  0  0  0  0  0  0  0  0  0  0
    5.2149   -1.7928    3.5780 S   0  0  0  0  0  0  0  0  0  0  0  0
    0.0524   -1.0795    4.6203 C   0  0  0  0  0  0  0  0  0  0  0  0
   -0.7216   -0.0462    5.0601 C   0  0  0  0  0  0  0  0  0  0  0  0
    0.1685    1.4659    5.1123 S   0  0  0  0  0  0  0  0  0  0  0  0
   -2.0536   -0.0937    5.5710 C   0  0  0  0  0  0  0  0  0  0  0  0
   -2.6736    0.8326    6.3774 C   0  0  0  0  0  0  0  0  0  0  0  0
   -3.9220    0.4091    6.8376 C   0  0  0  0  0  0  0  0  0  0  0  0
   -4.3009   -0.8323    6.3716 C   0  0  0  0  0  0  0  0  0  0  0  0
   -3.0633   -1.4896    5.3387 S   0  0  0  0  0  0  0  0  0  0  0  0
   -5.5495   -1.4618    6.6944 C   0  0  0  0  0  0  0  0  0  0  0  0
   -6.1810   -2.4771    6.0831 C   0  0  0  0  0  0  0  0  0  0  0  0
   -5.6934   -3.1732    4.9106 C   0  0  0  0  0  0  0  0  0  0  0  0
   -4.5576   -3.8946    4.7421 C   0  0  0  0  0  0  0  0  0  0  0  0
   -4.2996   -4.2453    3.3883 C   0  0  0  0  0  0  0  0  0  0  0  0
   -3.1341   -4.8100    2.8434 C   0  0  0  0  0  0  0  0  0  0  0  0
   -2.0680   -5.3552    3.6693 C   0  0  0  0  0  0  0  0  0  0  0  0
   -1.3349   -4.4789    4.9788 S   0  0  0  0  0  0  0  0  0  0  0  0
   -0.2964   -5.7965    5.4015 C   0  0  0  0  0  0  0  0  0  0  0  0
    0.5987   -5.7123    6.5870 C   0  0  0  0  0  0  0  0  0  0  0  0
   -0.1722   -6.0141    7.8741 C   0  0  0  0  0  0  0  0  0  0  0  0
   -0.5175   -6.8506    4.5676 C   0  0  0  0  0  0  0  0  0  0  0  0
    0.2945   -8.3581    4.6919 Cl  0  0  0  0  0  0  0  0  0  0  0  0
   -1.5052   -6.5987    3.5766 C   0  0  0  0  0  0  0  0  0  0  0  0
   -1.9831   -7.7880    2.4388 Cl  0  0  0  0  0  0  0  0  0  0  0  0
   -3.0278   -4.7940    1.4577 C   0  0  0  0  0  0  0  0  0  0  0  0
   -4.0703   -4.3644    0.6018 C   0  0  0  0  0  0  0  0  0  0  0  0
   -5.2788   -3.9020    1.1471 C   0  0  0  0  0  0  0  0  0  0  0  0
   -6.3667   -3.4195    0.3126 C   0  0  0  0  0  0  0  0  0  0  0  0
   -6.1102   -2.2103   -0.9125 S   0  0  0  0  0  0  0  0  0  0  0  0
   -7.7868   -2.1728   -1.3418 C   0  0  0  0  0  0  0  0  0  0  0  0
   -8.2723   -1.2911   -2.4384 C   0  0  0  0  0  0  0  0  0  0  0  0
   -7.6812   -1.7050   -3.7862 C   0  0  0  0  0  0  0  0  0  0  0  0
   -8.4892   -3.0535   -0.5756 C   0  0  0  0  0  0  0  0  0  0  0  0
   -7.6906   -3.7539    0.3691 C   0  0  0  0  0  0  0  0  0  0  0  0
   -8.3347   -4.9508    1.4120 Cl  0  0  0  0  0  0  0  0  0  0  0  0
  -10.1807   -3.3103   -0.7101 Cl  0  0  0  0  0  0  0  0  0  0  0  0
   -5.3412   -3.8140    2.5322 C   0  0  0  0  0  0  0  0  0  0  0  0
   -6.6023   -3.0104    3.4194 S   0  0  0  0  0  0  0  0  0  0  0  0
   -3.6629   -4.3310   -0.7545 C   0  0  0  0  0  0  0  0  0  0  0  0
   -2.3402   -4.6082   -0.9262 C   0  0  0  0  0  0  0  0  0  0  0  0
   -1.5647   -5.0942    0.5650 S   0  0  0  0  0  0  0  0  0  0  0  0
   -1.5642   -4.2748   -2.0781 C   0  0  0  0  0  0  0  0  0  0  0  0
   -0.2810   -3.8174   -2.0666 C   0  0  0  0  0  0  0  0  0  0  0  0
    0.1027   -3.1908   -3.2775 C   0  0  0  0  0  0  0  0  0  0  0  0
    1.2655   -2.4424   -3.5221 C   0  0  0  0  0  0  0  0  0  0  0  0
    2.2492   -2.2433   -2.4709 C   0  0  0  0  0  0  0  0  0  0  0  0
    2.6040   -0.6311   -1.9224 S   0  0  0  0  0  0  0  0  0  0  0  0
    3.6312   -1.2108   -0.6562 C   0  0  0  0  0  0  0  0  0  0  0  0
    4.2612   -0.2495    0.2878 C   0  0  0  0  0  0  0  0  0  0  0  0
    3.1990    0.6375    0.9315 C   0  0  0  0  0  0  0  0  0  0  0  0
    3.6931   -2.5716   -0.6756 C   0  0  0  0  0  0  0  0  0  0  0  0
    4.6170   -3.5034    0.4327 Cl  0  0  0  0  0  0  0  0  0  0  0  0
    2.9075   -3.1611   -1.7041 C   0  0  0  0  0  0  0  0  0  0  0  0
    2.8473   -4.8507   -1.9892 Cl  0  0  0  0  0  0  0  0  0  0  0  0
    1.3344   -1.7600   -4.7267 C   0  0  0  0  0  0  0  0  0  0  0  0
    0.3027   -1.7817   -5.6969 C   0  0  0  0  0  0  0  0  0  0  0  0
   -0.8839   -2.4865   -5.4254 C   0  0  0  0  0  0  0  0  0  0  0  0
   -2.0584   -2.3387   -6.2727 C   0  0  0  0  0  0  0  0  0  0  0  0
   -2.0440   -2.7337   -7.9638 S   0  0  0  0  0  0  0  0  0  0  0  0
   -3.6883   -2.2350   -8.1757 C   0  0  0  0  0  0  0  0  0  0  0  0
   -4.3757   -2.3709   -9.4893 C   0  0  0  0  0  0  0  0  0  0  0  0
   -5.0089   -3.7569   -9.6336 C   0  0  0  0  0  0  0  0  0  0  0  0
   -4.2044   -1.7959   -6.9938 C   0  0  0  0  0  0  0  0  0  0  0  0
   -3.2837   -1.8478   -5.9138 C   0  0  0  0  0  0  0  0  0  0  0  0
   -3.6744   -1.2683   -4.3491 Cl  0  0  0  0  0  0  0  0  0  0  0  0
   -5.8044   -1.2089   -6.8125 Cl  0  0  0  0  0  0  0  0  0  0  0  0
   -0.9442   -3.1932   -4.2317 C   0  0  0  0  0  0  0  0  0  0  0  0
   -2.3369   -4.0520   -3.6323 S   0  0  0  0  0  0  0  0  0  0  0  0
    0.5561   -0.8726   -6.7565 C   0  0  0  0  0  0  0  0  0  0  0  0
    1.7028   -0.1527   -6.5875 C   0  0  0  0  0  0  0  0  0  0  0  0
    2.5989   -0.6526   -5.1676 S   0  0  0  0  0  0  0  0  0  0  0  0
    2.0850    1.0581   -7.2461 C   0  0  0  0  0  0  0  0  0  0  0  0
    1.7204    1.5631   -8.4702 C   0  0  0  0  0  0  0  0  0  0  0  0
    2.1072    2.8985   -8.6488 C   0  0  0  0  0  0  0  0  0  0  0  0
    2.7242    3.4433   -7.5495 C   0  0  0  0  0  0  0  0  0  0  0  0
    2.9293    2.2495   -6.3066 S   0  0  0  0  0  0  0  0  0  0  0  0
    3.1776    4.7970   -7.3507 C   0  0  0  0  0  0  0  0  0  0  0  0
    3.1472    5.4517   -6.1802 C   0  0  0  0  0  0  0  0  0  0  0  0
    2.5054    4.9772   -4.9685 C   0  0  0  0  0  0  0  0  0  0  0  0
    3.0006    4.9584   -3.7055 C   0  0  0  0  0  0  0  0  0  0  0  0
    2.0939    4.4361   -2.7419 C   0  0  0  0  0  0  0  0  0  0  0  0
    2.2966    4.2790   -1.3649 C   0  0  0  0  0  0  0  0  0  0  0  0
    3.5634    4.6775   -0.7571 C   0  0  0  0  0  0  0  0  0  0  0  0
    4.7197    3.5167   -0.1871 S   0  0  0  0  0  0  0  0  0  0  0  0
    5.8529    4.7506    0.2560 C   0  0  0  0  0  0  0  0  0  0  0  0
    7.1932    4.4059    0.8083 C   0  0  0  0  0  0  0  0  0  0  0  0
    7.1023    3.5366    2.0602 C   0  0  0  0  0  0  0  0  0  0  0  0
    5.3410    5.9832   -0.0188 C   0  0  0  0  0  0  0  0  0  0  0  0
    6.1575    7.4623    0.2942 Cl  0  0  0  0  0  0  0  0  0  0  0  0
    4.0473    5.9430   -0.6070 C   0  0  0  0  0  0  0  0  0  0  0  0
    3.1771    7.3489   -1.0683 Cl  0  0  0  0  0  0  0  0  0  0  0  0
    1.2474    3.7548   -0.6249 C   0  0  0  0  0  0  0  0  0  0  0  0
    0.0135    3.3712   -1.2019 C   0  0  0  0  0  0  0  0  0  0  0  0
   -0.1911    3.5200   -2.5825 C   0  0  0  0  0  0  0  0  0  0  0  0
   -1.4488    3.1636   -3.2225 C   0  0  0  0  0  0  0  0  0  0  0  0
   -2.9752    3.7969   -2.6739 S   0  0  0  0  0  0  0  0  0  0  0  0
   -3.8487    3.0438   -3.9653 C   0  0  0  0  0  0  0  0  0  0  0  0
   -5.3298    3.1475   -4.0801 C   0  0  0  0  0  0  0  0  0  0  0  0
   -6.0105    1.8882   -3.5366 C   0  0  0  0  0  0  0  0  0  0  0  0
   -2.9963    2.3389   -4.7607 C   0  0  0  0  0  0  0  0  0  0  0  0
   -1.6435    2.3948   -4.3360 C   0  0  0  0  0  0  0  0  0  0  0  0
   -0.4193    1.4788   -5.1020 Cl  0  0  0  0  0  0  0  0  0  0  0  0
   -3.4770    1.4997   -6.1760 Cl  0  0  0  0  0  0  0  0  0  0  0  0
    0.8594    4.0577   -3.3218 C   0  0  0  0  0  0  0  0  0  0  0  0
    0.8471    4.3987   -5.0261 S   0  0  0  0  0  0  0  0  0  0  0  0
   -0.8799    2.8490   -0.2197 C   0  0  0  0  0  0  0  0  0  0  0  0
   -0.3618    2.8657    1.0249 C   0  0  0  0  0  0  0  0  0  0  0  0
    1.2405    3.5110    1.1009 S   0  0  0  0  0  0  0  0  0  0  0  0
    7.1684   -0.3460    3.6024 H   0  0  0  0  0  0  0  0  0  0  0  0
    5.7296    1.7311    4.2261 H   0  0  0  0  0  0  0  0  0  0  0  0
    4.2566    7.1085    4.2985 H   0  0  0  0  0  0  0  0  0  0  0  0
    4.9030    6.2105    2.9107 H   0  0  0  0  0  0  0  0  0  0  0  0
    2.5999    6.1491    1.9113 H   0  0  0  0  0  0  0  0  0  0  0  0
    3.1910    7.8005    2.1354 H   0  0  0  0  0  0  0  0  0  0  0  0
    2.0072    7.1237    3.2590 H   0  0  0  0  0  0  0  0  0  0  0  0
    0.9295   -5.9712    0.9772 H   0  0  0  0  0  0  0  0  0  0  0  0
    1.1791   -7.1334    2.2873 H   0  0  0  0  0  0  0  0  0  0  0  0
    3.5877   -7.2839    1.7384 H   0  0  0  0  0  0  0  0  0  0  0  0
    2.6067   -7.6455    0.3165 H   0  0  0  0  0  0  0  0  0  0  0  0
    3.3939   -6.0729    0.4712 H   0  0  0  0  0  0  0  0  0  0  0  0
   -0.3169   -2.0839    4.5201 H   0  0  0  0  0  0  0  0  0  0  0  0
   -2.2169    1.7691    6.6451 H   0  0  0  0  0  0  0  0  0  0  0  0
   -4.5418    0.9949    7.4933 H   0  0  0  0  0  0  0  0  0  0  0  0
   -6.0609   -0.9817    7.5202 H   0  0  0  0  0  0  0  0  0  0  0  0
   -7.1796   -2.7369    6.4095 H   0  0  0  0  0  0  0  0  0  0  0  0
   -3.9070   -4.1506    5.5575 H   0  0  0  0  0  0  0  0  0  0  0  0
    1.0276   -4.7106    6.6489 H   0  0  0  0  0  0  0  0  0  0  0  0
    1.4087   -6.4330    6.4689 H   0  0  0  0  0  0  0  0  0  0  0  0
   -0.9791   -5.2971    8.0085 H   0  0  0  0  0  0  0  0  0  0  0  0
    0.4951   -5.9529    8.7294 H   0  0  0  0  0  0  0  0  0  0  0  0
   -0.5973   -7.0141    7.8347 H   0  0  0  0  0  0  0  0  0  0  0  0
   -9.3612   -1.3506   -2.4729 H   0  0  0  0  0  0  0  0  0  0  0  0
   -7.9871   -0.2580   -2.2254 H   0  0  0  0  0  0  0  0  0  0  0  0
   -8.0438   -1.0472   -4.5714 H   0  0  0  0  0  0  0  0  0  0  0  0
   -6.5962   -1.6462   -3.7548 H   0  0  0  0  0  0  0  0  0  0  0  0
   -7.9666   -2.7257   -4.0291 H   0  0  0  0  0  0  0  0  0  0  0  0
   -4.2968   -4.0256   -1.5664 H   0  0  0  0  0  0  0  0  0  0  0  0
    0.3345   -3.8472   -1.1860 H   0  0  0  0  0  0  0  0  0  0  0  0
    4.9726    0.3832   -0.2496 H   0  0  0  0  0  0  0  0  0  0  0  0
    4.8049   -0.8116    1.0470 H   0  0  0  0  0  0  0  0  0  0  0  0
    2.4800    0.0347    1.4812 H   0  0  0  0  0  0  0  0  0  0  0  0
    3.6572    1.3485    1.6126 H   0  0  0  0  0  0  0  0  0  0  0  0
    2.6704    1.1906    0.1599 H   0  0  0  0  0  0  0  0  0  0  0  0
   -5.1515   -1.6058   -9.5603 H   0  0  0  0  0  0  0  0  0  0  0  0
   -3.6550   -2.2147  -10.2937 H   0  0  0  0  0  0  0  0  0  0  0  0
   -5.5064   -3.8415  -10.5959 H   0  0  0  0  0  0  0  0  0  0  0  0
   -4.2464   -4.5291   -9.5651 H   0  0  0  0  0  0  0  0  0  0  0  0
   -5.7409   -3.9204   -8.8467 H   0  0  0  0  0  0  0  0  0  0  0  0
   -0.1326   -0.6925   -7.5615 H   0  0  0  0  0  0  0  0  0  0  0  0
    1.1916    0.9876   -9.2084 H   0  0  0  0  0  0  0  0  0  0  0  0
    1.8943    3.4657   -9.5378 H   0  0  0  0  0  0  0  0  0  0  0  0
    3.5807    5.2926   -8.2245 H   0  0  0  0  0  0  0  0  0  0  0  0
    3.6021    6.4314   -6.1098 H   0  0  0  0  0  0  0  0  0  0  0  0
    3.9987    5.2750   -3.4604 H   0  0  0  0  0  0  0  0  0  0  0  0
    7.7210    5.3342    1.0333 H   0  0  0  0  0  0  0  0  0  0  0  0
    7.7626    3.8693    0.0440 H   0  0  0  0  0  0  0  0  0  0  0  0
    6.5913    4.0712    2.8565 H   0  0  0  0  0  0  0  0  0  0  0  0
    8.0994    3.2725    2.4022 H   0  0  0  0  0  0  0  0  0  0  0  0
    6.5500    2.6246    1.8467 H   0  0  0  0  0  0  0  0  0  0  0  0
   -5.6753    4.0223   -3.5276 H   0  0  0  0  0  0  0  0  0  0  0  0
   -5.5934    3.2718   -5.1330 H   0  0  0  0  0  0  0  0  0  0  0  0
   -5.6853    1.0141   -4.0941 H   0  0  0  0  0  0  0  0  0  0  0  0
   -7.0893    1.9811   -3.6314 H   0  0  0  0  0  0  0  0  0  0  0  0
   -5.7597    1.7428   -2.4881 H   0  0  0  0  0  0  0  0  0  0  0  0
   -1.8623    2.4793   -0.4496 H   0  0  0  0  0  0  0  0  0  0  0  0
   -0.8205    2.5369    1.9370 H   0  0  0  0  0  0  0  0  0  0  0  0
  1  2  2  0  0  0  0
  2  3  1  0  0  0  0
  3  4  2  0  0  0  0
  4  5  1  0  0  0  0
  5  6  1  0  0  0  0
  6  7  1  0  0  0  0
  7  8  1  0  0  0  0
  8  9  1  0  0  0  0
  7 10  2  0  0  0  0
 10 11  1  0  0  0  0
 10 12  1  0  0  0  0
 12 13  1  0  0  0  0
  4 14  1  0  0  0  0
 14 15  2  0  0  0  0
 15 16  1  0  0  0  0
 16 17  1  0  0  0  0
 17 18  1  0  0  0  0
 18 19  1  0  0  0  0
 19 20  1  0  0  0  0
 20 21  1  0  0  0  0
 19 22  2  0  0  0  0
 22 23  1  0  0  0  0
 23 24  1  0  0  0  0
 22 25  1  0  0  0  0
 16 26  2  0  0  0  0
 26 27  1  0  0  0  0
 15 28  1  0  0  0  0
 28 29  2  0  0  0  0
 29 30  1  0  0  0  0
 29 31  1  0  0  0  0
 31 32  2  0  0  0  0
 32 33  1  0  0  0  0
 33 34  2  0  0  0  0
 34 35  1  0  0  0  0
 34 36  1  0  0  0  0
 36 37  2  0  0  0  0
 37 38  1  0  0  0  0
 38 39  2  0  0  0  0
 39 40  1  0  0  0  0
 40 41  2  0  0  0  0
 41 42  1  0  0  0  0
 42 43  1  0  0  0  0
 43 44  1  0  0  0  0
 44 45  1  0  0  0  0
 45 46  1  0  0  0  0
 44 47  2  0  0  0  0
 47 48  1  0  0  0  0
 47 49  1  0  0  0  0
 49 50  1  0  0  0  0
 41 51  1  0  0  0  0
 51 52  2  0  0  0  0
 52 53  1  0  0  0  0
 53 54  1  0  0  0  0
 54 55  1  0  0  0  0
 55 56  1  0  0  0  0
 56 57  1  0  0  0  0
 57 58  1  0  0  0  0
 56 59  2  0  0  0  0
 59 60  1  0  0  0  0
 60 61  1  0  0  0  0
 59 62  1  0  0  0  0
 53 63  2  0  0  0  0
 63 64  1  0  0  0  0
 52 65  1  0  0  0  0
 65 66  2  0  0  0  0
 66 67  1  0  0  0  0
 66 68  1  0  0  0  0
 68 69  2  0  0  0  0
 69 70  1  0  0  0  0
 70 71  2  0  0  0  0
 71 72  1  0  0  0  0
 72 73  1  0  0  0  0
 73 74  1  0  0  0  0
 74 75  1  0  0  0  0
 75 76  1  0  0  0  0
 74 77  2  0  0  0  0
 77 78  1  0  0  0  0
 77 79  1  0  0  0  0
 79 80  1  0  0  0  0
 71 81  1  0  0  0  0
 81 82  2  0  0  0  0
 82 83  1  0  0  0  0
 83 84  1  0  0  0  0
 84 85  1  0  0  0  0
 85 86  1  0  0  0  0
 86 87  1  0  0  0  0
 87 88  1  0  0  0  0
 86 89  2  0  0  0  0
 89 90  1  0  0  0  0
 90 91  1  0  0  0  0
 89 92  1  0  0  0  0
 83 93  2  0  0  0  0
 93 94  1  0  0  0  0
 82 95  1  0  0  0  0
 95 96  2  0  0  0  0
 96 97  1  0  0  0  0
 96 98  1  0  0  0  0
 98 99  2  0  0  0  0
 99100  1  0  0  0  0
100101  2  0  0  0  0
101102  1  0  0  0  0
101103  1  0  0  0  0
103104  2  0  0  0  0
104105  1  0  0  0  0
105106  2  0  0  0  0
106107  1  0  0  0  0
107108  2  0  0  0  0
108109  1  0  0  0  0
109110  1  0  0  0  0
110111  1  0  0  0  0
111112  1  0  0  0  0
112113  1  0  0  0  0
111114  2  0  0  0  0
114115  1  0  0  0  0
114116  1  0  0  0  0
116117  1  0  0  0  0
108118  1  0  0  0  0
118119  2  0  0  0  0
119120  1  0  0  0  0
120121  1  0  0  0  0
121122  1  0  0  0  0
122123  1  0  0  0  0
123124  1  0  0  0  0
124125  1  0  0  0  0
123126  2  0  0  0  0
126127  1  0  0  0  0
127128  1  0  0  0  0
126129  1  0  0  0  0
120130  2  0  0  0  0
130131  1  0  0  0  0
119132  1  0  0  0  0
132133  2  0  0  0  0
133134  1  0  0  0  0
 27  1  1  0  0  0  0
 35 31  1  0  0  0  0
 64 38  1  0  0  0  0
 94 68  1  0  0  0  0
102 98  1  0  0  0  0
131105  1  0  0  0  0
 26  3  1  0  0  0  0
 63 40  1  0  0  0  0
 93 70  1  0  0  0  0
130107  1  0  0  0  0
 12  5  2  0  0  0  0
 30 14  1  0  0  0  0
 49 42  2  0  0  0  0
 67 51  1  0  0  0  0
 79 72  2  0  0  0  0
 97 81  1  0  0  0  0
116109  2  0  0  0  0
134118  1  0  0  0  0
 23 17  2  0  0  0  0
 60 54  2  0  0  0  0
 90 84  2  0  0  0  0
127121  2  0  0  0  0
  1135  1  0  0  0  0
  2136  1  0  0  0  0
  8137  1  0  0  0  0
  8138  1  0  0  0  0
  9139  1  0  0  0  0
  9140  1  0  0  0  0
  9141  1  0  0  0  0
 20142  1  0  0  0  0
 20143  1  0  0  0  0
 21144  1  0  0  0  0
 21145  1  0  0  0  0
 21146  1  0  0  0  0
 28147  1  0  0  0  0
 32148  1  0  0  0  0
 33149  1  0  0  0  0
 36150  1  0  0  0  0
 37151  1  0  0  0  0
 39152  1  0  0  0  0
 45153  1  0  0  0  0
 45154  1  0  0  0  0
 46155  1  0  0  0  0
 46156  1  0  0  0  0
 46157  1  0  0  0  0
 57158  1  0  0  0  0
 57159  1  0  0  0  0
 58160  1  0  0  0  0
 58161  1  0  0  0  0
 58162  1  0  0  0  0
 65163  1  0  0  0  0
 69164  1  0  0  0  0
 75165  1  0  0  0  0
 75166  1  0  0  0  0
 76167  1  0  0  0  0
 76168  1  0  0  0  0
 76169  1  0  0  0  0
 87170  1  0  0  0  0
 87171  1  0  0  0  0
 88172  1  0  0  0  0
 88173  1  0  0  0  0
 88174  1  0  0  0  0
 95175  1  0  0  0  0
 99176  1  0  0  0  0
100177  1  0  0  0  0
103178  1  0  0  0  0
104179  1  0  0  0  0
106180  1  0  0  0  0
112181  1  0  0  0  0
112182  1  0  0  0  0
113183  1  0  0  0  0
113184  1  0  0  0  0
113185  1  0  0  0  0
124186  1  0  0  0  0
124187  1  0  0  0  0
125188  1  0  0  0  0
125189  1  0  0  0  0
125190  1  0  0  0  0
132191  1  0  0  0  0
133192  1  0  0  0  0
M  END
