188

C          0.88350       -3.71040       12.59380
C          1.90020       -3.08640       11.96310
C          1.62370       -2.82890       10.58930
C          2.46470       -2.24430        9.62650
C          3.78810       -1.74800        9.96530
S          4.01410       -0.61810       11.26940
C          5.71560       -0.49870       10.97930
C          6.57150        0.41900       11.77990
C          6.49700        1.84850       11.23760
C          6.07200       -1.29000        9.92840
Cl         7.67770       -1.43660        9.34170
C          4.98460       -2.00120        9.35240
Cl         5.20190       -3.12450        8.07720
C          1.95940       -2.13120        8.33680
C          0.66260       -2.57330        7.97570
C         -0.15740       -3.20710        8.92600
C         -1.45170       -3.74550        8.55240
S         -2.88570       -3.39450        9.47150
C         -3.88290       -4.34520        8.42710
C         -5.35450       -4.43590        8.63170
C         -6.07870       -3.29860        7.90680
C         -3.13550       -4.89570        7.42760
C         -1.75700       -4.56330        7.49630
Cl        -0.60370       -5.21490        6.40390
Cl        -3.77830       -5.90390        6.19700
C          0.34110       -3.29920       10.22060
S         -0.47220       -4.03480       11.57310
C          0.35070       -2.25220        6.63320
C          1.36920       -1.62980        5.97300
S          2.76770       -1.37870        6.99250
C          1.39570       -1.23440        4.60470
C          2.46440       -0.75660        3.90260
C          2.18570       -0.52100        2.53520
C          3.04630       -0.00620        1.54440
C          4.42170        0.35810        1.83580
S          5.01210        1.92000        1.33330
C          6.56630        1.65090        2.03650
C          7.65590        2.65760        1.91570
C          8.44110        2.45140        0.61780
C          6.62020        0.41480        2.61010
Cl         8.00830       -0.21400        3.40000
C          5.40800       -0.31750        2.50660
Cl         5.29440       -1.91840        3.11360
C          2.48250        0.22740        0.29260
C          1.11780       -0.00920        0.00990
C          0.25410       -0.48960        1.00490
C         -1.18410       -0.52320        0.78370
S         -2.15460       -1.94350        0.99240
C         -3.61410       -1.10400        0.60370
C         -4.93680       -1.78540        0.54130
C         -4.80340       -3.28130        0.29040
C         -3.34810        0.21300        0.36620
C         -1.97180        0.54410        0.44330
Cl        -1.38250        2.13900        0.16640
Cl        -4.56320        1.38290        0.03720
C          0.82410       -0.78370        2.23380
S         -0.04220       -1.37400        3.61980
C          0.77800        0.34590       -1.31950
C          1.81700        0.87120       -2.01180
S          3.30120        0.88190       -1.09800
C          1.70060        1.49620       -3.32290
C          1.73530        2.88720       -3.46990
C          2.00430        3.81600       -2.35320
O          2.14190        3.56380       -1.19580
S          2.08630        5.48860       -3.00490
C          1.47270        4.98970       -4.61300
O          1.11890        5.77660       -5.43850
C          1.45580        3.51240       -4.68640
C          1.20830        2.78300       -5.85390
C          1.27490        1.38860       -5.72170
C          1.45810        0.76670       -4.49180
C          1.37850       -0.70640       -4.53200
O          1.52710       -1.47750       -3.63110
S          1.02770       -1.22160       -6.20800
C          1.13150        0.45580       -6.86140
O          1.14410        0.69860       -8.02570
C          0.98450        3.38400       -7.16930
C         -0.03050        4.12970       -7.59250
C         -1.26080        4.54580       -6.91630
C         -1.54960        5.91100       -6.77750
C         -0.63130        6.97880       -7.22920
O          0.32910        6.87630       -7.92760
S         -1.26200        8.55400       -6.64480
C         -2.78590        7.84130       -6.02670
O         -3.67660        8.49710       -5.57780
C         -2.73520        6.37420       -6.20730
C         -3.78870        5.51250       -5.85730
C         -3.55230        4.15120       -6.12490
C         -2.29680        3.67800       -6.54490
C         -2.21400        2.21520       -6.63110
O         -1.24620        1.52040       -6.74650
S         -3.85870        1.52380       -6.47650
C         -4.59640        3.11980       -6.11100
O         -5.77400        3.23870       -5.92550
C         -5.01260        6.04080       -5.25990
C         -5.63210        5.55920       -4.17450
C         -5.17620        4.35280       -3.50240
C         -6.01770        3.24770       -3.29170
C         -7.48970        3.31330       -3.39040
O         -8.17270        4.25940       -3.63580
S         -8.16050        1.69050       -3.01980
C         -6.54370        0.94990       -2.77320
O         -6.39230       -0.18540       -2.43220
C         -5.51530        1.97630       -3.01680
C         -4.13640        1.71620       -2.96950
C         -3.30770        2.85020       -3.03280
C         -3.81940        4.13450       -3.23450
C         -2.82030        5.20860       -3.16080
O         -2.97050        6.38970       -3.12200
S         -1.18590        4.44800       -3.08610
C         -1.85080        2.77880       -3.09130
O         -1.14890        1.81420       -3.22140
C         -3.51970        0.41220       -2.92410
C         -3.74790       -0.57670       -3.80130
C         -2.86310       -1.69440       -3.90950
C         -2.62210       -2.42920       -5.03540
C         -1.52610       -3.31790       -4.90690
C         -0.92810       -4.11700       -5.89960
C         -1.48890       -4.20310       -7.23520
S         -3.16700       -4.60620       -7.46580
C         -3.02610       -4.55910       -9.18830
C         -4.20430       -4.79120      -10.06780
C         -5.00760       -3.50180      -10.25700
C         -1.75270       -4.23000       -9.54880
Cl        -1.23200       -4.07250      -11.17440
C         -0.87560       -4.03500       -8.44790
Cl         0.74960       -3.54110       -8.65820
C          0.21540       -4.82000       -5.53290
C          0.76790       -4.77350       -4.22950
C          0.16120       -3.99110       -3.23660
C          0.65300       -3.94220       -1.87040
S          2.26810       -3.45410       -1.47710
C          2.00080       -3.68450        0.21570
C          3.10830       -3.52290        1.19380
C          3.93530       -4.80700        1.29300
C          0.72480       -4.10610        0.44940
C         -0.04470       -4.24740       -0.73360
Cl        -1.64360       -4.85890       -0.73240
Cl         0.09740       -4.44800        2.00870
C         -0.96070       -3.26490       -3.61070
S         -1.77510       -2.10920       -2.60390
C          1.90280       -5.62440       -4.10700
C          2.18600       -6.28370       -5.25060
S          1.10630       -5.91710       -6.54680
H          0.83600       -4.01510       13.62090
H          2.82270       -2.81790       12.44340
H          7.60240        0.06330       11.73480
H          6.24190        0.40870       12.82030
H          6.83290        1.87730       10.20420
H          5.47440        2.21600       11.28150
H          7.12980        2.50480       11.82850
H         -5.70340       -5.39500        8.24410
H         -5.57530       -4.38670        9.69900
H         -7.15080       -3.38160        8.06170
H         -5.87600       -3.34260        6.83990
H         -5.74410       -2.33580        8.28570
H         -0.59450       -2.46150        6.16690
H          3.41550       -0.57520        4.36680
H          7.22560        3.66000        1.92490
H          8.32810        2.55490        2.76960
H          8.88400        1.45890        0.59860
H          7.78250        2.55550       -0.24110
H          9.23530        3.18890        0.54150
H         -5.52220       -1.32300       -0.25890
H         -5.47270       -1.61620        1.48130
H         -4.29540       -3.46060       -0.65360
H         -4.23100       -3.75320        1.08650
H         -5.78600       -3.74290        0.24770
H         -0.20530        0.24530       -1.73720
H          1.76640        3.15070       -7.88190
H          0.03510        4.53160       -8.59700
H         -5.39440        6.94280       -5.71610
H         -6.55360        6.00660       -3.83550
H         -2.68350        0.31660       -2.24520
H         -4.51970       -0.49560       -4.55350
H         -3.17670       -2.29280       -5.94570
H         -3.85150       -5.14730      -11.03720
H         -4.84430       -5.55560       -9.62390
H         -4.38590       -2.73350      -10.70970
H         -5.86060       -3.68610      -10.90420
H         -5.36900       -3.13730       -9.29840
H          3.75120       -2.70030        0.87840
H          2.68840       -3.28630        2.17290
H          4.36820       -5.05240        0.32630
H          4.73890       -4.67620        2.01250
H          3.30940       -5.63450        1.61710
H          2.46640       -5.72900       -3.19840
H          2.98120       -6.98110       -5.42830
