
  xtb     03022218333D
 energy: -461.714962727998 gnorm: 0.000303940206 xtb: 6.4.1 (unknown)
228254  0     0  0            999 V2000
   -2.0382   -7.8018    9.5705 C   0  0  0  0  0  0  0  0  0  0  0  0
   -1.1907   -7.4144    8.5961 C   0  0  0  0  0  0  0  0  0  0  0  0
   -1.8501   -7.1701    7.3560 C   0  0  0  0  0  0  0  0  0  0  0  0
   -1.2828   -6.7917    6.1304 C   0  0  0  0  0  0  0  0  0  0  0  0
    0.1331   -6.4864    5.9957 C   0  0  0  0  0  0  0  0  0  0  0  0
    0.8747   -5.2632    6.9874 S   0  0  0  0  0  0  0  0  0  0  0  0
    2.3890   -5.3967    6.1613 C   0  0  0  0  0  0  0  0  0  0  0  0
    3.5632   -4.5636    6.5404 C   0  0  0  0  0  0  0  0  0  0  0  0
    4.5022   -5.3145    7.4856 C   0  0  0  0  0  0  0  0  0  0  0  0
    2.3149   -6.3572    5.1975 C   0  0  0  0  0  0  0  0  0  0  0  0
    3.6292   -6.7877    4.1855 Cl  0  0  0  0  0  0  0  0  0  0  0  0
    1.0364   -6.9682    5.0906 C   0  0  0  0  0  0  0  0  0  0  0  0
    0.7041   -8.2218    3.9706 Cl  0  0  0  0  0  0  0  0  0  0  0  0
   -2.1488   -6.6404    5.0540 C   0  0  0  0  0  0  0  0  0  0  0  0
   -3.5497   -6.8183    5.1621 C   0  0  0  0  0  0  0  0  0  0  0  0
   -4.1126   -7.2331    6.3806 C   0  0  0  0  0  0  0  0  0  0  0  0
   -5.5421   -7.4637    6.4965 C   0  0  0  0  0  0  0  0  0  0  0  0
   -6.4944   -6.6978    7.7329 S   0  0  0  0  0  0  0  0  0  0  0  0
   -7.9574   -7.4269    7.1659 C   0  0  0  0  0  0  0  0  0  0  0  0
   -9.2712   -7.1137    7.7924 C   0  0  0  0  0  0  0  0  0  0  0  0
   -9.9010   -5.8770    7.1460 C   0  0  0  0  0  0  0  0  0  0  0  0
   -7.7067   -8.2157    6.0826 C   0  0  0  0  0  0  0  0  0  0  0  0
   -6.3387   -8.2412    5.7012 C   0  0  0  0  0  0  0  0  0  0  0  0
   -5.7558   -9.2152    4.4132 Cl  0  0  0  0  0  0  0  0  0  0  0  0
   -8.9131   -9.1054    5.2475 Cl  0  0  0  0  0  0  0  0  0  0  0  0
   -3.2437   -7.3935    7.4530 C   0  0  0  0  0  0  0  0  0  0  0  0
   -3.6883   -7.8980    9.0591 S   0  0  0  0  0  0  0  0  0  0  0  0
   -4.2223   -6.4469    3.9700 C   0  0  0  0  0  0  0  0  0  0  0  0
   -3.3808   -6.0356    2.9811 C   0  0  0  0  0  0  0  0  0  0  0  0
   -1.7001   -6.0985    3.4646 S   0  0  0  0  0  0  0  0  0  0  0  0
   -3.7285   -5.4955    1.7026 C   0  0  0  0  0  0  0  0  0  0  0  0
   -4.8841   -4.8487    1.3767 C   0  0  0  0  0  0  0  0  0  0  0  0
   -4.8652   -4.2814    0.0787 C   0  0  0  0  0  0  0  0  0  0  0  0
   -5.8172   -3.4207   -0.5021 C   0  0  0  0  0  0  0  0  0  0  0  0
   -7.1017   -3.2025    0.1347 C   0  0  0  0  0  0  0  0  0  0  0  0
   -7.7509   -1.6058    0.3680 S   0  0  0  0  0  0  0  0  0  0  0  0
   -9.1678   -2.2109    1.1554 C   0  0  0  0  0  0  0  0  0  0  0  0
  -10.2480   -1.2910    1.6056 C   0  0  0  0  0  0  0  0  0  0  0  0
  -11.1490   -0.8951    0.4333 C   0  0  0  0  0  0  0  0  0  0  0  0
   -9.1336   -3.5724    1.2130 C   0  0  0  0  0  0  0  0  0  0  0  0
  -10.3680   -4.5335    1.9189 Cl  0  0  0  0  0  0  0  0  0  0  0  0
   -7.9641   -4.1390    0.6402 C   0  0  0  0  0  0  0  0  0  0  0  0
   -7.7295   -5.8366    0.5303 Cl  0  0  0  0  0  0  0  0  0  0  0  0
   -5.4345   -2.7618   -1.6642 C   0  0  0  0  0  0  0  0  0  0  0  0
   -4.2085   -3.0218   -2.3262 C   0  0  0  0  0  0  0  0  0  0  0  0
   -3.3070   -3.9650   -1.8046 C   0  0  0  0  0  0  0  0  0  0  0  0
   -2.0466   -4.2853   -2.4562 C   0  0  0  0  0  0  0  0  0  0  0  0
   -0.8667   -3.0692   -2.8485 S   0  0  0  0  0  0  0  0  0  0  0  0
    0.2447   -4.2374   -3.4849 C   0  0  0  0  0  0  0  0  0  0  0  0
    1.5751   -3.8276   -4.0143 C   0  0  0  0  0  0  0  0  0  0  0  0
    1.4697   -2.6807   -5.0170 C   0  0  0  0  0  0  0  0  0  0  0  0
   -0.2883   -5.4883   -3.3990 C   0  0  0  0  0  0  0  0  0  0  0  0
   -1.5794   -5.5211   -2.8046 C   0  0  0  0  0  0  0  0  0  0  0  0
   -2.4741   -6.9704   -2.6163 Cl  0  0  0  0  0  0  0  0  0  0  0  0
    0.4903   -6.9105   -3.9582 Cl  0  0  0  0  0  0  0  0  0  0  0  0
   -3.6417   -4.5389   -0.5861 C   0  0  0  0  0  0  0  0  0  0  0  0
   -2.5722   -5.4995    0.3922 S   0  0  0  0  0  0  0  0  0  0  0  0
   -4.0203   -2.1776   -3.4439 C   0  0  0  0  0  0  0  0  0  0  0  0
   -5.0220   -1.2642   -3.6137 C   0  0  0  0  0  0  0  0  0  0  0  0
   -6.3182   -1.4874   -2.4593 S   0  0  0  0  0  0  0  0  0  0  0  0
   -4.9399   -0.1064   -4.4470 C   0  0  0  0  0  0  0  0  0  0  0  0
   -3.9583    0.1480   -5.3620 C   0  0  0  0  0  0  0  0  0  0  0  0
   -3.8870    1.5048   -5.7482 C   0  0  0  0  0  0  0  0  0  0  0  0
   -2.8464    2.1212   -6.4689 C   0  0  0  0  0  0  0  0  0  0  0  0
   -1.7871    1.3260   -7.0642 C   0  0  0  0  0  0  0  0  0  0  0  0
   -0.1233    1.6091   -6.6361 S   0  0  0  0  0  0  0  0  0  0  0  0
    0.4283    0.2698   -7.5822 C   0  0  0  0  0  0  0  0  0  0  0  0
    1.8792   -0.0476   -7.6646 C   0  0  0  0  0  0  0  0  0  0  0  0
    2.6613    1.0776   -8.3423 C   0  0  0  0  0  0  0  0  0  0  0  0
   -0.6231   -0.3461   -8.1923 C   0  0  0  0  0  0  0  0  0  0  0  0
   -0.4732   -1.7168   -9.2154 Cl  0  0  0  0  0  0  0  0  0  0  0  0
   -1.8820    0.2433   -7.8929 C   0  0  0  0  0  0  0  0  0  0  0  0
   -3.3569   -0.3240   -8.5625 Cl  0  0  0  0  0  0  0  0  0  0  0  0
   -2.7738    3.5000   -6.3816 C   0  0  0  0  0  0  0  0  0  0  0  0
   -3.6891    4.2951   -5.6468 C   0  0  0  0  0  0  0  0  0  0  0  0
   -4.8268    3.6878   -5.0782 C   0  0  0  0  0  0  0  0  0  0  0  0
   -5.8713    4.4419   -4.4094 C   0  0  0  0  0  0  0  0  0  0  0  0
   -5.5460    5.6550   -3.2070 S   0  0  0  0  0  0  0  0  0  0  0  0
   -7.2249    5.9854   -2.9632 C   0  0  0  0  0  0  0  0  0  0  0  0
   -7.6642    7.0692   -2.0432 C   0  0  0  0  0  0  0  0  0  0  0  0
   -7.5778    8.4303   -2.7389 C   0  0  0  0  0  0  0  0  0  0  0  0
   -7.9840    5.1966   -3.7747 C   0  0  0  0  0  0  0  0  0  0  0  0
   -7.2236    4.3133   -4.5859 C   0  0  0  0  0  0  0  0  0  0  0  0
   -7.9523    3.2664   -5.7292 Cl  0  0  0  0  0  0  0  0  0  0  0  0
   -9.6980    5.2451   -3.8255 Cl  0  0  0  0  0  0  0  0  0  0  0  0
   -4.8741    2.2955   -5.1129 C   0  0  0  0  0  0  0  0  0  0  0  0
   -5.9255    1.3069   -4.1341 S   0  0  0  0  0  0  0  0  0  0  0  0
   -3.1882    5.6057   -5.4278 C   0  0  0  0  0  0  0  0  0  0  0  0
   -1.9437    5.8098   -5.9561 C   0  0  0  0  0  0  0  0  0  0  0  0
   -1.4380    4.4529   -6.9582 S   0  0  0  0  0  0  0  0  0  0  0  0
   -0.8867    6.6579   -5.4985 C   0  0  0  0  0  0  0  0  0  0  0  0
    0.6455    5.8478   -5.5091 S   0  0  0  0  0  0  0  0  0  0  0  0
    1.3152    6.8632   -4.2891 C   0  0  0  0  0  0  0  0  0  0  0  0
    0.4306    7.8999   -3.9804 C   0  0  0  0  0  0  0  0  0  0  0  0
   -0.8186    7.8076   -4.7002 C   0  0  0  0  0  0  0  0  0  0  0  0
   -1.7481    8.8645   -4.5258 C   0  0  0  0  0  0  0  0  0  0  0  0
   -2.9975    9.0013   -5.3494 C   0  0  0  0  0  0  0  0  0  0  0  0
   -2.9614    8.3605   -6.5226 F   0  0  0  0  0  0  0  0  0  0  0  0
   -3.2559   10.2885   -5.6431 F   0  0  0  0  0  0  0  0  0  0  0  0
   -4.1004    8.5605   -4.7023 F   0  0  0  0  0  0  0  0  0  0  0  0
   -1.4904    9.8701   -3.6264 C   0  0  0  0  0  0  0  0  0  0  0  0
   -0.2959    9.9079   -2.8887 C   0  0  0  0  0  0  0  0  0  0  0  0
    0.6635    8.9561   -3.0797 C   0  0  0  0  0  0  0  0  0  0  0  0
    2.4592    6.3347   -3.6230 C   0  0  0  0  0  0  0  0  0  0  0  0
    2.7781    6.3564   -2.2936 C   0  0  0  0  0  0  0  0  0  0  0  0
    3.6990    5.3444   -1.9165 C   0  0  0  0  0  0  0  0  0  0  0  0
    4.0812    4.9649   -0.6128 C   0  0  0  0  0  0  0  0  0  0  0  0
    3.7875    5.8213    0.5186 C   0  0  0  0  0  0  0  0  0  0  0  0
    3.1277    5.2003    2.0030 S   0  0  0  0  0  0  0  0  0  0  0  0
    3.0869    6.7677    2.7344 C   0  0  0  0  0  0  0  0  0  0  0  0
    2.6304    6.9479    4.1397 C   0  0  0  0  0  0  0  0  0  0  0  0
    3.7480    6.5981    5.1252 C   0  0  0  0  0  0  0  0  0  0  0  0
    3.5733    7.7063    1.8731 C   0  0  0  0  0  0  0  0  0  0  0  0
    3.7027    9.3765    2.2479 Cl  0  0  0  0  0  0  0  0  0  0  0  0
    3.9647    7.1768    0.6156 C   0  0  0  0  0  0  0  0  0  0  0  0
    4.6719    8.1534   -0.6061 Cl  0  0  0  0  0  0  0  0  0  0  0  0
    4.6996    3.7253   -0.4767 C   0  0  0  0  0  0  0  0  0  0  0  0
    5.0381    2.9133   -1.5870 C   0  0  0  0  0  0  0  0  0  0  0  0
    4.7596    3.3447   -2.8942 C   0  0  0  0  0  0  0  0  0  0  0  0
    5.0883    2.5294   -4.0545 C   0  0  0  0  0  0  0  0  0  0  0  0
    6.0737    3.1740   -5.3323 S   0  0  0  0  0  0  0  0  0  0  0  0
    6.0133    1.6958   -6.2314 C   0  0  0  0  0  0  0  0  0  0  0  0
    6.7240    1.5552   -7.5330 C   0  0  0  0  0  0  0  0  0  0  0  0
    6.4314    2.7248   -8.4700 C   0  0  0  0  0  0  0  0  0  0  0  0
    5.2618    0.7729   -5.5683 C   0  0  0  0  0  0  0  0  0  0  0  0
    4.7284    1.2416   -4.3372 C   0  0  0  0  0  0  0  0  0  0  0  0
    3.6744    0.2881   -3.3717 Cl  0  0  0  0  0  0  0  0  0  0  0  0
    4.9926   -0.8261   -6.1303 Cl  0  0  0  0  0  0  0  0  0  0  0  0
    4.0843    4.5463   -3.0209 C   0  0  0  0  0  0  0  0  0  0  0  0
    3.4025    5.1407   -4.5051 S   0  0  0  0  0  0  0  0  0  0  0  0
    5.5823    1.6711   -1.1923 C   0  0  0  0  0  0  0  0  0  0  0  0
    5.6272    1.4973    0.1588 C   0  0  0  0  0  0  0  0  0  0  0  0
    5.0988    2.9269    1.0238 S   0  0  0  0  0  0  0  0  0  0  0  0
    5.9166    0.2619    0.8137 C   0  0  0  0  0  0  0  0  0  0  0  0
    6.1607   -0.0167    2.1240 C   0  0  0  0  0  0  0  0  0  0  0  0
    6.3127   -1.4056    2.3856 C   0  0  0  0  0  0  0  0  0  0  0  0
    6.5564   -2.0537    3.6093 C   0  0  0  0  0  0  0  0  0  0  0  0
    6.7912   -1.3054    4.8315 C   0  0  0  0  0  0  0  0  0  0  0  0
    5.9025   -1.6520    6.2857 S   0  0  0  0  0  0  0  0  0  0  0  0
    6.7338   -0.4264    7.1800 C   0  0  0  0  0  0  0  0  0  0  0  0
    6.3896   -0.1403    8.5997 C   0  0  0  0  0  0  0  0  0  0  0  0
    5.1933    0.8097    8.6935 C   0  0  0  0  0  0  0  0  0  0  0  0
    7.6393    0.2091    6.3837 C   0  0  0  0  0  0  0  0  0  0  0  0
    8.6572    1.4831    6.9191 Cl  0  0  0  0  0  0  0  0  0  0  0  0
    7.6782   -0.2885    5.0534 C   0  0  0  0  0  0  0  0  0  0  0  0
    8.7975    0.2879    3.8863 Cl  0  0  0  0  0  0  0  0  0  0  0  0
    6.5674   -3.4450    3.5979 C   0  0  0  0  0  0  0  0  0  0  0  0
    6.3223   -4.2138    2.4359 C   0  0  0  0  0  0  0  0  0  0  0  0
    6.0672   -3.5694    1.2185 C   0  0  0  0  0  0  0  0  0  0  0  0
    5.6733   -4.2917    0.0186 C   0  0  0  0  0  0  0  0  0  0  0  0
    6.4782   -4.0691   -1.5041 S   0  0  0  0  0  0  0  0  0  0  0  0
    5.3376   -5.0710   -2.3398 C   0  0  0  0  0  0  0  0  0  0  0  0
    5.4433   -5.2924   -3.8083 C   0  0  0  0  0  0  0  0  0  0  0  0
    5.4776   -3.9681   -4.5691 C   0  0  0  0  0  0  0  0  0  0  0  0
    4.3980   -5.5437   -1.4732 C   0  0  0  0  0  0  0  0  0  0  0  0
    4.5879   -5.1077   -0.1334 C   0  0  0  0  0  0  0  0  0  0  0  0
    3.5032   -5.5093    1.1327 Cl  0  0  0  0  0  0  0  0  0  0  0  0
    3.0814   -6.5501   -1.9252 Cl  0  0  0  0  0  0  0  0  0  0  0  0
    6.1147   -2.1823    1.2186 C   0  0  0  0  0  0  0  0  0  0  0  0
    5.8336   -1.1864   -0.1741 S   0  0  0  0  0  0  0  0  0  0  0  0
    6.4238   -5.6118    2.6925 C   0  0  0  0  0  0  0  0  0  0  0  0
    6.7331   -5.8848    3.9755 C   0  0  0  0  0  0  0  0  0  0  0  0
    6.9161   -4.4737    4.9599 S   0  0  0  0  0  0  0  0  0  0  0  0
   -1.8036   -8.0493   10.5873 H   0  0  0  0  0  0  0  0  0  0  0  0
   -0.1303   -7.3073    8.7319 H   0  0  0  0  0  0  0  0  0  0  0  0
    3.2183   -3.6470    7.0200 H   0  0  0  0  0  0  0  0  0  0  0  0
    4.1085   -4.2930    5.6339 H   0  0  0  0  0  0  0  0  0  0  0  0
    3.9882   -5.5673    8.4097 H   0  0  0  0  0  0  0  0  0  0  0  0
    5.3626   -4.6930    7.7169 H   0  0  0  0  0  0  0  0  0  0  0  0
    4.8509   -6.2316    7.0187 H   0  0  0  0  0  0  0  0  0  0  0  0
   -9.1303   -6.9357    8.8596 H   0  0  0  0  0  0  0  0  0  0  0  0
   -9.9351   -7.9705    7.6631 H   0  0  0  0  0  0  0  0  0  0  0  0
   -9.2508   -5.0142    7.2699 H   0  0  0  0  0  0  0  0  0  0  0  0
  -10.0569   -6.0452    6.0835 H   0  0  0  0  0  0  0  0  0  0  0  0
  -10.8602   -5.6615    7.6087 H   0  0  0  0  0  0  0  0  0  0  0  0
   -5.2897   -6.4741    3.8557 H   0  0  0  0  0  0  0  0  0  0  0  0
   -5.6900   -4.7136    2.0735 H   0  0  0  0  0  0  0  0  0  0  0  0
  -10.8403   -1.7943    2.3718 H   0  0  0  0  0  0  0  0  0  0  0  0
   -9.8030   -0.3934    2.0388 H   0  0  0  0  0  0  0  0  0  0  0  0
  -10.5667   -0.3939   -0.3362 H   0  0  0  0  0  0  0  0  0  0  0  0
  -11.9313   -0.2225    0.7744 H   0  0  0  0  0  0  0  0  0  0  0  0
  -11.6126   -1.7774   -0.0005 H   0  0  0  0  0  0  0  0  0  0  0  0
    2.0364   -4.6982   -4.4835 H   0  0  0  0  0  0  0  0  0  0  0  0
    2.2105   -3.5180   -3.1782 H   0  0  0  0  0  0  0  0  0  0  0  0
    0.8480   -2.9665   -5.8620 H   0  0  0  0  0  0  0  0  0  0  0  0
    1.0310   -1.8041   -4.5448 H   0  0  0  0  0  0  0  0  0  0  0  0
    2.4573   -2.4195   -5.3878 H   0  0  0  0  0  0  0  0  0  0  0  0
   -3.1370   -2.2019   -4.0533 H   0  0  0  0  0  0  0  0  0  0  0  0
   -3.2559   -0.5933   -5.6926 H   0  0  0  0  0  0  0  0  0  0  0  0
    2.0020   -0.9770   -8.2223 H   0  0  0  0  0  0  0  0  0  0  0  0
    2.2709   -0.1941   -6.6564 H   0  0  0  0  0  0  0  0  0  0  0  0
    2.2844    1.2514   -9.3471 H   0  0  0  0  0  0  0  0  0  0  0  0
    2.5676    1.9981   -7.7700 H   0  0  0  0  0  0  0  0  0  0  0  0
    3.7116    0.8075   -8.4050 H   0  0  0  0  0  0  0  0  0  0  0  0
   -8.6938    6.8757   -1.7370 H   0  0  0  0  0  0  0  0  0  0  0  0
   -7.0282    7.0733   -1.1562 H   0  0  0  0  0  0  0  0  0  0  0  0
   -7.8782    9.2195   -2.0549 H   0  0  0  0  0  0  0  0  0  0  0  0
   -8.2337    8.4517   -3.6054 H   0  0  0  0  0  0  0  0  0  0  0  0
   -6.5596    8.6196   -3.0707 H   0  0  0  0  0  0  0  0  0  0  0  0
   -3.6761    6.3065   -4.7799 H   0  0  0  0  0  0  0  0  0  0  0  0
   -2.2044   10.6710   -3.5095 H   0  0  0  0  0  0  0  0  0  0  0  0
   -0.1325   10.7222   -2.2010 H   0  0  0  0  0  0  0  0  0  0  0  0
    1.6142    9.0125   -2.5734 H   0  0  0  0  0  0  0  0  0  0  0  0
    2.2720    6.9814   -1.5814 H   0  0  0  0  0  0  0  0  0  0  0  0
    2.3284    7.9872    4.2798 H   0  0  0  0  0  0  0  0  0  0  0  0
    1.7691    6.3040    4.3263 H   0  0  0  0  0  0  0  0  0  0  0  0
    4.6087    7.2420    4.9637 H   0  0  0  0  0  0  0  0  0  0  0  0
    4.0571    5.5641    4.9920 H   0  0  0  0  0  0  0  0  0  0  0  0
    3.4001    6.7312    6.1459 H   0  0  0  0  0  0  0  0  0  0  0  0
    7.8016    1.5032   -7.3514 H   0  0  0  0  0  0  0  0  0  0  0  0
    6.4174    0.6140   -7.9936 H   0  0  0  0  0  0  0  0  0  0  0  0
    6.9479    2.5842   -9.4156 H   0  0  0  0  0  0  0  0  0  0  0  0
    6.7688    3.6571   -8.0239 H   0  0  0  0  0  0  0  0  0  0  0  0
    5.3645    2.8015   -8.6631 H   0  0  0  0  0  0  0  0  0  0  0  0
    5.9071    0.9144   -1.8824 H   0  0  0  0  0  0  0  0  0  0  0  0
    6.2145    0.7463    2.8791 H   0  0  0  0  0  0  0  0  0  0  0  0
    7.2554    0.3135    9.0849 H   0  0  0  0  0  0  0  0  0  0  0  0
    6.1514   -1.0750    9.1100 H   0  0  0  0  0  0  0  0  0  0  0  0
    4.3227    0.3680    8.2147 H   0  0  0  0  0  0  0  0  0  0  0  0
    4.9564    1.0094    9.7349 H   0  0  0  0  0  0  0  0  0  0  0  0
    5.4211    1.7514    8.2009 H   0  0  0  0  0  0  0  0  0  0  0  0
    6.3527   -5.8577   -4.0292 H   0  0  0  0  0  0  0  0  0  0  0  0
    4.5867   -5.8895   -4.1253 H   0  0  0  0  0  0  0  0  0  0  0  0
    5.5047   -4.1500   -5.6403 H   0  0  0  0  0  0  0  0  0  0  0  0
    4.5963   -3.3762   -4.3375 H   0  0  0  0  0  0  0  0  0  0  0  0
    6.3592   -3.3958   -4.2897 H   0  0  0  0  0  0  0  0  0  0  0  0
    6.2799   -6.3614    1.9362 H   0  0  0  0  0  0  0  0  0  0  0  0
    6.8731   -6.8456    4.4306 H   0  0  0  0  0  0  0  0  0  0  0  0
  1  2  2  0  0  0  0
  2  3  1  0  0  0  0
  3  4  2  0  0  0  0
  4  5  1  0  0  0  0
  5  6  1  0  0  0  0
  6  7  1  0  0  0  0
  7  8  1  0  0  0  0
  8  9  1  0  0  0  0
  7 10  2  0  0  0  0
 10 11  1  0  0  0  0
 10 12  1  0  0  0  0
 12 13  1  0  0  0  0
  4 14  1  0  0  0  0
 14 15  2  0  0  0  0
 15 16  1  0  0  0  0
 16 17  1  0  0  0  0
 17 18  1  0  0  0  0
 18 19  1  0  0  0  0
 19 20  1  0  0  0  0
 20 21  1  0  0  0  0
 19 22  2  0  0  0  0
 22 23  1  0  0  0  0
 23 24  1  0  0  0  0
 22 25  1  0  0  0  0
 16 26  2  0  0  0  0
 26 27  1  0  0  0  0
 15 28  1  0  0  0  0
 28 29  2  0  0  0  0
 29 30  1  0  0  0  0
 29 31  1  0  0  0  0
 31 32  2  0  0  0  0
 32 33  1  0  0  0  0
 33 34  2  0  0  0  0
 34 35  1  0  0  0  0
 35 36  1  0  0  0  0
 36 37  1  0  0  0  0
 37 38  1  0  0  0  0
 38 39  1  0  0  0  0
 37 40  2  0  0  0  0
 40 41  1  0  0  0  0
 40 42  1  0  0  0  0
 42 43  1  0  0  0  0
 34 44  1  0  0  0  0
 44 45  2  0  0  0  0
 45 46  1  0  0  0  0
 46 47  1  0  0  0  0
 47 48  1  0  0  0  0
 48 49  1  0  0  0  0
 49 50  1  0  0  0  0
 50 51  1  0  0  0  0
 49 52  2  0  0  0  0
 52 53  1  0  0  0  0
 53 54  1  0  0  0  0
 52 55  1  0  0  0  0
 46 56  2  0  0  0  0
 56 57  1  0  0  0  0
 45 58  1  0  0  0  0
 58 59  2  0  0  0  0
 59 60  1  0  0  0  0
 59 61  1  0  0  0  0
 61 62  2  0  0  0  0
 62 63  1  0  0  0  0
 63 64  2  0  0  0  0
 64 65  1  0  0  0  0
 65 66  1  0  0  0  0
 66 67  1  0  0  0  0
 67 68  1  0  0  0  0
 68 69  1  0  0  0  0
 67 70  2  0  0  0  0
 70 71  1  0  0  0  0
 70 72  1  0  0  0  0
 72 73  1  0  0  0  0
 64 74  1  0  0  0  0
 74 75  2  0  0  0  0
 75 76  1  0  0  0  0
 76 77  1  0  0  0  0
 77 78  1  0  0  0  0
 78 79  1  0  0  0  0
 79 80  1  0  0  0  0
 80 81  1  0  0  0  0
 79 82  2  0  0  0  0
 82 83  1  0  0  0  0
 83 84  1  0  0  0  0
 82 85  1  0  0  0  0
 76 86  2  0  0  0  0
 86 87  1  0  0  0  0
 75 88  1  0  0  0  0
 88 89  2  0  0  0  0
 89 90  1  0  0  0  0
 89 91  1  0  0  0  0
 91 92  1  0  0  0  0
 92 93  1  0  0  0  0
 93 94  2  0  0  0  0
 94 95  1  0  0  0  0
 95 96  1  0  0  0  0
 96 97  1  0  0  0  0
 97 98  1  0  0  0  0
 97 99  1  0  0  0  0
 97100  1  0  0  0  0
 96101  2  0  0  0  0
101102  1  0  0  0  0
102103  2  0  0  0  0
 93104  1  0  0  0  0
104105  2  0  0  0  0
105106  1  0  0  0  0
106107  2  0  0  0  0
107108  1  0  0  0  0
108109  1  0  0  0  0
109110  1  0  0  0  0
110111  1  0  0  0  0
111112  1  0  0  0  0
110113  2  0  0  0  0
113114  1  0  0  0  0
113115  1  0  0  0  0
115116  1  0  0  0  0
107117  1  0  0  0  0
117118  2  0  0  0  0
118119  1  0  0  0  0
119120  1  0  0  0  0
120121  1  0  0  0  0
121122  1  0  0  0  0
122123  1  0  0  0  0
123124  1  0  0  0  0
122125  2  0  0  0  0
125126  1  0  0  0  0
126127  1  0  0  0  0
125128  1  0  0  0  0
119129  2  0  0  0  0
129130  1  0  0  0  0
118131  1  0  0  0  0
131132  2  0  0  0  0
132133  1  0  0  0  0
132134  1  0  0  0  0
134135  2  0  0  0  0
135136  1  0  0  0  0
136137  2  0  0  0  0
137138  1  0  0  0  0
138139  1  0  0  0  0
139140  1  0  0  0  0
140141  1  0  0  0  0
141142  1  0  0  0  0
140143  2  0  0  0  0
143144  1  0  0  0  0
143145  1  0  0  0  0
145146  1  0  0  0  0
137147  1  0  0  0  0
147148  2  0  0  0  0
148149  1  0  0  0  0
149150  1  0  0  0  0
150151  1  0  0  0  0
151152  1  0  0  0  0
152153  1  0  0  0  0
153154  1  0  0  0  0
152155  2  0  0  0  0
155156  1  0  0  0  0
156157  1  0  0  0  0
155158  1  0  0  0  0
149159  2  0  0  0  0
159160  1  0  0  0  0
148161  1  0  0  0  0
161162  2  0  0  0  0
162163  1  0  0  0  0
 27  1  1  0  0  0  0
 57 31  1  0  0  0  0
 87 61  1  0  0  0  0
 95 91  2  0  0  0  0
130104  1  0  0  0  0
160134  1  0  0  0  0
 26  3  1  0  0  0  0
 56 33  1  0  0  0  0
 86 63  1  0  0  0  0
103 94  1  0  0  0  0
129106  1  0  0  0  0
159136  1  0  0  0  0
 12  5  2  0  0  0  0
 30 14  1  0  0  0  0
 42 35  2  0  0  0  0
 60 44  1  0  0  0  0
 72 65  2  0  0  0  0
 90 74  1  0  0  0  0
115108  2  0  0  0  0
133117  1  0  0  0  0
145138  2  0  0  0  0
163147  1  0  0  0  0
 23 17  2  0  0  0  0
 53 47  2  0  0  0  0
 83 77  2  0  0  0  0
126120  2  0  0  0  0
156150  2  0  0  0  0
  1164  1  0  0  0  0
  2165  1  0  0  0  0
  8166  1  0  0  0  0
  8167  1  0  0  0  0
  9168  1  0  0  0  0
  9169  1  0  0  0  0
  9170  1  0  0  0  0
 20171  1  0  0  0  0
 20172  1  0  0  0  0
 21173  1  0  0  0  0
 21174  1  0  0  0  0
 21175  1  0  0  0  0
 28176  1  0  0  0  0
 32177  1  0  0  0  0
 38178  1  0  0  0  0
 38179  1  0  0  0  0
 39180  1  0  0  0  0
 39181  1  0  0  0  0
 39182  1  0  0  0  0
 50183  1  0  0  0  0
 50184  1  0  0  0  0
 51185  1  0  0  0  0
 51186  1  0  0  0  0
 51187  1  0  0  0  0
 58188  1  0  0  0  0
 62189  1  0  0  0  0
 68190  1  0  0  0  0
 68191  1  0  0  0  0
 69192  1  0  0  0  0
 69193  1  0  0  0  0
 69194  1  0  0  0  0
 80195  1  0  0  0  0
 80196  1  0  0  0  0
 81197  1  0  0  0  0
 81198  1  0  0  0  0
 81199  1  0  0  0  0
 88200  1  0  0  0  0
101201  1  0  0  0  0
102202  1  0  0  0  0
103203  1  0  0  0  0
105204  1  0  0  0  0
111205  1  0  0  0  0
111206  1  0  0  0  0
112207  1  0  0  0  0
112208  1  0  0  0  0
112209  1  0  0  0  0
123210  1  0  0  0  0
123211  1  0  0  0  0
124212  1  0  0  0  0
124213  1  0  0  0  0
124214  1  0  0  0  0
131215  1  0  0  0  0
135216  1  0  0  0  0
141217  1  0  0  0  0
141218  1  0  0  0  0
142219  1  0  0  0  0
142220  1  0  0  0  0
142221  1  0  0  0  0
153222  1  0  0  0  0
153223  1  0  0  0  0
154224  1  0  0  0  0
154225  1  0  0  0  0
154226  1  0  0  0  0
161227  1  0  0  0  0
162228  1  0  0  0  0
M  END
