
  xtb     03012201183D
 energy: -187.384487517115 gnorm: 0.000742706057 xtb: 6.4.1 (unknown)
 84 89  0     0  0            999 V2000
    6.8845    1.0137    6.1915 C   0  0  0  0  0  0  0  0  0  0  0  0
    6.1393    0.7962    7.3362 C   0  0  0  0  0  0  0  0  0  0  0  0
    6.7678    0.6792    8.5119 F   0  0  0  0  0  0  0  0  0  0  0  0
    4.7542    0.7009    7.2883 C   0  0  0  0  0  0  0  0  0  0  0  0
    4.0912    0.5198    8.4385 F   0  0  0  0  0  0  0  0  0  0  0  0
    4.0569    0.8241    6.0799 C   0  0  0  0  0  0  0  0  0  0  0  0
    4.8306    1.0597    4.9336 C   0  0  0  0  0  0  0  0  0  0  0  0
    6.2140    1.1460    4.9883 C   0  0  0  0  0  0  0  0  0  0  0  0
    6.9135    1.3632    3.8692 F   0  0  0  0  0  0  0  0  0  0  0  0
    4.2154    1.1922    3.7514 F   0  0  0  0  0  0  0  0  0  0  0  0
    2.6128    0.7597    5.9459 C   0  0  0  0  0  0  0  0  0  0  0  0
    1.7772    0.1624    6.8095 C   0  0  0  0  0  0  0  0  0  0  0  0
    0.3355    0.1007    6.6789 C   0  0  0  0  0  0  0  0  0  0  0  0
   -0.3744   -0.8692    7.4037 C   0  0  0  0  0  0  0  0  0  0  0  0
    0.3066   -1.7254    8.1779 F   0  0  0  0  0  0  0  0  0  0  0  0
   -1.7505   -0.9820    7.3345 C   0  0  0  0  0  0  0  0  0  0  0  0
   -2.3688   -1.9355    8.0468 F   0  0  0  0  0  0  0  0  0  0  0  0
   -2.5234   -0.1393    6.5272 C   0  0  0  0  0  0  0  0  0  0  0  0
   -1.8215    0.8572    5.8400 C   0  0  0  0  0  0  0  0  0  0  0  0
   -0.4427    0.9698    5.9033 C   0  0  0  0  0  0  0  0  0  0  0  0
    0.1318    1.9761    5.2299 F   0  0  0  0  0  0  0  0  0  0  0  0
   -2.5023    1.7604    5.1157 F   0  0  0  0  0  0  0  0  0  0  0  0
   -3.9737   -0.2446    6.5217 C   0  0  0  0  0  0  0  0  0  0  0  0
   -4.7895   -0.1730    5.4544 C   0  0  0  0  0  0  0  0  0  0  0  0
   -4.4584   -0.1477    4.0631 C   0  0  0  0  0  0  0  0  0  0  0  0
   -5.3713    0.1058    3.0631 C   0  0  0  0  0  0  0  0  0  0  0  0
   -4.9132    0.0248    1.7353 C   0  0  0  0  0  0  0  0  0  0  0  0
   -5.8282    0.3356    0.5904 C   0  0  0  0  0  0  0  0  0  0  0  0
   -6.6672   -0.8869    0.2103 C   0  0  0  0  0  0  0  0  0  0  0  0
   -3.5876   -0.3519    1.6214 C   0  0  0  0  0  0  0  0  0  0  0  0
   -2.7951   -0.5910    3.3089 Se  0  0  0  0  0  2  0  0  0  0  0  0
   -2.7715   -0.5328    0.4593 C   0  0  0  0  0  0  0  0  0  0  0  0
   -3.1342   -0.8273   -0.8310 C   0  0  0  0  0  0  0  0  0  0  0  0
   -2.0869   -0.9354   -1.7718 C   0  0  0  0  0  0  0  0  0  0  0  0
   -2.3872   -1.3420   -3.1830 C   0  0  0  0  0  0  0  0  0  0  0  0
   -3.2128   -0.2850   -3.9179 C   0  0  0  0  0  0  0  0  0  0  0  0
   -0.8309   -0.7378   -1.2417 C   0  0  0  0  0  0  0  0  0  0  0  0
   -0.9036   -0.4182    0.6134 Se  0  0  0  0  0  2  0  0  0  0  0  0
    0.4529   -0.7743   -1.9129 C   0  0  0  0  0  0  0  0  0  0  0  0
    0.7065   -0.1435   -3.1355 C   0  0  0  0  0  0  0  0  0  0  0  0
   -0.2381    0.6224   -3.7011 F   0  0  0  0  0  0  0  0  0  0  0  0
    1.9337   -0.2405   -3.7698 C   0  0  0  0  0  0  0  0  0  0  0  0
    2.1008    0.4232   -4.9275 F   0  0  0  0  0  0  0  0  0  0  0  0
    2.9928   -0.9694   -3.2251 C   0  0  0  0  0  0  0  0  0  0  0  0
    2.7694   -1.5256   -1.9609 C   0  0  0  0  0  0  0  0  0  0  0  0
    1.5447   -1.4288   -1.3296 C   0  0  0  0  0  0  0  0  0  0  0  0
    1.3790   -1.9872   -0.1170 F   0  0  0  0  0  0  0  0  0  0  0  0
    3.7647   -2.1940   -1.3637 F   0  0  0  0  0  0  0  0  0  0  0  0
    4.2891   -1.1361   -3.8686 C   0  0  0  0  0  0  0  0  0  0  0  0
    4.5276   -1.3290   -5.1699 C   0  0  0  0  0  0  0  0  0  0  0  0
    3.5478   -1.4962   -6.2363 C   0  0  0  0  0  0  0  0  0  0  0  0
    3.7934   -0.9342   -7.4924 C   0  0  0  0  0  0  0  0  0  0  0  0
    4.9298   -0.2503   -7.6831 F   0  0  0  0  0  0  0  0  0  0  0  0
    2.8914   -1.0490   -8.5348 C   0  0  0  0  0  0  0  0  0  0  0  0
    3.1894   -0.4705   -9.7073 F   0  0  0  0  0  0  0  0  0  0  0  0
    1.6797   -1.7412   -8.4056 C   0  0  0  0  0  0  0  0  0  0  0  0
    1.4565   -2.3359   -7.1598 C   0  0  0  0  0  0  0  0  0  0  0  0
    2.3629   -2.2240   -6.1168 C   0  0  0  0  0  0  0  0  0  0  0  0
    2.0823   -2.8691   -4.9701 F   0  0  0  0  0  0  0  0  0  0  0  0
    0.3498   -3.0607   -6.9364 F   0  0  0  0  0  0  0  0  0  0  0  0
    0.7784   -1.8079   -9.5479 C   0  0  0  0  0  0  0  0  0  0  0  0
   -0.4908   -2.2011   -9.5427 C   0  0  0  0  0  0  0  0  0  0  0  0
    7.9584    1.0838    6.2370 H   0  0  0  0  0  0  0  0  0  0  0  0
    2.2356    1.2084    5.0390 H   0  0  0  0  0  0  0  0  0  0  0  0
    2.1625   -0.3647    7.6700 H   0  0  0  0  0  0  0  0  0  0  0  0
   -4.4110   -0.4164    7.4960 H   0  0  0  0  0  0  0  0  0  0  0  0
   -5.8558   -0.1856    5.6473 H   0  0  0  0  0  0  0  0  0  0  0  0
   -6.3884    0.3837    3.2893 H   0  0  0  0  0  0  0  0  0  0  0  0
   -5.2489    0.6790   -0.2675 H   0  0  0  0  0  0  0  0  0  0  0  0
   -6.4987    1.1448    0.8884 H   0  0  0  0  0  0  0  0  0  0  0  0
   -6.0296   -1.7311   -0.0437 H   0  0  0  0  0  0  0  0  0  0  0  0
   -7.2988   -1.1840    1.0442 H   0  0  0  0  0  0  0  0  0  0  0  0
   -7.3035   -0.6596   -0.6418 H   0  0  0  0  0  0  0  0  0  0  0  0
   -4.1513   -1.0205   -1.1201 H   0  0  0  0  0  0  0  0  0  0  0  0
   -1.4661   -1.5407   -3.7306 H   0  0  0  0  0  0  0  0  0  0  0  0
   -2.9568   -2.2756   -3.1495 H   0  0  0  0  0  0  0  0  0  0  0  0
   -4.1586   -0.1129   -3.4099 H   0  0  0  0  0  0  0  0  0  0  0  0
   -3.4210   -0.6171   -4.9317 H   0  0  0  0  0  0  0  0  0  0  0  0
   -2.6715    0.6553   -3.9666 H   0  0  0  0  0  0  0  0  0  0  0  0
    5.1306   -1.1139   -3.1893 H   0  0  0  0  0  0  0  0  0  0  0  0
    5.5555   -1.3492   -5.5059 H   0  0  0  0  0  0  0  0  0  0  0  0
    1.2242   -1.4707  -10.4742 H   0  0  0  0  0  0  0  0  0  0  0  0
   -1.0623   -2.2003  -10.4548 H   0  0  0  0  0  0  0  0  0  0  0  0
   -1.0085   -2.5255   -8.6585 H   0  0  0  0  0  0  0  0  0  0  0  0
  1  2  2  0  0  0  0
  2  3  1  0  0  0  0
  2  4  1  0  0  0  0
  4  5  1  0  0  0  0
  4  6  2  0  0  0  0
  6  7  1  0  0  0  0
  7  8  2  0  0  0  0
  8  9  1  0  0  0  0
  7 10  1  0  0  0  0
  6 11  1  0  0  0  0
 11 12  2  0  0  0  0
 12 13  1  0  0  0  0
 13 14  2  0  0  0  0
 14 15  1  0  0  0  0
 14 16  1  0  0  0  0
 16 17  1  0  0  0  0
 16 18  2  0  0  0  0
 18 19  1  0  0  0  0
 19 20  2  0  0  0  0
 20 21  1  0  0  0  0
 19 22  1  0  0  0  0
 18 23  1  0  0  0  0
 23 24  2  0  0  0  0
 24 25  1  0  0  0  0
 25 26  2  0  0  0  0
 26 27  1  0  0  0  0
 27 28  1  0  0  0  0
 28 29  1  0  0  0  0
 27 30  2  0  0  0  0
 30 31  1  0  0  0  0
 30 32  1  0  0  0  0
 32 33  2  0  0  0  0
 33 34  1  0  0  0  0
 34 35  1  0  0  0  0
 35 36  1  0  0  0  0
 34 37  2  0  0  0  0
 37 38  1  0  0  0  0
 37 39  1  0  0  0  0
 39 40  2  0  0  0  0
 40 41  1  0  0  0  0
 40 42  1  0  0  0  0
 42 43  1  0  0  0  0
 42 44  2  0  0  0  0
 44 45  1  0  0  0  0
 45 46  2  0  0  0  0
 46 47  1  0  0  0  0
 45 48  1  0  0  0  0
 44 49  1  0  0  0  0
 49 50  2  0  0  0  0
 50 51  1  0  0  0  0
 51 52  2  0  0  0  0
 52 53  1  0  0  0  0
 52 54  1  0  0  0  0
 54 55  1  0  0  0  0
 54 56  2  0  0  0  0
 56 57  1  0  0  0  0
 57 58  2  0  0  0  0
 58 59  1  0  0  0  0
 57 60  1  0  0  0  0
 56 61  1  0  0  0  0
 61 62  2  0  0  0  0
  8  1  1  0  0  0  0
 20 13  1  0  0  0  0
 31 25  1  0  0  0  0
 38 32  1  0  0  0  0
 46 39  1  0  0  0  0
 58 51  1  0  0  0  0
  1 63  1  0  0  0  0
 11 64  1  0  0  0  0
 12 65  1  0  0  0  0
 23 66  1  0  0  0  0
 24 67  1  0  0  0  0
 26 68  1  0  0  0  0
 28 69  1  0  0  0  0
 28 70  1  0  0  0  0
 29 71  1  0  0  0  0
 29 72  1  0  0  0  0
 29 73  1  0  0  0  0
 33 74  1  0  0  0  0
 35 75  1  0  0  0  0
 35 76  1  0  0  0  0
 36 77  1  0  0  0  0
 36 78  1  0  0  0  0
 36 79  1  0  0  0  0
 49 80  1  0  0  0  0
 50 81  1  0  0  0  0
 61 82  1  0  0  0  0
 62 83  1  0  0  0  0
 62 84  1  0  0  0  0
M  END
