115

C         14.58730        4.00550       -9.28770
S         12.90770        4.18410       -8.88930
C         12.93250        2.65400       -8.09070
C         12.11380        1.77090       -7.37880
C         12.91650        0.66740       -7.03320
N         14.18440        0.84380       -7.52610
C         15.31890       -0.00430       -7.27690
C         16.02740        0.37330       -5.97640
C         14.20560        2.06240       -8.15490
C         15.14900        2.84880       -8.84530
C         12.23610       -0.31370       -6.30070
C         10.92100        0.03570       -6.08370
S         10.50310        1.59070       -6.79260
C          9.93120       -0.69570       -5.36800
S          8.33750        0.01060       -5.13400
C          7.83910       -1.37980       -4.24650
C          6.74330       -1.90450       -3.56050
C          7.13610       -3.16560       -3.06880
N          8.43980       -3.41150       -3.42040
C          9.17010       -4.62850       -3.18890
C          8.95430       -5.63850       -4.31530
C          8.87160       -2.33410       -4.15290
C         10.05440       -1.94150       -4.78960
C          6.13680       -3.81580       -2.33590
C          4.98720       -3.05710       -2.26000
S          5.12490       -1.52300       -3.11070
C          3.77810       -3.35820       -1.57370
S          2.50360       -2.14650       -1.52760
C          1.53530       -3.18730       -0.55560
C          0.30710       -3.23430        0.10190
C          0.23400       -4.48780        0.74230
N          1.38740       -5.19320        0.50410
C          1.64820       -6.55110        0.90010
C          1.11520       -7.54940       -0.12690
C          2.18190       -4.41320       -0.29890
C          3.45240       -4.50480       -0.87890
C         -0.94640       -4.67610        1.47220
C         -1.77130       -3.57430        1.39600
S         -1.09930       -2.28640        0.40310
C         -3.03120       -3.34800        2.01780
C         -3.73960       -4.18940        2.84600
C         -4.94970       -3.68980        3.36360
C         -5.81670       -4.45870        4.32010
C         -5.11440       -5.62620        5.00550
C         -5.25650       -2.40480        2.94560
Se        -3.92850       -1.71540        1.79710
C         -6.36600       -1.56460        3.26090
S         -6.15450        0.15810        2.93880
C         -7.76130        0.47640        3.47180
C         -8.67470        1.51590        3.64020
C         -9.85420        0.94200        4.15460
N         -9.67510       -0.40770        4.31970
C        -10.68230       -1.35150        4.72560
C        -11.48650       -1.86460        3.53210
C         -8.40720       -0.70460        3.88670
C         -7.61590       -1.85570        3.76160
C        -10.88000        1.87080        4.36780
C        -10.49300        3.14430        4.01830
S         -8.83650        3.21810        3.42020
C        -11.25860        4.33920        4.08080
S        -12.90380        4.29990        4.71240
C        -13.05640        5.99830        4.44510
C        -13.95860        7.05720        4.58680
C        -13.30540        8.20970        4.11520
N        -12.04820        7.88480        3.67720
C        -11.03960        8.79680        3.20650
C        -10.16560        9.30960        4.35000
C        -11.88190        6.54190        3.89180
C        -10.86720        5.59800        3.68940
C        -14.09950        9.37070        4.19810
C        -15.32190        9.08850        4.72190
S        -15.55700        7.41770        5.13070
H         15.06360        4.79210       -9.83830
H         14.96880       -1.03920       -7.22710
H         16.00850        0.08830       -8.12060
H         16.87660       -0.28310       -5.80670
H         15.34150        0.28590       -5.13690
H         16.38150        1.40030       -6.02640
H         16.17870        2.58550       -9.00710
H         12.67170       -1.22630       -5.93780
H         10.23190       -4.37990       -3.10630
H          8.83830       -5.05150       -2.23650
H          9.51750       -6.54680       -4.11860
H          7.89940       -5.88930       -4.39720
H          9.28320       -5.21890       -5.26300
H         10.95480       -2.52580       -4.83520
H          6.23650       -4.78100       -1.87470
H          2.72860       -6.67240        1.01640
H          1.17360       -6.72200        1.87050
H          1.58750       -7.38290       -1.09220
H          0.04070       -7.42930       -0.24360
H          1.32210       -8.56640        0.19520
H          4.10750       -5.35310       -0.80330
H         -1.19310       -5.55870        2.03330
H         -3.37250       -5.17090        3.08810
H         -6.69000       -4.83960        3.77990
H         -6.17880       -3.76520        5.08420
H         -4.20240       -5.29070        5.49380
H         -5.76960       -6.05570        5.76050
H         -4.86570       -6.40840        4.29250
H        -10.18700       -2.18490        5.23180
H        -11.34610       -0.85620        5.43950
H        -11.98870       -1.03800        3.03520
H        -12.23360       -2.58060        3.86360
H        -10.82770       -2.34950        2.81540
H         -7.95640       -2.84900        3.98230
H        -11.86060        1.64980        4.74920
H        -10.42250        8.27400        2.47020
H        -11.53940        9.63310        2.71020
H        -10.77350        9.83570        5.08250
H         -9.41000        9.99000        3.96690
H         -9.66990        8.47790        4.84500
H         -9.89330        5.80010        3.28160
H        -13.79340       10.35550        3.89460
H        -16.12750        9.77170        4.90290
