101

C         12.30660        8.32430       -0.72130
C         12.19780        8.42540        0.62500
C         11.00940        7.90240        1.19870
C         10.81880        7.93150        2.68380
C         11.30950        6.63050        3.32250
C         10.13460        7.35700        0.28550
Se        10.82960        7.50340       -1.47440
C          8.86000        6.73240        0.45580
S          8.11240        6.48640        2.03390
C          6.75860        5.71080        1.30000
C          5.55010        5.08450        1.60950
C          4.98920        4.66450        0.38560
N          5.80320        5.03960       -0.65110
C          5.61810        4.71420       -2.04070
C          6.26450        3.37670       -2.39720
C          6.89430        5.65990       -0.10150
C          8.07910        6.23730       -0.56580
C          3.77850        3.98260        0.53390
C          3.40330        3.88260        1.85490
S          4.55310        4.64670        2.94940
C          2.25770        3.21390        2.36230
C          1.81830        3.15010        3.66060
C          0.66770        2.37270        3.90570
C          0.11600        2.26070        5.29450
C          0.84760        1.17490        6.08680
C          0.14230        1.75780        2.78690
Se         1.13520        2.20150        1.24090
C         -0.95210        0.85340        2.63200
C         -1.57930        0.04110        3.54250
C         -2.57350       -0.83130        3.04690
C         -3.27130       -1.77610        3.97700
C         -2.43840       -3.03990        4.19910
C         -2.78940       -0.75110        1.68750
Se        -1.67230        0.57180        0.91430
C         -3.62480       -1.50850        0.81480
S         -4.27480       -3.09040        1.24530
C         -4.90680       -3.28790       -0.34760
C         -5.57320       -4.20730       -1.15900
C         -5.70280       -3.60790       -2.42820
N         -5.16200       -2.34880       -2.40300
C         -5.00440       -1.46840       -3.53050
C         -3.71200       -1.75640       -4.29260
C         -4.64740       -2.15670       -1.14790
C         -3.92000       -1.16410       -0.48700
C         -6.30840       -4.43480       -3.38050
C         -6.63600       -5.66280       -2.85380
S         -6.21770       -5.80870       -1.14720
C         -7.20790       -6.77000       -3.53550
S         -7.62260       -6.61890       -5.24270
C         -8.14640       -8.26250       -5.26990
C         -8.67240       -9.23340       -6.12760
C         -8.82740      -10.40380       -5.36420
N         -8.39960      -10.18210       -4.08120
C         -8.48240      -11.10500       -2.98060
C         -9.83060      -11.01100       -2.26800
C         -7.99920       -8.87340       -4.01040
C         -7.46960       -8.02230       -3.03170
C         -9.35200      -11.48270       -6.10340
C         -9.58370      -11.12230       -7.39350
S         -9.17780       -9.47480       -7.76060
H         13.12420        8.66200       -1.33160
H         12.96310        8.87710        1.23500
H          9.76860        8.08800        2.93370
H         11.38930        8.76820        3.09300
H         10.74930        5.78230        2.93730
H         12.36360        6.47590        3.10190
H         11.17990        6.66850        4.40100
H          6.05750        5.51560       -2.64140
H          4.54390        4.67770       -2.24170
H          5.83110        2.57830       -1.79920
H          7.33420        3.41230       -2.20440
H          6.10500        3.15340       -3.44850
H          8.37740        6.29580       -1.60050
H          3.18470        3.56400       -0.26300
H          2.32960        3.67560        4.45130
H         -0.95320        2.04790        5.25780
H          0.25040        3.21900        5.80180
H          0.77160        0.21310        5.58390
H          0.42520        1.08280        7.08500
H          1.90240        1.42380        6.17790
H         -1.30990        0.01760        4.58370
H         -3.42450       -1.27490        4.93600
H         -4.24880       -2.04970        3.57840
H         -1.46480       -2.78500        4.61240
H         -2.28710       -3.56340        3.25860
H         -2.94630       -3.70900        4.88910
H         -5.00160       -0.43910       -3.16150
H         -5.86690       -1.60010       -4.18960
H         -3.71210       -2.78050       -4.65830
H         -2.85270       -1.62140       -3.63980
H         -3.61910       -1.08160       -5.13900
H         -3.59970       -0.22880       -0.91890
H         -6.49300       -4.17890       -4.40820
H         -7.67260      -10.87670       -2.28220
H         -8.33180      -12.11620       -3.36890
H        -10.63830      -11.24230       -2.95850
H         -9.98190      -10.00510       -1.88340
H         -9.86540      -11.71240       -1.43890
H         -7.27500       -8.28580       -2.00770
H         -9.54980      -12.46480       -5.71340
H         -9.97980      -11.73280       -8.18030
