
  xtb     02282220493D
 energy: -130.833025551686 gnorm: 0.000517622032 xtb: 6.4.1 (unknown)
 87 94  0     0  0            999 V2000
    1.0112   -6.6798   -9.6954 C   0  0  0  0  0  0  0  0  0  0  0  0
    1.7163   -5.6760   -9.1196 C   0  0  0  0  0  0  0  0  0  0  0  0
    1.1983   -5.1731   -7.8985 C   0  0  0  0  0  0  0  0  0  0  0  0
    1.9128   -4.0853   -7.1608 C   0  0  0  0  0  0  0  0  0  0  0  0
    2.8868   -4.6655   -6.1345 C   0  0  0  0  0  0  0  0  0  0  0  0
    0.0403   -5.7882   -7.4752 C   0  0  0  0  0  0  0  0  0  0  0  0
   -0.4834   -7.1345   -8.7053 Se  0  0  0  0  0  2  0  0  0  0  0  0
   -0.7731   -5.5664   -6.3197 C   0  0  0  0  0  0  0  0  0  0  0  0
   -1.9841   -6.1755   -6.0879 C   0  0  0  0  0  0  0  0  0  0  0  0
   -2.6630   -5.8598   -4.8965 C   0  0  0  0  0  0  0  0  0  0  0  0
   -3.9995   -6.4696   -4.6022 C   0  0  0  0  0  0  0  0  0  0  0  0
   -3.8418   -7.8440   -3.9482 C   0  0  0  0  0  0  0  0  0  0  0  0
   -1.9929   -4.9691   -4.0835 C   0  0  0  0  0  0  0  0  0  0  0  0
   -0.3678   -4.4341   -4.8663 Se  0  0  0  0  0  2  0  0  0  0  0  0
   -2.3555   -4.3966   -2.8253 C   0  0  0  0  0  0  0  0  0  0  0  0
   -3.2232   -4.8466   -1.8617 C   0  0  0  0  0  0  0  0  0  0  0  0
   -3.3613   -4.0480   -0.7054 C   0  0  0  0  0  0  0  0  0  0  0  0
   -4.2694   -4.4820    0.4051 C   0  0  0  0  0  0  0  0  0  0  0  0
   -5.7180   -4.0810    0.1180 C   0  0  0  0  0  0  0  0  0  0  0  0
   -2.5946   -2.9017   -0.7004 C   0  0  0  0  0  0  0  0  0  0  0  0
   -1.5649   -2.7738   -2.2772 Se  0  0  0  0  0  2  0  0  0  0  0  0
   -2.4619   -1.8769    0.2886 C   0  0  0  0  0  0  0  0  0  0  0  0
   -3.3458   -1.4569    1.2512 C   0  0  0  0  0  0  0  0  0  0  0  0
   -2.9286   -0.3913    2.0774 C   0  0  0  0  0  0  0  0  0  0  0  0
   -3.8411    0.1387    3.1416 C   0  0  0  0  0  0  0  0  0  0  0  0
   -3.6935   -0.6608    4.4383 C   0  0  0  0  0  0  0  0  0  0  0  0
   -1.6649    0.0906    1.8009 C   0  0  0  0  0  0  0  0  0  0  0  0
   -0.8846   -0.8498    0.3604 Se  0  0  0  0  0  2  0  0  0  0  0  0
   -0.9198    1.1518    2.4001 C   0  0  0  0  0  0  0  0  0  0  0  0
    0.4005    1.8271    1.4433 S   0  0  0  0  0  0  0  0  0  0  0  0
    0.7972    2.9145    2.7200 C   0  0  0  0  0  0  0  0  0  0  0  0
    1.6959    3.9251    3.0633 C   0  0  0  0  0  0  0  0  0  0  0  0
    1.3518    4.3499    4.3618 C   0  0  0  0  0  0  0  0  0  0  0  0
    0.2654    3.6416    4.8069 N   0  0  0  0  0  0  0  0  0  0  0  0
   -0.3201    3.7228    6.1187 C   0  0  0  0  0  0  0  0  0  0  0  0
    0.3885    2.8013    7.1103 C   0  0  0  0  0  0  0  0  0  0  0  0
   -0.0681    2.7505    3.8188 C   0  0  0  0  0  0  0  0  0  0  0  0
   -1.0321    1.7487    3.6352 C   0  0  0  0  0  0  0  0  0  0  0  0
    2.1784    5.3690    4.8501 C   0  0  0  0  0  0  0  0  0  0  0  0
    3.1462    5.7233    3.9403 C   0  0  0  0  0  0  0  0  0  0  0  0
    3.0504    4.7955    2.4454 S   0  0  0  0  0  0  0  0  0  0  0  0
    4.1636    6.7096    4.0893 C   0  0  0  0  0  0  0  0  0  0  0  0
    5.1373    7.0374    3.1842 C   0  0  0  0  0  0  0  0  0  0  0  0
    6.0310    8.0609    3.5819 C   0  0  0  0  0  0  0  0  0  0  0  0
    7.1741    8.5031    2.7214 C   0  0  0  0  0  0  0  0  0  0  0  0
    8.3106    7.4804    2.7643 C   0  0  0  0  0  0  0  0  0  0  0  0
    5.7782    8.5644    4.8206 C   0  0  0  0  0  0  0  0  0  0  0  0
    4.3206    7.7637    5.6451 Se  0  0  0  0  0  2  0  0  0  0  0  0
    1.2410   -7.1852  -10.6155 H   0  0  0  0  0  0  0  0  0  0  0  0
    2.6172   -5.2759   -9.5554 H   0  0  0  0  0  0  0  0  0  0  0  0
    1.1914   -3.4342   -6.6518 H   0  0  0  0  0  0  0  0  0  0  0  0
    2.4652   -3.4740   -7.8777 H   0  0  0  0  0  0  0  0  0  0  0  0
    3.6210   -5.2995   -6.6267 H   0  0  0  0  0  0  0  0  0  0  0  0
    3.4061   -3.8660   -5.6122 H   0  0  0  0  0  0  0  0  0  0  0  0
    2.3500   -5.2674   -5.4010 H   0  0  0  0  0  0  0  0  0  0  0  0
   -2.4073   -6.8625   -6.8094 H   0  0  0  0  0  0  0  0  0  0  0  0
   -4.5779   -5.8073   -3.9565 H   0  0  0  0  0  0  0  0  0  0  0  0
   -4.5459   -6.5859   -5.5412 H   0  0  0  0  0  0  0  0  0  0  0  0
   -3.2648   -7.7699   -3.0287 H   0  0  0  0  0  0  0  0  0  0  0  0
   -3.3179   -8.5207   -4.6195 H   0  0  0  0  0  0  0  0  0  0  0  0
   -4.8160   -8.2695   -3.7175 H   0  0  0  0  0  0  0  0  0  0  0  0
   -3.7439   -5.7848   -1.9402 H   0  0  0  0  0  0  0  0  0  0  0  0
   -3.9380   -4.0471    1.3489 H   0  0  0  0  0  0  0  0  0  0  0  0
   -4.2159   -5.5696    0.4982 H   0  0  0  0  0  0  0  0  0  0  0  0
   -6.0696   -4.5643   -0.7908 H   0  0  0  0  0  0  0  0  0  0  0  0
   -5.7992   -3.0052   -0.0218 H   0  0  0  0  0  0  0  0  0  0  0  0
   -6.3650   -4.3776    0.9406 H   0  0  0  0  0  0  0  0  0  0  0  0
   -4.3337   -1.8712    1.3526 H   0  0  0  0  0  0  0  0  0  0  0  0
   -3.6307    1.1938    3.3218 H   0  0  0  0  0  0  0  0  0  0  0  0
   -4.8733    0.0579    2.7928 H   0  0  0  0  0  0  0  0  0  0  0  0
   -3.9706   -1.6993    4.2720 H   0  0  0  0  0  0  0  0  0  0  0  0
   -2.6634   -0.6409    4.7875 H   0  0  0  0  0  0  0  0  0  0  0  0
   -4.3362   -0.2511    5.2147 H   0  0  0  0  0  0  0  0  0  0  0  0
   -0.2550    4.7601    6.4591 H   0  0  0  0  0  0  0  0  0  0  0  0
   -1.3759    3.4494    6.0395 H   0  0  0  0  0  0  0  0  0  0  0  0
    0.3270    1.7687    6.7748 H   0  0  0  0  0  0  0  0  0  0  0  0
   -0.0734    2.8804    8.0907 H   0  0  0  0  0  0  0  0  0  0  0  0
    1.4376    3.0753    7.1937 H   0  0  0  0  0  0  0  0  0  0  0  0
   -1.7429    1.4547    4.3831 H   0  0  0  0  0  0  0  0  0  0  0  0
    2.0978    5.8382    5.8169 H   0  0  0  0  0  0  0  0  0  0  0  0
    5.2093    6.5447    2.2285 H   0  0  0  0  0  0  0  0  0  0  0  0
    6.8277    8.6149    1.6915 H   0  0  0  0  0  0  0  0  0  0  0  0
    7.5416    9.4711    3.0666 H   0  0  0  0  0  0  0  0  0  0  0  0
    9.1332    7.8016    2.1297 H   0  0  0  0  0  0  0  0  0  0  0  0
    7.9626    6.5101    2.4180 H   0  0  0  0  0  0  0  0  0  0  0  0
    8.6790    7.3687    3.7817 H   0  0  0  0  0  0  0  0  0  0  0  0
    6.3275    9.3432    5.3184 H   0  0  0  0  0  0  0  0  0  0  0  0
  1  2  2  0  0  0  0
  2  3  1  0  0  0  0
  3  4  1  0  0  0  0
  4  5  1  0  0  0  0
  3  6  2  0  0  0  0
  6  7  1  0  0  0  0
  6  8  1  0  0  0  0
  8  9  2  0  0  0  0
  9 10  1  0  0  0  0
 10 11  1  0  0  0  0
 11 12  1  0  0  0  0
 10 13  2  0  0  0  0
 13 14  1  0  0  0  0
 13 15  1  0  0  0  0
 15 16  2  0  0  0  0
 16 17  1  0  0  0  0
 17 18  1  0  0  0  0
 18 19  1  0  0  0  0
 17 20  2  0  0  0  0
 20 21  1  0  0  0  0
 20 22  1  0  0  0  0
 22 23  2  0  0  0  0
 23 24  1  0  0  0  0
 24 25  1  0  0  0  0
 25 26  1  0  0  0  0
 24 27  2  0  0  0  0
 27 28  1  0  0  0  0
 27 29  1  0  0  0  0
 29 30  1  0  0  0  0
 30 31  1  0  0  0  0
 31 32  1  0  0  0  0
 32 33  2  0  0  0  0
 33 34  1  0  0  0  0
 34 35  1  0  0  0  0
 35 36  1  0  0  0  0
 34 37  1  0  0  0  0
 37 38  1  0  0  0  0
 33 39  1  0  0  0  0
 39 40  2  0  0  0  0
 40 41  1  0  0  0  0
 40 42  1  0  0  0  0
 42 43  2  0  0  0  0
 43 44  1  0  0  0  0
 44 45  1  0  0  0  0
 45 46  1  0  0  0  0
 44 47  2  0  0  0  0
 47 48  1  0  0  0  0
  7  1  1  0  0  0  0
 14  8  1  0  0  0  0
 21 15  1  0  0  0  0
 28 22  1  0  0  0  0
 38 29  2  0  0  0  0
 48 42  1  0  0  0  0
 37 31  2  0  0  0  0
 41 32  1  0  0  0  0
  1 49  1  0  0  0  0
  2 50  1  0  0  0  0
  4 51  1  0  0  0  0
  4 52  1  0  0  0  0
  5 53  1  0  0  0  0
  5 54  1  0  0  0  0
  5 55  1  0  0  0  0
  9 56  1  0  0  0  0
 11 57  1  0  0  0  0
 11 58  1  0  0  0  0
 12 59  1  0  0  0  0
 12 60  1  0  0  0  0
 12 61  1  0  0  0  0
 16 62  1  0  0  0  0
 18 63  1  0  0  0  0
 18 64  1  0  0  0  0
 19 65  1  0  0  0  0
 19 66  1  0  0  0  0
 19 67  1  0  0  0  0
 23 68  1  0  0  0  0
 25 69  1  0  0  0  0
 25 70  1  0  0  0  0
 26 71  1  0  0  0  0
 26 72  1  0  0  0  0
 26 73  1  0  0  0  0
 35 74  1  0  0  0  0
 35 75  1  0  0  0  0
 36 76  1  0  0  0  0
 36 77  1  0  0  0  0
 36 78  1  0  0  0  0
 38 79  1  0  0  0  0
 39 80  1  0  0  0  0
 43 81  1  0  0  0  0
 45 82  1  0  0  0  0
 45 83  1  0  0  0  0
 46 84  1  0  0  0  0
 46 85  1  0  0  0  0
 46 86  1  0  0  0  0
 47 87  1  0  0  0  0
M  END
