101

C         12.19030       10.98430       -2.58460
S         12.61980        9.52140       -1.75470
C         10.98370        8.98030       -1.85790
C         10.15480        7.90890       -1.51130
C          8.86350        8.23390       -1.96760
N          8.87910        9.46950       -2.56040
C          7.77460       10.09850       -3.23480
C          7.68900        9.66620       -4.69790
C         10.17170        9.92260       -2.51330
C         10.87720       11.07040       -2.92640
C          7.90670        7.24750       -1.69500
C          8.45740        6.17480       -1.03410
S         10.18450        6.36820       -0.73570
C          7.79810        4.99660       -0.59220
S          6.07160        4.79910       -0.88770
C          6.10330        3.26440       -0.09880
C          5.27620        2.19910        0.25860
C          6.09030        1.26160        0.92740
N          7.37580        1.73320        0.99880
C          8.52100        1.02160        1.50100
C          9.20730        0.21450        0.40000
C          7.39700        2.94580        0.36050
C          8.35120        3.92930        0.07720
C          5.39880        0.12470        1.36010
C          4.06330        0.18300        1.02610
S          3.64070        1.65830        0.16520
C          3.04670       -0.77490        1.30160
C          3.16750       -1.93310        2.03340
C          2.00550       -2.71610        2.17050
C          2.04070       -4.00590        2.93360
C          1.91410       -3.75990        4.43870
C          0.89020       -2.19830        1.54160
Se         1.29120       -0.57490        0.66280
C         -0.43800       -2.72020        1.46450
S         -1.40400       -2.28870        0.05260
C         -2.73610       -3.20050        0.66160
C         -4.04790       -3.57090        0.35930
C         -4.49730       -4.37740        1.42460
N         -3.49470       -4.52330        2.34890
C         -3.60250       -5.17490        3.62680
C         -4.11040       -4.21760        4.70410
C         -2.42310       -3.79570        1.89890
C         -1.12500       -3.51940        2.34890
C         -5.80950       -4.83760        1.26770
C         -6.36650       -4.39240        0.08900
S         -5.26740       -3.38690       -0.84670
C         -7.66820       -4.66420       -0.42170
C         -8.67050       -5.38210        0.18550
C         -9.87150       -5.52670       -0.53870
C        -11.03150       -6.26770        0.05550
C        -10.84680       -7.78090       -0.07750
C         -9.86730       -4.92360       -1.77900
Se        -8.22260       -4.05780       -2.11090
C        -10.90550       -4.87100       -2.76870
C        -11.88020       -5.79070       -3.05030
C        -12.76720       -5.45140       -4.10290
C        -13.90470       -6.34020       -4.50440
C        -15.05920       -6.23050       -3.50680
C        -12.50660       -4.24780       -4.68290
Se       -11.05100       -3.38440       -3.92210
H         12.96160       11.70470       -2.77120
H          6.85460        9.82690       -2.70990
H          7.90520       11.18220       -3.16960
H          8.60370        9.93180       -5.22300
H          6.84990       10.15610       -5.18430
H          7.55270        8.58930       -4.76370
H         10.44970       11.90910       -3.44550
H          6.86500        7.29240       -1.95710
H          9.21990        1.74950        1.92270
H          8.18510        0.35750        2.30190
H         10.06880       -0.31140        0.80230
H          8.51600       -0.51240       -0.02010
H          9.54040        0.87530       -0.39680
H          9.39370        3.88720        0.33650
H          5.83980       -0.70390        1.88270
H          4.10170       -2.23480        2.47700
H          2.99280       -4.50470        2.73680
H          1.24000       -4.66230        2.59020
H          0.99650       -3.22130        4.66540
H          2.74900       -3.15990        4.79300
H          1.91050       -4.70340        4.98030
H         -4.28670       -6.02150        3.52320
H         -2.61540       -5.55840        3.90010
H         -3.43030       -3.37540        4.80900
H         -5.09210       -3.83560        4.43400
H         -4.18360       -4.73110        5.65900
H         -0.72800       -3.84860        3.28990
H         -6.33160       -5.46390        1.96720
H         -8.55700       -5.80280        1.17100
H        -11.95810       -5.95780       -0.42950
H        -11.10380       -6.01280        1.11610
H        -11.70300       -8.30700        0.33940
H        -10.73560       -8.06540       -1.12180
H         -9.95210       -8.09980        0.45250
H        -11.95080       -6.73830       -2.54580
H        -13.55840       -7.37600       -4.54400
H        -14.25550       -6.05910       -5.49900
H        -14.73080       -6.51690       -2.51010
H        -15.87920       -6.88120       -3.80200
H        -15.42480       -5.20670       -3.46550
H        -13.05320       -3.80180       -5.49470
