
  xtb     03012200123D
 energy: -161.535125263062 gnorm: 0.000280146727 xtb: 6.4.1 (unknown)
101112  0     0  0            999 V2000
   13.0931    5.8828    2.9029 C   0  0  0  0  0  0  0  0  0  0  0  0
   12.1422    7.1104    2.1275 S   0  0  0  0  0  0  0  0  0  0  0  0
   10.8569    5.9789    1.9084 C   0  0  0  0  0  0  0  0  0  0  0  0
    9.5654    5.8683    1.3844 C   0  0  0  0  0  0  0  0  0  0  0  0
    9.1542    4.5390    1.6025 C   0  0  0  0  0  0  0  0  0  0  0  0
   10.1432    3.8495    2.2541 N   0  0  0  0  0  0  0  0  0  0  0  0
   10.1341    2.4449    2.5664 C   0  0  0  0  0  0  0  0  0  0  0  0
   10.6585    1.6060    1.4021 C   0  0  0  0  0  0  0  0  0  0  0  0
   11.1907    4.7159    2.4283 C   0  0  0  0  0  0  0  0  0  0  0  0
   12.4790    4.6736    2.9976 C   0  0  0  0  0  0  0  0  0  0  0  0
    7.8636    4.2705    1.1305 C   0  0  0  0  0  0  0  0  0  0  0  0
    7.2865    5.3803    0.5586 C   0  0  0  0  0  0  0  0  0  0  0  0
    8.3426    6.7911    0.5915 S   0  0  0  0  0  0  0  0  0  0  0  0
    5.9883    5.4806   -0.0115 C   0  0  0  0  0  0  0  0  0  0  0  0
    5.4014    6.5993   -0.5460 C   0  0  0  0  0  0  0  0  0  0  0  0
    4.0882    6.4575   -1.0372 C   0  0  0  0  0  0  0  0  0  0  0  0
    3.3731    7.6421   -1.6121 C   0  0  0  0  0  0  0  0  0  0  0  0
    3.7156    7.8200   -3.0930 C   0  0  0  0  0  0  0  0  0  0  0  0
    3.5681    5.1833   -0.9247 C   0  0  0  0  0  0  0  0  0  0  0  0
    4.8103    4.0140   -0.1082 Se  0  0  0  0  0  2  0  0  0  0  0  0
    2.2817    4.6738   -1.2819 C   0  0  0  0  0  0  0  0  0  0  0  0
    1.3619    5.1574   -2.1813 C   0  0  0  0  0  0  0  0  0  0  0  0
    0.1499    4.4476   -2.3031 C   0  0  0  0  0  0  0  0  0  0  0  0
   -0.8762    4.8685   -3.3153 C   0  0  0  0  0  0  0  0  0  0  0  0
   -1.0226    3.8377   -4.4347 C   0  0  0  0  0  0  0  0  0  0  0  0
    0.0578    3.3308   -1.4961 C   0  0  0  0  0  0  0  0  0  0  0  0
    1.6254    3.1071   -0.4670 Se  0  0  0  0  0  2  0  0  0  0  0  0
   -1.0039    2.3852   -1.3464 C   0  0  0  0  0  0  0  0  0  0  0  0
   -0.5767    0.7497   -0.8401 S   0  0  0  0  0  0  0  0  0  0  0  0
   -2.2398    0.2903   -0.8540 C   0  0  0  0  0  0  0  0  0  0  0  0
   -3.0845   -0.7969   -0.6238 C   0  0  0  0  0  0  0  0  0  0  0  0
   -4.3999   -0.3449   -0.8556 C   0  0  0  0  0  0  0  0  0  0  0  0
   -4.3750    0.9700   -1.2435 N   0  0  0  0  0  0  0  0  0  0  0  0
   -5.5183    1.8160   -1.4597 C   0  0  0  0  0  0  0  0  0  0  0  0
   -5.9732    2.4874   -0.1646 C   0  0  0  0  0  0  0  0  0  0  0  0
   -3.0634    1.3692   -1.2305 C   0  0  0  0  0  0  0  0  0  0  0  0
   -2.3598    2.5477   -1.5099 C   0  0  0  0  0  0  0  0  0  0  0  0
   -5.3758   -1.3286   -0.6629 C   0  0  0  0  0  0  0  0  0  0  0  0
   -4.8174   -2.5330   -0.2936 C   0  0  0  0  0  0  0  0  0  0  0  0
   -3.0634   -2.4611   -0.1712 S   0  0  0  0  0  0  0  0  0  0  0  0
   -5.4853   -3.7606   -0.0305 C   0  0  0  0  0  0  0  0  0  0  0  0
   -6.8389   -3.9791    0.0483 C   0  0  0  0  0  0  0  0  0  0  0  0
   -7.2590   -5.2992    0.3043 C   0  0  0  0  0  0  0  0  0  0  0  0
   -8.7214   -5.6178    0.3724 C   0  0  0  0  0  0  0  0  0  0  0  0
   -9.2507   -6.0510   -0.9959 C   0  0  0  0  0  0  0  0  0  0  0  0
   -6.2318   -6.2145    0.4340 C   0  0  0  0  0  0  0  0  0  0  0  0
   -4.5469   -5.3624    0.2401 Se  0  0  0  0  0  2  0  0  0  0  0  0
   -6.2473   -7.6204    0.6713 C   0  0  0  0  0  0  0  0  0  0  0  0
   -7.7326   -8.5624    0.8077 S   0  0  0  0  0  0  0  0  0  0  0  0
   -6.8239  -10.0099    1.0303 C   0  0  0  0  0  0  0  0  0  0  0  0
   -6.9768  -11.3852    1.2327 C   0  0  0  0  0  0  0  0  0  0  0  0
   -5.6821  -11.9264    1.3169 C   0  0  0  0  0  0  0  0  0  0  0  0
   -4.7511  -10.9271    1.1952 N   0  0  0  0  0  0  0  0  0  0  0  0
   -3.3240  -11.0913    1.1141 C   0  0  0  0  0  0  0  0  0  0  0  0
   -2.8637  -11.2998   -0.3279 C   0  0  0  0  0  0  0  0  0  0  0  0
   -5.4397   -9.7578    1.0021 C   0  0  0  0  0  0  0  0  0  0  0  0
   -5.1247   -8.4108    0.7983 C   0  0  0  0  0  0  0  0  0  0  0  0
   -5.6764  -13.3214    1.5145 C   0  0  0  0  0  0  0  0  0  0  0  0
   -6.9437  -13.8099    1.5771 C   0  0  0  0  0  0  0  0  0  0  0  0
   -8.1836  -12.6081    1.4008 S   0  0  0  0  0  0  0  0  0  0  0  0
   14.0737    6.1448    3.2471 H   0  0  0  0  0  0  0  0  0  0  0  0
   10.7549    2.2876    3.4527 H   0  0  0  0  0  0  0  0  0  0  0  0
    9.1074    2.1541    2.8051 H   0  0  0  0  0  0  0  0  0  0  0  0
   11.6815    1.8888    1.1647 H   0  0  0  0  0  0  0  0  0  0  0  0
   10.6371    0.5512    1.6619 H   0  0  0  0  0  0  0  0  0  0  0  0
   10.0427    1.7624    0.5195 H   0  0  0  0  0  0  0  0  0  0  0  0
   12.9308    3.8088    3.4486 H   0  0  0  0  0  0  0  0  0  0  0  0
    7.3498    3.3245    1.1905 H   0  0  0  0  0  0  0  0  0  0  0  0
    5.9191    7.5448   -0.5713 H   0  0  0  0  0  0  0  0  0  0  0  0
    3.6870    8.5361   -1.0683 H   0  0  0  0  0  0  0  0  0  0  0  0
    2.2959    7.5309   -1.4814 H   0  0  0  0  0  0  0  0  0  0  0  0
    3.4657    6.9243   -3.6578 H   0  0  0  0  0  0  0  0  0  0  0  0
    3.1694    8.6625   -3.5116 H   0  0  0  0  0  0  0  0  0  0  0  0
    4.7809    8.0042   -3.2109 H   0  0  0  0  0  0  0  0  0  0  0  0
    1.5562    6.0116   -2.8051 H   0  0  0  0  0  0  0  0  0  0  0  0
   -1.8421    5.0294   -2.8330 H   0  0  0  0  0  0  0  0  0  0  0  0
   -0.5666    5.8225   -3.7470 H   0  0  0  0  0  0  0  0  0  0  0  0
   -0.0687    3.6930   -4.9365 H   0  0  0  0  0  0  0  0  0  0  0  0
   -1.7520    4.1762   -5.1672 H   0  0  0  0  0  0  0  0  0  0  0  0
   -1.3481    2.8807   -4.0355 H   0  0  0  0  0  0  0  0  0  0  0  0
   -6.3254    1.2022   -1.8686 H   0  0  0  0  0  0  0  0  0  0  0  0
   -5.2491    2.5735   -2.2013 H   0  0  0  0  0  0  0  0  0  0  0  0
   -5.1717    3.0990    0.2432 H   0  0  0  0  0  0  0  0  0  0  0  0
   -6.8365    3.1198   -0.3527 H   0  0  0  0  0  0  0  0  0  0  0  0
   -6.2424    1.7355    0.5735 H   0  0  0  0  0  0  0  0  0  0  0  0
   -2.8196    3.4788   -1.7812 H   0  0  0  0  0  0  0  0  0  0  0  0
   -6.4325   -1.1848   -0.7928 H   0  0  0  0  0  0  0  0  0  0  0  0
   -7.5523   -3.1804   -0.0700 H   0  0  0  0  0  0  0  0  0  0  0  0
   -8.9086   -6.4052    1.1034 H   0  0  0  0  0  0  0  0  0  0  0  0
   -9.2588   -4.7240    0.6975 H   0  0  0  0  0  0  0  0  0  0  0  0
  -10.3148   -6.2654   -0.9373 H   0  0  0  0  0  0  0  0  0  0  0  0
   -8.7367   -6.9459   -1.3366 H   0  0  0  0  0  0  0  0  0  0  0  0
   -9.0920   -5.2625   -1.7287 H   0  0  0  0  0  0  0  0  0  0  0  0
   -2.8518  -10.1977    1.5321 H   0  0  0  0  0  0  0  0  0  0  0  0
   -3.0434  -11.9520    1.7272 H   0  0  0  0  0  0  0  0  0  0  0  0
   -1.7846  -11.4212   -0.3627 H   0  0  0  0  0  0  0  0  0  0  0  0
   -3.1401  -10.4427   -0.9374 H   0  0  0  0  0  0  0  0  0  0  0  0
   -3.3312  -12.1877   -0.7475 H   0  0  0  0  0  0  0  0  0  0  0  0
   -4.1268   -8.0048    0.7377 H   0  0  0  0  0  0  0  0  0  0  0  0
   -4.7967  -13.9328    1.6033 H   0  0  0  0  0  0  0  0  0  0  0  0
   -7.2438  -14.8291    1.7177 H   0  0  0  0  0  0  0  0  0  0  0  0
  1  2  1  0  0  0  0
  2  3  1  0  0  0  0
  3  4  1  0  0  0  0
  4  5  2  0  0  0  0
  5  6  1  0  0  0  0
  6  7  1  0  0  0  0
  7  8  1  0  0  0  0
  6  9  1  0  0  0  0
  9 10  1  0  0  0  0
  5 11  1  0  0  0  0
 11 12  2  0  0  0  0
 12 13  1  0  0  0  0
 12 14  1  0  0  0  0
 14 15  2  0  0  0  0
 15 16  1  0  0  0  0
 16 17  1  0  0  0  0
 17 18  1  0  0  0  0
 16 19  2  0  0  0  0
 19 20  1  0  0  0  0
 19 21  1  0  0  0  0
 21 22  2  0  0  0  0
 22 23  1  0  0  0  0
 23 24  1  0  0  0  0
 24 25  1  0  0  0  0
 23 26  2  0  0  0  0
 26 27  1  0  0  0  0
 26 28  1  0  0  0  0
 28 29  1  0  0  0  0
 29 30  1  0  0  0  0
 30 31  1  0  0  0  0
 31 32  2  0  0  0  0
 32 33  1  0  0  0  0
 33 34  1  0  0  0  0
 34 35  1  0  0  0  0
 33 36  1  0  0  0  0
 36 37  1  0  0  0  0
 32 38  1  0  0  0  0
 38 39  2  0  0  0  0
 39 40  1  0  0  0  0
 39 41  1  0  0  0  0
 41 42  2  0  0  0  0
 42 43  1  0  0  0  0
 43 44  1  0  0  0  0
 44 45  1  0  0  0  0
 43 46  2  0  0  0  0
 46 47  1  0  0  0  0
 46 48  1  0  0  0  0
 48 49  1  0  0  0  0
 49 50  1  0  0  0  0
 50 51  1  0  0  0  0
 51 52  2  0  0  0  0
 52 53  1  0  0  0  0
 53 54  1  0  0  0  0
 54 55  1  0  0  0  0
 53 56  1  0  0  0  0
 56 57  1  0  0  0  0
 52 58  1  0  0  0  0
 58 59  2  0  0  0  0
 59 60  1  0  0  0  0
 10  1  2  0  0  0  0
 20 14  1  0  0  0  0
 27 21  1  0  0  0  0
 37 28  2  0  0  0  0
 47 41  1  0  0  0  0
 57 48  2  0  0  0  0
  9  3  2  0  0  0  0
 36 30  2  0  0  0  0
 56 50  2  0  0  0  0
 13  4  1  0  0  0  0
 40 31  1  0  0  0  0
 60 51  1  0  0  0  0
  1 61  1  0  0  0  0
  7 62  1  0  0  0  0
  7 63  1  0  0  0  0
  8 64  1  0  0  0  0
  8 65  1  0  0  0  0
  8 66  1  0  0  0  0
 10 67  1  0  0  0  0
 11 68  1  0  0  0  0
 15 69  1  0  0  0  0
 17 70  1  0  0  0  0
 17 71  1  0  0  0  0
 18 72  1  0  0  0  0
 18 73  1  0  0  0  0
 18 74  1  0  0  0  0
 22 75  1  0  0  0  0
 24 76  1  0  0  0  0
 24 77  1  0  0  0  0
 25 78  1  0  0  0  0
 25 79  1  0  0  0  0
 25 80  1  0  0  0  0
 34 81  1  0  0  0  0
 34 82  1  0  0  0  0
 35 83  1  0  0  0  0
 35 84  1  0  0  0  0
 35 85  1  0  0  0  0
 37 86  1  0  0  0  0
 38 87  1  0  0  0  0
 42 88  1  0  0  0  0
 44 89  1  0  0  0  0
 44 90  1  0  0  0  0
 45 91  1  0  0  0  0
 45 92  1  0  0  0  0
 45 93  1  0  0  0  0
 54 94  1  0  0  0  0
 54 95  1  0  0  0  0
 55 96  1  0  0  0  0
 55 97  1  0  0  0  0
 55 98  1  0  0  0  0
 57 99  1  0  0  0  0
 58100  1  0  0  0  0
 59101  1  0  0  0  0
M  END
