235

C          1.47980       -9.43520       11.45090
C          2.23270       -9.21710       10.35340
C          1.46760       -8.77160        9.23690
C          1.92340       -8.44050        7.94760
C          3.32050       -8.47830        7.56250
C          3.81950       -8.92100        6.36870
C          5.21980       -8.76270        6.23780
O          6.00670       -9.12310        5.19710
C          5.37640       -9.55460        4.00370
C          4.71360       -8.41450        3.23830
C          5.76730       -8.18130        7.35490
Cl         7.42210       -7.82850        7.59410
S          4.58620       -7.84760        8.57470
C          0.95210       -8.05650        7.02850
C         -0.42650       -7.98440        7.33700
C         -0.87950       -8.27810        8.63860
C         -2.27830       -8.12900        8.97650
C         -3.13160       -7.15210        8.53510
C         -4.46300       -7.30870        8.98420
O         -5.52420       -6.52450        8.69500
C         -5.35260       -5.54180        7.68470
C         -6.71390       -4.93610        7.39000
C         -4.59840       -8.41720        9.78550
S         -3.10560       -9.26390       10.00260
Cl        -6.04070       -8.94540       10.52980
C          0.08960       -8.68950        9.55080
S         -0.20300       -9.12380       11.21090
C         -1.19600       -7.59220        6.21330
C         -0.45370       -7.30210        5.10980
S          1.25840       -7.55240        5.38530
C         -0.92970       -6.80090        3.86480
C         -0.20460       -6.43900        2.77040
C         -0.99200       -5.90220        1.72320
C         -0.55070       -5.43350        0.47300
C          0.85790       -5.26470        0.17870
C          1.79530       -4.71900        1.01320
C          3.06770       -4.55630        0.41470
O          4.18160       -4.00590        0.94790
C          4.11580       -3.50380        2.27180
C          4.20450       -4.60010        3.32760
C          3.07240       -5.00820       -0.88270
Cl         4.39960       -4.95790       -1.95480
S          1.53360       -5.62220       -1.38160
C         -1.53830       -5.01730       -0.41150
C         -2.91540       -4.94980       -0.08100
C         -3.35670       -5.40490        1.18280
C         -4.75190       -5.34080        1.56160
C         -5.85090       -5.49640        0.76180
C         -7.08380       -5.31400        1.43380
O         -8.33060       -5.42620        0.91010
C         -8.51970       -4.95600       -0.41570
C         -8.26680       -3.45800       -0.54120
C         -6.89880       -5.01970        2.76150
S         -5.22730       -4.99290        3.20440
Cl        -8.13130       -4.75150        3.91050
C         -2.37050       -5.87780        2.04610
S         -2.64430       -6.50520        3.64820
C         -3.65870       -4.29260       -1.09560
C         -2.90330       -3.90930       -2.16560
S         -1.22370       -4.36280       -1.98640
C         -3.24220       -3.08420       -3.28040
C         -4.36630       -2.35130       -3.52980
C         -4.20170       -1.40070       -4.57180
C         -5.11760       -0.40030       -4.97220
C         -6.49430       -0.46820       -4.53770
C         -7.24100       -1.61030       -4.41800
C         -8.55880       -1.38440       -3.95840
O         -9.51860       -2.31050       -3.69840
C         -9.43340       -3.55590       -4.37100
C         -9.64180       -3.42690       -5.87480
C         -8.79410       -0.05050       -3.73360
Cl       -10.24920        0.62490       -3.15010
S         -7.41350        0.93440       -4.07940
C         -4.59780        0.62750       -5.75190
C         -3.27750        0.60630       -6.26840
C         -2.40170       -0.46440       -5.99090
C         -1.04460       -0.52010       -6.49080
C          0.04940       -1.04570       -5.85620
C          1.23580       -1.02700       -6.62480
O          2.45250       -1.49200       -6.26380
C          2.51220       -2.42990       -5.19270
C          1.81780       -3.74840       -5.50720
C          1.03060       -0.45090       -7.85510
S         -0.60860        0.05700       -8.07910
Cl         2.21680       -0.18810       -9.05620
C         -2.89010       -1.42090       -5.10420
S         -1.96070       -2.71500       -4.40940
C         -2.94010        1.83090       -6.87660
C         -3.91200        2.78920       -6.80150
S         -5.38950        2.14630       -6.10700
C         -3.64080        4.18070       -6.94740
C         -4.37760        5.27460       -6.56860
C         -3.66480        6.48470       -6.38770
C         -4.34860        7.74770       -5.96330
C         -5.37770        8.18710       -7.00620
C         -2.30810        6.38090       -6.61020
Se        -1.85430        4.66870       -7.27850
C         -1.18550        7.09150       -6.07640
C         -1.05620        7.76530       -4.89610
C          0.24550        7.66750       -4.32410
C          0.60930        8.00520       -3.00340
C         -0.16330        8.95230       -2.23550
C         -0.37230        9.00350       -0.88340
C         -1.11810       10.12810       -0.46050
O         -1.50640       10.44660        0.79520
C         -0.93010        9.73100        1.87490
C          0.54090       10.06780        2.09210
C         -1.46640       10.93400       -1.51830
Cl        -2.37560       12.37640       -1.42160
S         -0.90600       10.31560       -3.03130
C          1.72060        7.33150       -2.48960
C          2.50160        6.42540       -3.24690
C          2.24700        6.23770       -4.62360
C          2.93940        5.28760       -5.46650
C          3.01810        5.33240       -6.83200
C          3.54270        4.15880       -7.42600
O          3.72860        3.92390       -8.74630
C          2.74060        4.43480       -9.63140
C          1.36810        3.81780       -9.38880
C          3.87390        3.21570       -6.48670
S          3.57220        3.76960       -4.87530
Cl         4.55590        1.68420       -6.80910
C          1.11420        6.87900       -5.11420
S          0.38660        6.55750       -6.66690
C          3.41970        5.71570       -2.43600
C          3.35570        6.03770       -1.11490
S          2.22950        7.34200       -0.81910
C          3.91290        5.24720       -0.05360
C          3.90970        3.88620       -0.07370
C          4.41010        3.29180        1.11200
C          4.42440        1.92340        1.44360
C          3.90680        0.93680        0.51510
C          4.11270        0.86930       -0.83420
C          3.34690       -0.13150       -1.48120
O          3.28190       -0.41610       -2.79970
C          4.18390        0.23820       -3.67820
C          5.60100       -0.31310       -3.58480
C          2.56150       -0.81940       -0.58990
Cl         1.43760       -2.04320       -0.99400
S          2.76580       -0.26990        1.03800
C          4.88660        1.60340        2.71480
C          5.32760        2.56970        3.64980
C          5.27690        3.94120        3.33210
C          5.63130        4.98030        4.27650
C          6.22690        6.18110        3.99810
C          6.37230        7.02470        5.12480
O          6.89680        8.27050        5.17890
C          7.50260        8.79500        4.01100
C          8.88140        8.19870        3.74800
C          5.86750        6.44100        6.26140
S          5.21960        4.86680        5.96390
Cl         5.84530        7.13680        7.82150
C          4.81900        4.26360        2.05480
S          4.56240        5.87980        1.43910
C          5.80370        1.95250        4.84440
C          5.71150        0.60780        4.81710
S          5.04370       -0.01100        3.34720
H          1.80640       -9.77290       12.41490
H          3.29550       -9.36810       10.32300
H          3.19870       -9.38590        5.62600
H          4.65270      -10.34970        4.22120
H          6.19100       -9.98030        3.41240
H          4.27400       -8.79750        2.32160
H          5.45480       -7.66120        2.98490
H          3.93380       -7.94790        3.83630
H         -2.80070       -6.31380        7.95100
H         -4.93920       -6.00300        6.77730
H         -4.65700       -4.76610        8.03330
H         -6.61890       -4.18350        6.61300
H         -7.39870       -5.70940        7.05360
H         -7.12130       -4.47910        8.28740
H         -2.26880       -7.54450        6.20450
H          0.85990       -6.57370        2.70850
H          1.55040       -4.38440        2.00420
H          3.20980       -2.90140        2.40620
H          4.98050       -2.83990        2.35120
H          5.13710       -5.14650        3.21640
H          4.17500       -4.15290        4.31700
H          3.38040       -5.30350        3.23630
H         -5.78420       -5.79480       -0.26800
H         -9.56660       -5.18260       -0.62920
H         -7.89030       -5.51750       -1.11830
H         -8.57120       -3.10930       -1.52320
H         -8.84560       -2.92500        0.20920
H         -7.21350       -3.22800       -0.38910
H         -4.70200       -4.05530       -1.01310
H         -5.25310       -2.41240       -2.92620
H         -6.85720       -2.57640       -4.69010
H        -10.23500       -4.15080       -3.92640
H         -8.47530       -4.04580       -4.15330
H        -10.59680       -2.94780       -6.07540
H         -9.63770       -4.41270       -6.33110
H         -8.85300       -2.82690       -6.32340
H          0.03460       -1.38240       -4.83760
H          3.58280       -2.59680       -5.05600
H          2.11130       -1.98820       -4.27450
H          1.97940       -4.44060       -4.68560
H          0.74690       -3.60830       -5.63600
H          2.22610       -4.17850       -6.41880
H         -1.95800        2.04770       -7.26600
H         -5.42430        5.19100       -6.32390
H         -4.85160        7.58480       -5.00600
H         -3.60990        8.53940       -5.83460
H         -4.89470        8.34710       -7.96760
H         -6.15040        7.43280       -7.13130
H         -5.84890        9.11670       -6.69690
H         -1.89310        8.15850       -4.34920
H         -0.04020        8.23150       -0.21610
H         -1.06520        8.65170        1.73310
H         -1.51920       10.04370        2.74070
H          0.65670       11.13930        2.23460
H          0.90440        9.55230        2.97640
H          1.14200        9.76370        1.23830
H          2.75450        6.20270       -7.40380
H          3.11150        4.16430      -10.62260
H          2.68820        5.52800       -9.56110
H          1.43470        2.73330       -9.43070
H          0.67280        4.15850      -10.15060
H          0.98080        4.10760       -8.41160
H          4.09520        4.97040       -2.80910
H          3.49310        3.32850       -0.89090
H          4.81440        1.50690       -1.33920
H          4.17110        1.32070       -3.50190
H          3.77550        0.04670       -4.67220
H          6.22210        0.16580       -4.33630
H          5.59380       -1.38540       -3.76420
H          6.03200       -0.13360       -2.60240
H          6.57940        6.43310        3.01560
H          6.84370        8.65850        3.14490
H          7.59200        9.86520        4.21490
H          9.32610        8.67660        2.87970
H          9.52400        8.36220        4.60940
H          8.81540        7.12850        3.56640
H          6.20780        2.49690        5.67660
H          6.00070       -0.08680        5.58110
