
  xtb     03022220523D
 energy: -455.450188339787 gnorm: 0.000353999164 xtb: 6.4.1 (unknown)
225251  0     0  0            999 V2000
   -3.0219    7.2389   -5.6102 C   0  0  0  0  0  0  0  0  0  0  0  0
   -2.9894    6.0564   -4.9634 C   0  0  0  0  0  0  0  0  0  0  0  0
   -1.8798    5.2488   -5.3471 C   0  0  0  0  0  0  0  0  0  0  0  0
   -1.5029    3.9962   -4.8460 C   0  0  0  0  0  0  0  0  0  0  0  0
   -2.2289    3.3081   -3.7882 C   0  0  0  0  0  0  0  0  0  0  0  0
   -3.9122    2.8923   -3.9099 S   0  0  0  0  0  0  0  0  0  0  0  0
   -3.9119    2.0887   -2.3745 C   0  0  0  0  0  0  0  0  0  0  0  0
   -5.1557    1.5090   -1.8028 C   0  0  0  0  0  0  0  0  0  0  0  0
   -5.9331    2.5641   -1.0118 C   0  0  0  0  0  0  0  0  0  0  0  0
   -2.6749    2.1612   -1.8061 C   0  0  0  0  0  0  0  0  0  0  0  0
   -2.2706    1.4797   -0.2805 Cl  0  0  0  0  0  0  0  0  0  0  0  0
   -1.7232    2.8487   -2.6032 C   0  0  0  0  0  0  0  0  0  0  0  0
   -0.1323    3.1523   -2.0539 Cl  0  0  0  0  0  0  0  0  0  0  0  0
   -0.3503    3.4318   -5.3776 C   0  0  0  0  0  0  0  0  0  0  0  0
    0.4753    4.0773   -6.3290 C   0  0  0  0  0  0  0  0  0  0  0  0
    0.0986    5.3365   -6.8257 C   0  0  0  0  0  0  0  0  0  0  0  0
    0.9089    6.0337   -7.8108 C   0  0  0  0  0  0  0  0  0  0  0  0
    2.6009    6.3341   -7.5373 S   0  0  0  0  0  0  0  0  0  0  0  0
    2.7832    7.1562   -9.0492 C   0  0  0  0  0  0  0  0  0  0  0  0
    4.0856    7.7551   -9.4509 C   0  0  0  0  0  0  0  0  0  0  0  0
    4.2658    9.1427   -8.8310 C   0  0  0  0  0  0  0  0  0  0  0  0
    1.5934    7.1925   -9.7120 C   0  0  0  0  0  0  0  0  0  0  0  0
    0.5305    6.5542   -9.0170 C   0  0  0  0  0  0  0  0  0  0  0  0
   -1.0354    6.3887   -9.6923 Cl  0  0  0  0  0  0  0  0  0  0  0  0
    1.3767    7.9236  -11.2489 Cl  0  0  0  0  0  0  0  0  0  0  0  0
   -1.0782    5.8865   -6.3260 C   0  0  0  0  0  0  0  0  0  0  0  0
   -1.7183    7.4555   -6.7254 S   0  0  0  0  0  0  0  0  0  0  0  0
    1.6065    3.2876   -6.6695 C   0  0  0  0  0  0  0  0  0  0  0  0
    1.6313    2.0838   -6.0337 C   0  0  0  0  0  0  0  0  0  0  0  0
    0.2455    1.8534   -4.9878 S   0  0  0  0  0  0  0  0  0  0  0  0
    2.6208    1.0484   -6.0363 C   0  0  0  0  0  0  0  0  0  0  0  0
    3.9667    1.1292   -6.2383 C   0  0  0  0  0  0  0  0  0  0  0  0
    4.6506   -0.0854   -5.9619 C   0  0  0  0  0  0  0  0  0  0  0  0
    6.0401   -0.2916   -5.8383 C   0  0  0  0  0  0  0  0  0  0  0  0
    6.9778    0.7873   -6.0998 C   0  0  0  0  0  0  0  0  0  0  0  0
    8.1272    1.2831   -4.8921 S   0  0  0  0  0  0  0  0  0  0  0  0
    8.7541    2.5449   -5.8947 C   0  0  0  0  0  0  0  0  0  0  0  0
    9.8204    3.4586   -5.4005 C   0  0  0  0  0  0  0  0  0  0  0  0
    9.2329    4.5543   -4.5077 C   0  0  0  0  0  0  0  0  0  0  0  0
    8.0973    2.5726   -7.0887 C   0  0  0  0  0  0  0  0  0  0  0  0
    8.4407    3.6886   -8.3468 Cl  0  0  0  0  0  0  0  0  0  0  0  0
    7.0901    1.5779   -7.2092 C   0  0  0  0  0  0  0  0  0  0  0  0
    6.1671    1.3632   -8.6413 Cl  0  0  0  0  0  0  0  0  0  0  0  0
    6.4565   -1.5128   -5.3237 C   0  0  0  0  0  0  0  0  0  0  0  0
    5.5530   -2.5405   -4.9624 C   0  0  0  0  0  0  0  0  0  0  0  0
    4.1683   -2.3215   -5.0293 C   0  0  0  0  0  0  0  0  0  0  0  0
    3.2289   -3.1771   -4.3222 C   0  0  0  0  0  0  0  0  0  0  0  0
    3.5075   -3.5076   -2.6295 S   0  0  0  0  0  0  0  0  0  0  0  0
    1.9781   -4.2932   -2.4483 C   0  0  0  0  0  0  0  0  0  0  0  0
    1.5480   -4.8795   -1.1479 C   0  0  0  0  0  0  0  0  0  0  0  0
    2.2804   -4.2654    0.0374 C   0  0  0  0  0  0  0  0  0  0  0  0
    1.3065   -4.2956   -3.6346 C   0  0  0  0  0  0  0  0  0  0  0  0
    2.0056   -3.6563   -4.6950 C   0  0  0  0  0  0  0  0  0  0  0  0
    1.3858   -3.5721   -6.2887 Cl  0  0  0  0  0  0  0  0  0  0  0  0
   -0.2474   -4.9899   -3.8403 Cl  0  0  0  0  0  0  0  0  0  0  0  0
    3.7538   -1.1046   -5.5544 C   0  0  0  0  0  0  0  0  0  0  0  0
    2.1120   -0.5531   -5.5568 S   0  0  0  0  0  0  0  0  0  0  0  0
    6.2000   -3.6299   -4.3368 C   0  0  0  0  0  0  0  0  0  0  0  0
    7.5275   -3.4109   -4.0980 C   0  0  0  0  0  0  0  0  0  0  0  0
    8.0875   -1.9274   -4.8471 S   0  0  0  0  0  0  0  0  0  0  0  0
    8.1423   -3.9593   -2.9211 C   0  0  0  0  0  0  0  0  0  0  0  0
    8.6522   -3.1496   -1.9461 C   0  0  0  0  0  0  0  0  0  0  0  0
    8.2661   -3.5643   -0.6441 C   0  0  0  0  0  0  0  0  0  0  0  0
    8.0706   -2.7009    0.4441 C   0  0  0  0  0  0  0  0  0  0  0  0
    8.5287   -1.3150    0.3873 C   0  0  0  0  0  0  0  0  0  0  0  0
    9.7125   -0.6761    1.4807 S   0  0  0  0  0  0  0  0  0  0  0  0
    9.6557    0.8909    0.7446 C   0  0  0  0  0  0  0  0  0  0  0  0
   10.4698    2.0194    1.2733 C   0  0  0  0  0  0  0  0  0  0  0  0
    9.8117    2.6336    2.5110 C   0  0  0  0  0  0  0  0  0  0  0  0
    8.7538    0.9024   -0.2767 C   0  0  0  0  0  0  0  0  0  0  0  0
    8.4132    2.2720   -1.2482 Cl  0  0  0  0  0  0  0  0  0  0  0  0
    8.1123   -0.3482   -0.4830 C   0  0  0  0  0  0  0  0  0  0  0  0
    6.9007   -0.5899   -1.6804 Cl  0  0  0  0  0  0  0  0  0  0  0  0
    7.1794   -3.1236    1.4190 C   0  0  0  0  0  0  0  0  0  0  0  0
    6.6045   -4.4173    1.4477 C   0  0  0  0  0  0  0  0  0  0  0  0
    6.9135   -5.3345    0.4250 C   0  0  0  0  0  0  0  0  0  0  0  0
    6.3587   -6.6737    0.3438 C   0  0  0  0  0  0  0  0  0  0  0  0
    4.6729   -7.0360    0.5689 S   0  0  0  0  0  0  0  0  0  0  0  0
    4.8967   -8.7128    0.2120 C   0  0  0  0  0  0  0  0  0  0  0  0
    3.7670   -9.6795    0.2855 C   0  0  0  0  0  0  0  0  0  0  0  0
    3.6718  -10.3040    1.6799 C   0  0  0  0  0  0  0  0  0  0  0  0
    6.2089   -8.9671   -0.0552 C   0  0  0  0  0  0  0  0  0  0  0  0
    7.0360   -7.8146    0.0035 C   0  0  0  0  0  0  0  0  0  0  0  0
    8.7270   -7.8845   -0.2604 Cl  0  0  0  0  0  0  0  0  0  0  0  0
    6.8205  -10.5230   -0.4392 Cl  0  0  0  0  0  0  0  0  0  0  0  0
    7.6532   -4.8394   -0.6438 C   0  0  0  0  0  0  0  0  0  0  0  0
    7.5639   -5.4857   -2.2650 S   0  0  0  0  0  0  0  0  0  0  0  0
    5.5168   -4.4848    2.3624 C   0  0  0  0  0  0  0  0  0  0  0  0
    5.1996   -3.2811    2.9074 C   0  0  0  0  0  0  0  0  0  0  0  0
    6.3666   -2.0359    2.5108 S   0  0  0  0  0  0  0  0  0  0  0  0
    3.8844   -2.8751    3.3553 C   0  0  0  0  0  0  0  0  0  0  0  0
    3.1116   -2.0897    2.5599 C   0  0  0  0  0  0  0  0  0  0  0  0
    1.7781   -1.9500    3.0141 C   0  0  0  0  0  0  0  0  0  0  0  0
    0.6991   -1.3608    2.3340 C   0  0  0  0  0  0  0  0  0  0  0  0
    0.8403   -0.8518    0.9789 C   0  0  0  0  0  0  0  0  0  0  0  0
    2.0812    0.2826    0.5346 S   0  0  0  0  0  0  0  0  0  0  0  0
    1.6394    0.2383   -1.1385 C   0  0  0  0  0  0  0  0  0  0  0  0
    2.4179    1.0000   -2.1502 C   0  0  0  0  0  0  0  0  0  0  0  0
    3.8437    0.4653   -2.2665 C   0  0  0  0  0  0  0  0  0  0  0  0
    0.5834   -0.6021   -1.3267 C   0  0  0  0  0  0  0  0  0  0  0  0
   -0.1299   -0.9337   -2.8528 Cl  0  0  0  0  0  0  0  0  0  0  0  0
    0.1222   -1.2149   -0.1292 C   0  0  0  0  0  0  0  0  0  0  0  0
   -1.1416   -2.3701   -0.1311 Cl  0  0  0  0  0  0  0  0  0  0  0  0
   -0.5227   -1.3645    2.9929 C   0  0  0  0  0  0  0  0  0  0  0  0
   -0.7121   -1.9517    4.2688 C   0  0  0  0  0  0  0  0  0  0  0  0
    0.3470   -2.6412    4.8930 C   0  0  0  0  0  0  0  0  0  0  0  0
    0.1445   -3.3522    6.1415 C   0  0  0  0  0  0  0  0  0  0  0  0
    1.2203   -3.1362    7.4900 S   0  0  0  0  0  0  0  0  0  0  0  0
    0.3347   -4.2473    8.4758 C   0  0  0  0  0  0  0  0  0  0  0  0
    0.7247   -4.5076    9.8886 C   0  0  0  0  0  0  0  0  0  0  0  0
    0.1053   -3.4697   10.8278 C   0  0  0  0  0  0  0  0  0  0  0  0
   -0.7321   -4.7457    7.7880 C   0  0  0  0  0  0  0  0  0  0  0  0
   -0.8415   -4.2457    6.4636 C   0  0  0  0  0  0  0  0  0  0  0  0
   -2.0453   -4.7964    5.3701 Cl  0  0  0  0  0  0  0  0  0  0  0  0
   -1.8441   -5.8795    8.4386 Cl  0  0  0  0  0  0  0  0  0  0  0  0
    1.5766   -2.6154    4.2476 C   0  0  0  0  0  0  0  0  0  0  0  0
    3.0251   -3.4517    4.7595 S   0  0  0  0  0  0  0  0  0  0  0  0
   -2.0191   -1.7262    4.7579 C   0  0  0  0  0  0  0  0  0  0  0  0
   -2.8189   -1.0404    3.8856 C   0  0  0  0  0  0  0  0  0  0  0  0
   -1.9727   -0.6143    2.4136 S   0  0  0  0  0  0  0  0  0  0  0  0
   -4.1799   -0.6297    4.0969 C   0  0  0  0  0  0  0  0  0  0  0  0
   -5.0555   -0.2866    3.0691 C   0  0  0  0  0  0  0  0  0  0  0  0
   -4.7372   -0.4922    1.7057 C   0  0  0  0  0  0  0  0  0  0  0  0
   -4.5831   -0.6922    0.5869 N   0  0  0  0  0  0  0  0  0  0  0  0
   -6.3621    0.2307    3.3082 C   0  0  0  0  0  0  0  0  0  0  0  0
   -7.1091    0.5162    2.1410 C   0  0  0  0  0  0  0  0  0  0  0  0
   -7.6618    0.6948    1.1517 N   0  0  0  0  0  0  0  0  0  0  0  0
   -6.8801    0.4158    4.5886 C   0  0  0  0  0  0  0  0  0  0  0  0
   -6.0387   -0.0172    5.6531 C   0  0  0  0  0  0  0  0  0  0  0  0
   -4.7126   -0.5248    5.4105 C   0  0  0  0  0  0  0  0  0  0  0  0
   -4.0918   -0.8454    6.5437 N   0  0  0  0  0  0  0  0  0  0  0  0
   -5.0661   -0.5526    7.7835 S   0  0  0  0  0  0  0  0  0  0  0  0
   -6.3217    0.0043    6.9544 N   0  0  0  0  0  0  0  0  0  0  0  0
   -8.1528    1.0247    4.8638 C   0  0  0  0  0  0  0  0  0  0  0  0
   -8.8179    0.9997    6.0584 C   0  0  0  0  0  0  0  0  0  0  0  0
  -10.0142    1.7507    6.0606 C   0  0  0  0  0  0  0  0  0  0  0  0
  -10.9390    1.8976    7.1104 C   0  0  0  0  0  0  0  0  0  0  0  0
  -10.6908    1.2847    8.4042 C   0  0  0  0  0  0  0  0  0  0  0  0
   -9.1921    1.5612    9.2425 S   0  0  0  0  0  0  0  0  0  0  0  0
   -9.6482    0.5354   10.5596 C   0  0  0  0  0  0  0  0  0  0  0  0
   -8.7029    0.2697   11.6787 C   0  0  0  0  0  0  0  0  0  0  0  0
   -7.5216   -0.5789   11.2029 C   0  0  0  0  0  0  0  0  0  0  0  0
  -10.8917    0.0193   10.3486 C   0  0  0  0  0  0  0  0  0  0  0  0
  -11.6840   -1.0522   11.4297 Cl  0  0  0  0  0  0  0  0  0  0  0  0
  -11.4898    0.4473    9.1317 C   0  0  0  0  0  0  0  0  0  0  0  0
  -13.0182   -0.1243    8.6098 Cl  0  0  0  0  0  0  0  0  0  0  0  0
  -12.0702    2.6583    6.8465 C   0  0  0  0  0  0  0  0  0  0  0  0
  -12.3114    3.2705    5.5906 C   0  0  0  0  0  0  0  0  0  0  0  0
  -11.3848    3.1297    4.5461 C   0  0  0  0  0  0  0  0  0  0  0  0
  -11.5899    3.7426    3.2435 C   0  0  0  0  0  0  0  0  0  0  0  0
  -13.0406    3.4585    2.3275 S   0  0  0  0  0  0  0  0  0  0  0  0
  -12.4819    4.4107    0.9953 C   0  0  0  0  0  0  0  0  0  0  0  0
  -13.3324    4.6365   -0.2053 C   0  0  0  0  0  0  0  0  0  0  0  0
  -14.2940    5.8063    0.0178 C   0  0  0  0  0  0  0  0  0  0  0  0
  -11.2489    4.9243    1.2657 C   0  0  0  0  0  0  0  0  0  0  0  0
  -10.7368    4.5427    2.5348 C   0  0  0  0  0  0  0  0  0  0  0  0
   -9.2361    5.1195    3.1256 Cl  0  0  0  0  0  0  0  0  0  0  0  0
  -10.3736    5.9308    0.1876 Cl  0  0  0  0  0  0  0  0  0  0  0  0
  -10.2532    2.3657    4.8080 C   0  0  0  0  0  0  0  0  0  0  0  0
   -9.0012    1.9855    3.6671 S   0  0  0  0  0  0  0  0  0  0  0  0
  -13.5151    4.0326    5.6037 C   0  0  0  0  0  0  0  0  0  0  0  0
  -14.1412    4.0024    6.7984 C   0  0  0  0  0  0  0  0  0  0  0  0
  -13.3256    3.0501    7.9867 S   0  0  0  0  0  0  0  0  0  0  0  0
   -3.7444    8.0253   -5.5111 H   0  0  0  0  0  0  0  0  0  0  0  0
   -3.7179    5.7486   -4.2361 H   0  0  0  0  0  0  0  0  0  0  0  0
   -5.7845    1.1218   -2.6055 H   0  0  0  0  0  0  0  0  0  0  0  0
   -4.8900    0.6854   -1.1366 H   0  0  0  0  0  0  0  0  0  0  0  0
   -5.3061    2.9839   -0.2282 H   0  0  0  0  0  0  0  0  0  0  0  0
   -6.2592    3.3697   -1.6661 H   0  0  0  0  0  0  0  0  0  0  0  0
   -6.8035    2.1075   -0.5487 H   0  0  0  0  0  0  0  0  0  0  0  0
    4.8997    7.1042   -9.1269 H   0  0  0  0  0  0  0  0  0  0  0  0
    4.1119    7.8343  -10.5393 H   0  0  0  0  0  0  0  0  0  0  0  0
    4.2447    9.0767   -7.7458 H   0  0  0  0  0  0  0  0  0  0  0  0
    5.2181    9.5672   -9.1372 H   0  0  0  0  0  0  0  0  0  0  0  0
    3.4679    9.8061   -9.1548 H   0  0  0  0  0  0  0  0  0  0  0  0
    2.3610    3.5951   -7.3696 H   0  0  0  0  0  0  0  0  0  0  0  0
    4.4599    2.0441   -6.5093 H   0  0  0  0  0  0  0  0  0  0  0  0
   10.5533    2.8839   -4.8312 H   0  0  0  0  0  0  0  0  0  0  0  0
   10.3195    3.9116   -6.2589 H   0  0  0  0  0  0  0  0  0  0  0  0
   10.0221    5.2148   -4.1591 H   0  0  0  0  0  0  0  0  0  0  0  0
    8.5045    5.1422   -5.0606 H   0  0  0  0  0  0  0  0  0  0  0  0
    8.7406    4.1125   -3.6448 H   0  0  0  0  0  0  0  0  0  0  0  0
    0.4711   -4.7266   -1.0440 H   0  0  0  0  0  0  0  0  0  0  0  0
    1.7267   -5.9597   -1.1674 H   0  0  0  0  0  0  0  0  0  0  0  0
    3.3511   -4.4445   -0.0373 H   0  0  0  0  0  0  0  0  0  0  0  0
    1.9235   -4.6998    0.9671 H   0  0  0  0  0  0  0  0  0  0  0  0
    2.1087   -3.1932    0.0683 H   0  0  0  0  0  0  0  0  0  0  0  0
    5.6783   -4.4916   -3.9632 H   0  0  0  0  0  0  0  0  0  0  0  0
    9.0937   -2.1936   -2.1586 H   0  0  0  0  0  0  0  0  0  0  0  0
   11.4662    1.6586    1.5347 H   0  0  0  0  0  0  0  0  0  0  0  0
   10.5643    2.7765    0.4929 H   0  0  0  0  0  0  0  0  0  0  0  0
    8.8214    3.0076    2.2644 H   0  0  0  0  0  0  0  0  0  0  0  0
    9.7157    1.8873    3.2960 H   0  0  0  0  0  0  0  0  0  0  0  0
   10.4136    3.4580    2.8834 H   0  0  0  0  0  0  0  0  0  0  0  0
    2.8335   -9.1657    0.0512 H   0  0  0  0  0  0  0  0  0  0  0  0
    3.9300  -10.4663   -0.4537 H   0  0  0  0  0  0  0  0  0  0  0  0
    2.8481  -11.0118    1.7154 H   0  0  0  0  0  0  0  0  0  0  0  0
    4.5926  -10.8287    1.9208 H   0  0  0  0  0  0  0  0  0  0  0  0
    3.5032   -9.5339    2.4289 H   0  0  0  0  0  0  0  0  0  0  0  0
    4.9111   -5.3598    2.5081 H   0  0  0  0  0  0  0  0  0  0  0  0
    3.4814   -1.6567    1.6493 H   0  0  0  0  0  0  0  0  0  0  0  0
    1.9043    0.9151   -3.1075 H   0  0  0  0  0  0  0  0  0  0  0  0
    2.4561    2.0550   -1.8707 H   0  0  0  0  0  0  0  0  0  0  0  0
    4.3896    1.0118   -3.0318 H   0  0  0  0  0  0  0  0  0  0  0  0
    3.8383   -0.5903   -2.5311 H   0  0  0  0  0  0  0  0  0  0  0  0
    4.3616    0.5817   -1.3175 H   0  0  0  0  0  0  0  0  0  0  0  0
    0.3810   -5.5049   10.1694 H   0  0  0  0  0  0  0  0  0  0  0  0
    1.8117   -4.4734    9.9754 H   0  0  0  0  0  0  0  0  0  0  0  0
   -0.9793   -3.5039   10.7641 H   0  0  0  0  0  0  0  0  0  0  0  0
    0.4008   -3.6720   11.8536 H   0  0  0  0  0  0  0  0  0  0  0  0
    0.4393   -2.4707   10.5580 H   0  0  0  0  0  0  0  0  0  0  0  0
   -2.3614   -2.0444    5.7239 H   0  0  0  0  0  0  0  0  0  0  0  0
   -8.4558    0.4489    6.9048 H   0  0  0  0  0  0  0  0  0  0  0  0
   -8.3296    1.2168   12.0742 H   0  0  0  0  0  0  0  0  0  0  0  0
   -9.2402   -0.2511   12.4724 H   0  0  0  0  0  0  0  0  0  0  0  0
   -6.9862   -0.0646   10.4075 H   0  0  0  0  0  0  0  0  0  0  0  0
   -6.8368   -0.7620   12.0264 H   0  0  0  0  0  0  0  0  0  0  0  0
   -7.8736   -1.5350   10.8233 H   0  0  0  0  0  0  0  0  0  0  0  0
  -12.6840    4.8535   -1.0560 H   0  0  0  0  0  0  0  0  0  0  0  0
  -13.9039    3.7325   -0.4216 H   0  0  0  0  0  0  0  0  0  0  0  0
  -13.7376    6.7159    0.2293 H   0  0  0  0  0  0  0  0  0  0  0  0
  -14.8987    5.9665   -0.8705 H   0  0  0  0  0  0  0  0  0  0  0  0
  -14.9540    5.5982    0.8567 H   0  0  0  0  0  0  0  0  0  0  0  0
  -13.8790    4.5787    4.7532 H   0  0  0  0  0  0  0  0  0  0  0  0
  -15.0564    4.4893    7.0732 H   0  0  0  0  0  0  0  0  0  0  0  0
  1  2  2  0  0  0  0
  2  3  1  0  0  0  0
  3  4  2  0  0  0  0
  4  5  1  0  0  0  0
  5  6  1  0  0  0  0
  6  7  1  0  0  0  0
  7  8  1  0  0  0  0
  8  9  1  0  0  0  0
  7 10  2  0  0  0  0
 10 11  1  0  0  0  0
 10 12  1  0  0  0  0
 12 13  1  0  0  0  0
  4 14  1  0  0  0  0
 14 15  2  0  0  0  0
 15 16  1  0  0  0  0
 16 17  1  0  0  0  0
 17 18  1  0  0  0  0
 18 19  1  0  0  0  0
 19 20  1  0  0  0  0
 20 21  1  0  0  0  0
 19 22  2  0  0  0  0
 22 23  1  0  0  0  0
 23 24  1  0  0  0  0
 22 25  1  0  0  0  0
 16 26  2  0  0  0  0
 26 27  1  0  0  0  0
 15 28  1  0  0  0  0
 28 29  2  0  0  0  0
 29 30  1  0  0  0  0
 29 31  1  0  0  0  0
 31 32  2  0  0  0  0
 32 33  1  0  0  0  0
 33 34  2  0  0  0  0
 34 35  1  0  0  0  0
 35 36  1  0  0  0  0
 36 37  1  0  0  0  0
 37 38  1  0  0  0  0
 38 39  1  0  0  0  0
 37 40  2  0  0  0  0
 40 41  1  0  0  0  0
 40 42  1  0  0  0  0
 42 43  1  0  0  0  0
 34 44  1  0  0  0  0
 44 45  2  0  0  0  0
 45 46  1  0  0  0  0
 46 47  1  0  0  0  0
 47 48  1  0  0  0  0
 48 49  1  0  0  0  0
 49 50  1  0  0  0  0
 50 51  1  0  0  0  0
 49 52  2  0  0  0  0
 52 53  1  0  0  0  0
 53 54  1  0  0  0  0
 52 55  1  0  0  0  0
 46 56  2  0  0  0  0
 56 57  1  0  0  0  0
 45 58  1  0  0  0  0
 58 59  2  0  0  0  0
 59 60  1  0  0  0  0
 59 61  1  0  0  0  0
 61 62  2  0  0  0  0
 62 63  1  0  0  0  0
 63 64  2  0  0  0  0
 64 65  1  0  0  0  0
 65 66  1  0  0  0  0
 66 67  1  0  0  0  0
 67 68  1  0  0  0  0
 68 69  1  0  0  0  0
 67 70  2  0  0  0  0
 70 71  1  0  0  0  0
 70 72  1  0  0  0  0
 72 73  1  0  0  0  0
 64 74  1  0  0  0  0
 74 75  2  0  0  0  0
 75 76  1  0  0  0  0
 76 77  1  0  0  0  0
 77 78  1  0  0  0  0
 78 79  1  0  0  0  0
 79 80  1  0  0  0  0
 80 81  1  0  0  0  0
 79 82  2  0  0  0  0
 82 83  1  0  0  0  0
 83 84  1  0  0  0  0
 82 85  1  0  0  0  0
 76 86  2  0  0  0  0
 86 87  1  0  0  0  0
 75 88  1  0  0  0  0
 88 89  2  0  0  0  0
 89 90  1  0  0  0  0
 89 91  1  0  0  0  0
 91 92  2  0  0  0  0
 92 93  1  0  0  0  0
 93 94  2  0  0  0  0
 94 95  1  0  0  0  0
 95 96  1  0  0  0  0
 96 97  1  0  0  0  0
 97 98  1  0  0  0  0
 98 99  1  0  0  0  0
 97100  2  0  0  0  0
100101  1  0  0  0  0
100102  1  0  0  0  0
102103  1  0  0  0  0
 94104  1  0  0  0  0
104105  2  0  0  0  0
105106  1  0  0  0  0
106107  1  0  0  0  0
107108  1  0  0  0  0
108109  1  0  0  0  0
109110  1  0  0  0  0
110111  1  0  0  0  0
109112  2  0  0  0  0
112113  1  0  0  0  0
113114  1  0  0  0  0
112115  1  0  0  0  0
106116  2  0  0  0  0
116117  1  0  0  0  0
105118  1  0  0  0  0
118119  2  0  0  0  0
119120  1  0  0  0  0
119121  1  0  0  0  0
121122  2  0  0  0  0
122123  1  0  0  0  0
123124  3  0  0  0  0
122125  1  0  0  0  0
125126  1  0  0  0  0
126127  3  0  0  0  0
125128  2  0  0  0  0
128129  1  0  0  0  0
129130  1  0  0  0  0
130131  2  0  0  0  0
131132  1  0  0  0  0
132133  1  0  0  0  0
128134  1  0  0  0  0
134135  2  0  0  0  0
135136  1  0  0  0  0
136137  2  0  0  0  0
137138  1  0  0  0  0
138139  1  0  0  0  0
139140  1  0  0  0  0
140141  1  0  0  0  0
141142  1  0  0  0  0
140143  2  0  0  0  0
143144  1  0  0  0  0
143145  1  0  0  0  0
145146  1  0  0  0  0
137147  1  0  0  0  0
147148  2  0  0  0  0
148149  1  0  0  0  0
149150  1  0  0  0  0
150151  1  0  0  0  0
151152  1  0  0  0  0
152153  1  0  0  0  0
153154  1  0  0  0  0
152155  2  0  0  0  0
155156  1  0  0  0  0
156157  1  0  0  0  0
155158  1  0  0  0  0
149159  2  0  0  0  0
159160  1  0  0  0  0
148161  1  0  0  0  0
161162  2  0  0  0  0
162163  1  0  0  0  0
 27  1  1  0  0  0  0
 57 31  1  0  0  0  0
 87 61  1  0  0  0  0
117 91  1  0  0  0  0
130121  1  0  0  0  0
160134  1  0  0  0  0
 26  3  1  0  0  0  0
 56 33  1  0  0  0  0
 86 63  1  0  0  0  0
116 93  1  0  0  0  0
133129  2  0  0  0  0
159136  1  0  0  0  0
 12  5  2  0  0  0  0
 30 14  1  0  0  0  0
 42 35  2  0  0  0  0
 60 44  1  0  0  0  0
 72 65  2  0  0  0  0
 90 74  1  0  0  0  0
102 95  2  0  0  0  0
120104  1  0  0  0  0
145138  2  0  0  0  0
163147  1  0  0  0  0
 23 17  2  0  0  0  0
 53 47  2  0  0  0  0
 83 77  2  0  0  0  0
113107  2  0  0  0  0
156150  2  0  0  0  0
  1164  1  0  0  0  0
  2165  1  0  0  0  0
  8166  1  0  0  0  0
  8167  1  0  0  0  0
  9168  1  0  0  0  0
  9169  1  0  0  0  0
  9170  1  0  0  0  0
 20171  1  0  0  0  0
 20172  1  0  0  0  0
 21173  1  0  0  0  0
 21174  1  0  0  0  0
 21175  1  0  0  0  0
 28176  1  0  0  0  0
 32177  1  0  0  0  0
 38178  1  0  0  0  0
 38179  1  0  0  0  0
 39180  1  0  0  0  0
 39181  1  0  0  0  0
 39182  1  0  0  0  0
 50183  1  0  0  0  0
 50184  1  0  0  0  0
 51185  1  0  0  0  0
 51186  1  0  0  0  0
 51187  1  0  0  0  0
 58188  1  0  0  0  0
 62189  1  0  0  0  0
 68190  1  0  0  0  0
 68191  1  0  0  0  0
 69192  1  0  0  0  0
 69193  1  0  0  0  0
 69194  1  0  0  0  0
 80195  1  0  0  0  0
 80196  1  0  0  0  0
 81197  1  0  0  0  0
 81198  1  0  0  0  0
 81199  1  0  0  0  0
 88200  1  0  0  0  0
 92201  1  0  0  0  0
 98202  1  0  0  0  0
 98203  1  0  0  0  0
 99204  1  0  0  0  0
 99205  1  0  0  0  0
 99206  1  0  0  0  0
110207  1  0  0  0  0
110208  1  0  0  0  0
111209  1  0  0  0  0
111210  1  0  0  0  0
111211  1  0  0  0  0
118212  1  0  0  0  0
135213  1  0  0  0  0
141214  1  0  0  0  0
141215  1  0  0  0  0
142216  1  0  0  0  0
142217  1  0  0  0  0
142218  1  0  0  0  0
153219  1  0  0  0  0
153220  1  0  0  0  0
154221  1  0  0  0  0
154222  1  0  0  0  0
154223  1  0  0  0  0
161224  1  0  0  0  0
162225  1  0  0  0  0
M  END
