
  xtb     03072217543D
 energy: -472.609066120531 gnorm: 0.000563481617 xtb: 6.4.1 (unknown)
264289  0     0  0            999 V2000
   -7.3427    0.0378    4.9770 C   0  0  0  0  0  0  0  0  0  0  0  0
   -7.9497   -0.7055    5.9231 C   0  0  0  0  0  0  0  0  0  0  0  0
   -8.7109   -1.7863    5.3798 C   0  0  0  0  0  0  0  0  0  0  0  0
   -9.3745   -2.8146    6.0649 C   0  0  0  0  0  0  0  0  0  0  0  0
   -9.3424   -2.8792    7.5324 C   0  0  0  0  0  0  0  0  0  0  0  0
   -8.8205   -4.0019    8.1685 C   0  0  0  0  0  0  0  0  0  0  0  0
   -8.6853   -4.0413    9.5418 C   0  0  0  0  0  0  0  0  0  0  0  0
   -9.0735   -2.9621   10.3276 C   0  0  0  0  0  0  0  0  0  0  0  0
   -8.9282   -2.8898   12.0811 S   0  0  0  0  0  0  0  0  0  0  0  0
   -7.6135   -4.1029   12.4525 C   0  0  0  0  0  0  0  0  0  0  0  0
   -6.2673   -3.6815   11.8950 C   0  0  0  0  0  0  0  0  0  0  0  0
   -9.6389   -1.8631    9.6781 C   0  0  0  0  0  0  0  0  0  0  0  0
  -10.0559   -0.8107   10.4086 F   0  0  0  0  0  0  0  0  0  0  0  0
   -9.7675   -1.8042    8.3082 C   0  0  0  0  0  0  0  0  0  0  0  0
   -9.9554   -3.8096    5.2913 C   0  0  0  0  0  0  0  0  0  0  0  0
   -9.8943   -3.8262    3.8758 C   0  0  0  0  0  0  0  0  0  0  0  0
   -9.2077   -2.8128    3.1929 C   0  0  0  0  0  0  0  0  0  0  0  0
   -8.9709   -2.8373    1.7436 C   0  0  0  0  0  0  0  0  0  0  0  0
   -9.2673   -1.7345    0.9441 C   0  0  0  0  0  0  0  0  0  0  0  0
   -8.9486   -1.7337   -0.3953 C   0  0  0  0  0  0  0  0  0  0  0  0
   -8.2955   -2.8139   -0.9933 C   0  0  0  0  0  0  0  0  0  0  0  0
   -7.8590   -2.6045   -2.6904 S   0  0  0  0  0  0  0  0  0  0  0  0
   -7.6878   -4.2807   -3.4061 C   0  0  0  0  0  0  0  0  0  0  0  0
   -8.9744   -5.0782   -3.3452 C   0  0  0  0  0  0  0  0  0  0  0  0
   -8.0000   -3.9005   -0.1774 C   0  0  0  0  0  0  0  0  0  0  0  0
   -8.3456   -3.9313    1.1584 C   0  0  0  0  0  0  0  0  0  0  0  0
   -7.3357   -4.9781   -0.6584 F   0  0  0  0  0  0  0  0  0  0  0  0
   -8.6417   -1.8094    3.9675 C   0  0  0  0  0  0  0  0  0  0  0  0
   -7.6471   -0.5100    3.3647 S   0  0  0  0  0  0  0  0  0  0  0  0
  -10.5298   -4.9784    3.3349 C   0  0  0  0  0  0  0  0  0  0  0  0
  -11.0540   -5.7973    4.2808 C   0  0  0  0  0  0  0  0  0  0  0  0
  -10.7998   -5.2025    5.9099 S   0  0  0  0  0  0  0  0  0  0  0  0
  -11.5774   -7.1403    4.0821 C   0  0  0  0  0  0  0  0  0  0  0  0
  -12.8491   -7.6040    4.3740 C   0  0  0  0  0  0  0  0  0  0  0  0
  -14.0764   -6.9571    4.7569 C   0  0  0  0  0  0  0  0  0  0  0  0
  -15.0343   -7.5317    5.2156 O   0  0  0  0  0  0  0  0  0  0  0  0
  -14.2144   -5.4378    4.4341 C   0  0  0  0  0  0  0  0  0  0  0  0
  -15.4995   -5.1048    4.3323 F   0  0  0  0  0  0  0  0  0  0  0  0
  -13.6755   -4.6444    5.3671 F   0  0  0  0  0  0  0  0  0  0  0  0
  -13.6368   -5.1168    3.2625 F   0  0  0  0  0  0  0  0  0  0  0  0
  -12.9846   -9.3240    4.1126 S   0  0  0  0  0  0  0  0  0  0  0  0
  -11.3759   -9.3947    3.5629 C   0  0  0  0  0  0  0  0  0  0  0  0
  -10.7316   -8.1851    3.6056 C   0  0  0  0  0  0  0  0  0  0  0  0
   -9.3591   -7.9618    3.1849 C   0  0  0  0  0  0  0  0  0  0  0  0
   -8.7915   -8.2922    1.9980 C   0  0  0  0  0  0  0  0  0  0  0  0
   -7.4872   -7.7464    1.8213 C   0  0  0  0  0  0  0  0  0  0  0  0
   -6.6802   -7.8013    0.6729 C   0  0  0  0  0  0  0  0  0  0  0  0
   -7.0454   -8.6616   -0.4577 C   0  0  0  0  0  0  0  0  0  0  0  0
   -7.3544  -10.0060   -0.2524 C   0  0  0  0  0  0  0  0  0  0  0  0
   -7.6777  -10.8210   -1.3152 C   0  0  0  0  0  0  0  0  0  0  0  0
   -7.7314  -10.3285   -2.6187 C   0  0  0  0  0  0  0  0  0  0  0  0
   -8.2121  -11.4607   -3.8881 S   0  0  0  0  0  0  0  0  0  0  0  0
   -7.1642  -11.0066   -5.3191 C   0  0  0  0  0  0  0  0  0  0  0  0
   -5.6874  -11.0759   -4.9872 C   0  0  0  0  0  0  0  0  0  0  0  0
   -7.4565   -8.9767   -2.8010 C   0  0  0  0  0  0  0  0  0  0  0  0
   -7.5460   -8.4089   -4.0257 F   0  0  0  0  0  0  0  0  0  0  0  0
   -7.0979   -8.1563   -1.7515 C   0  0  0  0  0  0  0  0  0  0  0  0
   -5.5603   -6.9809    0.6624 C   0  0  0  0  0  0  0  0  0  0  0  0
   -5.1991   -6.1715    1.7671 C   0  0  0  0  0  0  0  0  0  0  0  0
   -5.9349   -6.2083    2.9611 C   0  0  0  0  0  0  0  0  0  0  0  0
   -5.5210   -5.4278    4.1341 C   0  0  0  0  0  0  0  0  0  0  0  0
   -6.4226   -4.6138    4.8156 C   0  0  0  0  0  0  0  0  0  0  0  0
   -6.0197   -3.8819    5.9126 C   0  0  0  0  0  0  0  0  0  0  0  0
   -4.7093   -3.9327    6.3690 C   0  0  0  0  0  0  0  0  0  0  0  0
   -4.2753   -2.9706    7.7964 S   0  0  0  0  0  0  0  0  0  0  0  0
   -2.9071   -1.9606    7.1171 C   0  0  0  0  0  0  0  0  0  0  0  0
   -3.3795   -1.0882    5.9702 C   0  0  0  0  0  0  0  0  0  0  0  0
   -3.8188   -4.7602    5.6925 C   0  0  0  0  0  0  0  0  0  0  0  0
   -4.2052   -5.4925    4.5880 C   0  0  0  0  0  0  0  0  0  0  0  0
   -2.5378   -4.8640    6.1029 F   0  0  0  0  0  0  0  0  0  0  0  0
   -7.0893   -6.9765    2.9413 C   0  0  0  0  0  0  0  0  0  0  0  0
   -8.2722   -7.0574    4.2173 S   0  0  0  0  0  0  0  0  0  0  0  0
   -4.1214   -5.3078    1.4556 C   0  0  0  0  0  0  0  0  0  0  0  0
   -3.6411   -5.4645    0.1918 C   0  0  0  0  0  0  0  0  0  0  0  0
   -4.4667   -6.7355   -0.6779 S   0  0  0  0  0  0  0  0  0  0  0  0
   -2.6513   -4.5912   -0.3766 C   0  0  0  0  0  0  0  0  0  0  0  0
   -2.6260   -3.2537   -0.1270 C   0  0  0  0  0  0  0  0  0  0  0  0
   -1.5012   -2.5916   -0.6766 C   0  0  0  0  0  0  0  0  0  0  0  0
   -1.1908   -1.2257   -0.5907 C   0  0  0  0  0  0  0  0  0  0  0  0
   -2.0852   -0.3144    0.1347 C   0  0  0  0  0  0  0  0  0  0  0  0
   -2.5064   -0.6105    1.4316 C   0  0  0  0  0  0  0  0  0  0  0  0
   -3.4516    0.1705    2.0593 C   0  0  0  0  0  0  0  0  0  0  0  0
   -4.0016    1.2865    1.4313 C   0  0  0  0  0  0  0  0  0  0  0  0
   -5.2436    2.1772    2.3185 S   0  0  0  0  0  0  0  0  0  0  0  0
   -6.4358    2.6951    1.0297 C   0  0  0  0  0  0  0  0  0  0  0  0
   -6.9529    1.5274    0.2142 C   0  0  0  0  0  0  0  0  0  0  0  0
   -3.5055    1.6214    0.1749 C   0  0  0  0  0  0  0  0  0  0  0  0
   -3.9355    2.7294   -0.4655 F   0  0  0  0  0  0  0  0  0  0  0  0
   -2.5770    0.8330   -0.4764 C   0  0  0  0  0  0  0  0  0  0  0  0
   -0.0271   -0.8182   -1.2200 C   0  0  0  0  0  0  0  0  0  0  0  0
    0.8336   -1.7071   -1.9154 C   0  0  0  0  0  0  0  0  0  0  0  0
    0.5139   -3.0735   -2.0072 C   0  0  0  0  0  0  0  0  0  0  0  0
    1.3753   -4.0381   -2.7013 C   0  0  0  0  0  0  0  0  0  0  0  0
    1.8239   -3.8227   -4.0007 C   0  0  0  0  0  0  0  0  0  0  0  0
    2.5929   -4.7648   -4.6595 C   0  0  0  0  0  0  0  0  0  0  0  0
    2.9465   -5.9570   -4.0378 C   0  0  0  0  0  0  0  0  0  0  0  0
    3.8612   -7.2808   -4.7493 S   0  0  0  0  0  0  0  0  0  0  0  0
    4.3902   -6.6651   -6.3836 C   0  0  0  0  0  0  0  0  0  0  0  0
    5.5709   -5.7175   -6.2916 C   0  0  0  0  0  0  0  0  0  0  0  0
    2.5058   -6.1497   -2.7260 C   0  0  0  0  0  0  0  0  0  0  0  0
    1.7366   -5.2241   -2.0623 C   0  0  0  0  0  0  0  0  0  0  0  0
    2.8436   -7.2866   -2.0867 F   0  0  0  0  0  0  0  0  0  0  0  0
   -0.6550   -3.4826   -1.3778 C   0  0  0  0  0  0  0  0  0  0  0  0
   -1.2966   -5.1107   -1.3521 S   0  0  0  0  0  0  0  0  0  0  0  0
    2.0040   -1.0470   -2.3744 C   0  0  0  0  0  0  0  0  0  0  0  0
    2.0479    0.2772   -2.0498 C   0  0  0  0  0  0  0  0  0  0  0  0
    0.6215    0.7962   -1.1759 S   0  0  0  0  0  0  0  0  0  0  0  0
    3.1036    1.2148   -2.2797 C   0  0  0  0  0  0  0  0  0  0  0  0
    4.1544    1.1211   -3.1438 C   0  0  0  0  0  0  0  0  0  0  0  0
    5.0666    2.2050   -3.0503 C   0  0  0  0  0  0  0  0  0  0  0  0
    6.2599    2.4119   -3.7654 C   0  0  0  0  0  0  0  0  0  0  0  0
    6.7150    1.4799   -4.8042 C   0  0  0  0  0  0  0  0  0  0  0  0
    7.0888    1.9582   -6.0598 C   0  0  0  0  0  0  0  0  0  0  0  0
    7.4949    1.0921   -7.0507 C   0  0  0  0  0  0  0  0  0  0  0  0
    7.5507   -0.2832   -6.8341 C   0  0  0  0  0  0  0  0  0  0  0  0
    8.1230   -1.2877   -8.1727 S   0  0  0  0  0  0  0  0  0  0  0  0
    7.0169   -2.7450   -8.1216 C   0  0  0  0  0  0  0  0  0  0  0  0
    5.5577   -2.3518   -8.2441 C   0  0  0  0  0  0  0  0  0  0  0  0
    7.2032   -0.7444   -5.5683 C   0  0  0  0  0  0  0  0  0  0  0  0
    7.2602   -2.0631   -5.2702 F   0  0  0  0  0  0  0  0  0  0  0  0
    6.7831    0.1105   -4.5689 C   0  0  0  0  0  0  0  0  0  0  0  0
    6.9823    3.5558   -3.4566 C   0  0  0  0  0  0  0  0  0  0  0  0
    6.5688    4.4959   -2.4804 C   0  0  0  0  0  0  0  0  0  0  0  0
    5.3695    4.3006   -1.7793 C   0  0  0  0  0  0  0  0  0  0  0  0
    4.9192    5.2484   -0.7528 C   0  0  0  0  0  0  0  0  0  0  0  0
    5.7645    5.6378    0.2853 C   0  0  0  0  0  0  0  0  0  0  0  0
    5.3280    6.5174    1.2518 C   0  0  0  0  0  0  0  0  0  0  0  0
    4.0432    7.0577    1.2167 C   0  0  0  0  0  0  0  0  0  0  0  0
    3.6267    8.2202    2.4819 S   0  0  0  0  0  0  0  0  0  0  0  0
    1.8681    7.8798    2.8588 C   0  0  0  0  0  0  0  0  0  0  0  0
    1.6436    6.4417    3.2795 C   0  0  0  0  0  0  0  0  0  0  0  0
    3.2193    6.6775    0.1617 C   0  0  0  0  0  0  0  0  0  0  0  0
    3.6334    5.7754   -0.7975 C   0  0  0  0  0  0  0  0  0  0  0  0
    1.9770    7.1909    0.0314 F   0  0  0  0  0  0  0  0  0  0  0  0
    4.6466    3.1598   -2.0898 C   0  0  0  0  0  0  0  0  0  0  0  0
    3.1595    2.6800   -1.3221 S   0  0  0  0  0  0  0  0  0  0  0  0
    7.4836    5.5710   -2.3576 C   0  0  0  0  0  0  0  0  0  0  0  0
    8.5784    5.4512   -3.1594 C   0  0  0  0  0  0  0  0  0  0  0  0
    8.5226    4.0042   -4.1480 S   0  0  0  0  0  0  0  0  0  0  0  0
    9.6874    6.3445   -3.2384 C   0  0  0  0  0  0  0  0  0  0  0  0
   10.8425    6.1970   -3.9445 C   0  0  0  0  0  0  0  0  0  0  0  0
   11.7532    7.2728   -3.7734 C   0  0  0  0  0  0  0  0  0  0  0  0
   13.0242    7.4315   -4.3468 C   0  0  0  0  0  0  0  0  0  0  0  0
   13.5657    6.4534   -5.2978 C   0  0  0  0  0  0  0  0  0  0  0  0
   12.8305    6.0509   -6.4120 C   0  0  0  0  0  0  0  0  0  0  0  0
   13.3610    5.1563   -7.3160 C   0  0  0  0  0  0  0  0  0  0  0  0
   14.6330    4.6131   -7.1404 C   0  0  0  0  0  0  0  0  0  0  0  0
   15.1834    3.4440   -8.3467 S   0  0  0  0  0  0  0  0  0  0  0  0
   16.9686    3.8003   -8.5426 C   0  0  0  0  0  0  0  0  0  0  0  0
   17.2214    5.2389   -8.9461 C   0  0  0  0  0  0  0  0  0  0  0  0
   15.3407    4.9989   -6.0061 C   0  0  0  0  0  0  0  0  0  0  0  0
   16.5587    4.4792   -5.7374 F   0  0  0  0  0  0  0  0  0  0  0  0
   14.8337    5.9154   -5.1076 C   0  0  0  0  0  0  0  0  0  0  0  0
   13.7371    8.5636   -3.9764 C   0  0  0  0  0  0  0  0  0  0  0  0
   13.2262    9.5508   -3.0999 C   0  0  0  0  0  0  0  0  0  0  0  0
   11.9481    9.4031   -2.5417 C   0  0  0  0  0  0  0  0  0  0  0  0
   11.3612   10.4228   -1.6632 C   0  0  0  0  0  0  0  0  0  0  0  0
   10.8081   10.0799   -0.4338 C   0  0  0  0  0  0  0  0  0  0  0  0
   10.2300   11.0323    0.3836 C   0  0  0  0  0  0  0  0  0  0  0  0
   10.1780   12.3661   -0.0056 C   0  0  0  0  0  0  0  0  0  0  0  0
    9.4666   13.6745    0.9280 S   0  0  0  0  0  0  0  0  0  0  0  0
    8.6671   12.8106    2.3318 C   0  0  0  0  0  0  0  0  0  0  0  0
    7.8857   13.8265    3.1435 C   0  0  0  0  0  0  0  0  0  0  0  0
   10.7433   12.6969   -1.2398 C   0  0  0  0  0  0  0  0  0  0  0  0
   11.3254   11.7587   -2.0605 C   0  0  0  0  0  0  0  0  0  0  0  0
   10.7135   13.9819   -1.6485 F   0  0  0  0  0  0  0  0  0  0  0  0
   11.2530    8.2511   -2.8793 C   0  0  0  0  0  0  0  0  0  0  0  0
    9.6585    7.8329   -2.3097 S   0  0  0  0  0  0  0  0  0  0  0  0
   14.1659   10.6044   -2.8909 C   0  0  0  0  0  0  0  0  0  0  0  0
   15.3057   10.4377   -3.5907 C   0  0  0  0  0  0  0  0  0  0  0  0
   15.3304    8.9940   -4.5444 S   0  0  0  0  0  0  0  0  0  0  0  0
   -6.7174    0.9000    5.1053 H   0  0  0  0  0  0  0  0  0  0  0  0
   -7.8584   -0.5190    6.9777 H   0  0  0  0  0  0  0  0  0  0  0  0
   -8.4893   -4.8452    7.5813 H   0  0  0  0  0  0  0  0  0  0  0  0
   -8.2691   -4.9247    9.9975 H   0  0  0  0  0  0  0  0  0  0  0  0
   -7.9255   -5.0826   12.0932 H   0  0  0  0  0  0  0  0  0  0  0  0
   -7.5937   -4.1249   13.5422 H   0  0  0  0  0  0  0  0  0  0  0  0
   -5.5054   -4.4017   12.1867 H   0  0  0  0  0  0  0  0  0  0  0  0
   -5.9894   -2.7052   12.2848 H   0  0  0  0  0  0  0  0  0  0  0  0
   -6.2886   -3.6234   10.8085 H   0  0  0  0  0  0  0  0  0  0  0  0
  -10.2060   -0.9286    7.8553 H   0  0  0  0  0  0  0  0  0  0  0  0
   -9.7675   -0.8816    1.3762 H   0  0  0  0  0  0  0  0  0  0  0  0
   -9.1874   -0.8818   -1.0126 H   0  0  0  0  0  0  0  0  0  0  0  0
   -6.8583   -4.7875   -2.9179 H   0  0  0  0  0  0  0  0  0  0  0  0
   -7.4093   -4.0725   -4.4396 H   0  0  0  0  0  0  0  0  0  0  0  0
   -9.2602   -5.2888   -2.3167 H   0  0  0  0  0  0  0  0  0  0  0  0
   -9.7839   -4.5309   -3.8233 H   0  0  0  0  0  0  0  0  0  0  0  0
   -8.8382   -6.0242   -3.8647 H   0  0  0  0  0  0  0  0  0  0  0  0
   -8.0749   -4.7989    1.7398 H   0  0  0  0  0  0  0  0  0  0  0  0
  -10.6018   -5.1769    2.2806 H   0  0  0  0  0  0  0  0  0  0  0  0
  -10.9566  -10.3291    3.2438 H   0  0  0  0  0  0  0  0  0  0  0  0
   -9.3097   -8.8383    1.2302 H   0  0  0  0  0  0  0  0  0  0  0  0
   -7.3077  -10.4174    0.7447 H   0  0  0  0  0  0  0  0  0  0  0  0
   -7.8971  -11.8654   -1.1567 H   0  0  0  0  0  0  0  0  0  0  0  0
   -7.4576  -10.0220   -5.6764 H   0  0  0  0  0  0  0  0  0  0  0  0
   -7.4346  -11.7510   -6.0681 H   0  0  0  0  0  0  0  0  0  0  0  0
   -5.4205  -10.3321   -4.2387 H   0  0  0  0  0  0  0  0  0  0  0  0
   -5.4276  -12.0606   -4.6042 H   0  0  0  0  0  0  0  0  0  0  0  0
   -5.1022  -10.8840   -5.8842 H   0  0  0  0  0  0  0  0  0  0  0  0
   -6.9033   -7.1152   -1.9475 H   0  0  0  0  0  0  0  0  0  0  0  0
   -7.4385   -4.5263    4.4683 H   0  0  0  0  0  0  0  0  0  0  0  0
   -6.7157   -3.2459    6.4338 H   0  0  0  0  0  0  0  0  0  0  0  0
   -2.5775   -1.3584    7.9628 H   0  0  0  0  0  0  0  0  0  0  0  0
   -2.0998   -2.6267    6.8185 H   0  0  0  0  0  0  0  0  0  0  0  0
   -3.7320   -1.7011    5.1411 H   0  0  0  0  0  0  0  0  0  0  0  0
   -4.1960   -0.4448    6.2915 H   0  0  0  0  0  0  0  0  0  0  0  0
   -2.5596   -0.4646    5.6185 H   0  0  0  0  0  0  0  0  0  0  0  0
   -3.4822   -6.1328    4.1062 H   0  0  0  0  0  0  0  0  0  0  0  0
   -3.7343   -4.5753    2.1400 H   0  0  0  0  0  0  0  0  0  0  0  0
   -3.4083   -2.7497    0.4103 H   0  0  0  0  0  0  0  0  0  0  0  0
   -2.0873   -1.4624    1.9454 H   0  0  0  0  0  0  0  0  0  0  0  0
   -3.7986   -0.0769    3.0506 H   0  0  0  0  0  0  0  0  0  0  0  0
   -5.9700    3.4550    0.4056 H   0  0  0  0  0  0  0  0  0  0  0  0
   -7.2376    3.1532    1.6091 H   0  0  0  0  0  0  0  0  0  0  0  0
   -6.1580    1.0790   -0.3784 H   0  0  0  0  0  0  0  0  0  0  0  0
   -7.7272    1.8767   -0.4654 H   0  0  0  0  0  0  0  0  0  0  0  0
   -7.3721    0.7605    0.8619 H   0  0  0  0  0  0  0  0  0  0  0  0
   -2.2600    1.1170   -1.4678 H   0  0  0  0  0  0  0  0  0  0  0  0
    1.5406   -2.9184   -4.5187 H   0  0  0  0  0  0  0  0  0  0  0  0
    2.9038   -4.5638   -5.6720 H   0  0  0  0  0  0  0  0  0  0  0  0
    3.5305   -6.2203   -6.8832 H   0  0  0  0  0  0  0  0  0  0  0  0
    4.6691   -7.5736   -6.9177 H   0  0  0  0  0  0  0  0  0  0  0  0
    5.3099   -4.8100   -5.7517 H   0  0  0  0  0  0  0  0  0  0  0  0
    5.9047   -5.4490   -7.2920 H   0  0  0  0  0  0  0  0  0  0  0  0
    6.3953   -6.1975   -5.7699 H   0  0  0  0  0  0  0  0  0  0  0  0
    1.4383   -5.4256   -1.0459 H   0  0  0  0  0  0  0  0  0  0  0  0
    2.8043   -1.5534   -2.8822 H   0  0  0  0  0  0  0  0  0  0  0  0
    4.2657    0.3099   -3.8394 H   0  0  0  0  0  0  0  0  0  0  0  0
    7.0315    3.0149   -6.2683 H   0  0  0  0  0  0  0  0  0  0  0  0
    7.7734    1.4666   -8.0232 H   0  0  0  0  0  0  0  0  0  0  0  0
    7.2162   -3.3068   -7.2119 H   0  0  0  0  0  0  0  0  0  0  0  0
    7.3388   -3.3328   -8.9814 H   0  0  0  0  0  0  0  0  0  0  0  0
    5.2371   -1.7776   -7.3765 H   0  0  0  0  0  0  0  0  0  0  0  0
    5.4004   -1.7466   -9.1343 H   0  0  0  0  0  0  0  0  0  0  0  0
    4.9379   -3.2434   -8.3158 H   0  0  0  0  0  0  0  0  0  0  0  0
    6.5497   -0.3008   -3.5989 H   0  0  0  0  0  0  0  0  0  0  0  0
    6.7580    5.2210    0.3497 H   0  0  0  0  0  0  0  0  0  0  0  0
    5.9796    6.8058    2.0619 H   0  0  0  0  0  0  0  0  0  0  0  0
    1.2612    8.1536    1.9987 H   0  0  0  0  0  0  0  0  0  0  0  0
    1.6544    8.5673    3.6774 H   0  0  0  0  0  0  0  0  0  0  0  0
    1.8595    5.7575    2.4610 H   0  0  0  0  0  0  0  0  0  0  0  0
    0.6049    6.3056    3.5731 H   0  0  0  0  0  0  0  0  0  0  0  0
    2.2825    6.1856    4.1223 H   0  0  0  0  0  0  0  0  0  0  0  0
    2.9526    5.5210   -1.5948 H   0  0  0  0  0  0  0  0  0  0  0  0
    7.3352    6.4093   -1.7007 H   0  0  0  0  0  0  0  0  0  0  0  0
   11.0455    5.3333   -4.5524 H   0  0  0  0  0  0  0  0  0  0  0  0
   11.8516    6.4710   -6.5857 H   0  0  0  0  0  0  0  0  0  0  0  0
   12.7966    4.8594   -8.1862 H   0  0  0  0  0  0  0  0  0  0  0  0
   17.4870    3.5366   -7.6234 H   0  0  0  0  0  0  0  0  0  0  0  0
   17.2721    3.1115   -9.3312 H   0  0  0  0  0  0  0  0  0  0  0  0
   18.2835    5.3845   -9.1322 H   0  0  0  0  0  0  0  0  0  0  0  0
   16.9147    5.9242   -8.1580 H   0  0  0  0  0  0  0  0  0  0  0  0
   16.6701    5.4843   -9.8514 H   0  0  0  0  0  0  0  0  0  0  0  0
   15.4267    6.1750   -4.2447 H   0  0  0  0  0  0  0  0  0  0  0  0
   10.8465    9.0550   -0.0982 H   0  0  0  0  0  0  0  0  0  0  0  0
    9.8207   10.7251    1.3317 H   0  0  0  0  0  0  0  0  0  0  0  0
    8.0055   12.0481    1.9211 H   0  0  0  0  0  0  0  0  0  0  0  0
    9.4483   12.3485    2.9361 H   0  0  0  0  0  0  0  0  0  0  0  0
    7.3989   13.3332    3.9819 H   0  0  0  0  0  0  0  0  0  0  0  0
    8.5482   14.5985    3.5279 H   0  0  0  0  0  0  0  0  0  0  0  0
    7.1252   14.3008    2.5277 H   0  0  0  0  0  0  0  0  0  0  0  0
   11.7214   12.0673   -3.0154 H   0  0  0  0  0  0  0  0  0  0  0  0
   13.9862   11.4343   -2.2321 H   0  0  0  0  0  0  0  0  0  0  0  0
   16.1662   11.0776   -3.6114 H   0  0  0  0  0  0  0  0  0  0  0  0
  1  2  2  0  0  0  0
  2  3  1  0  0  0  0
  3  4  2  0  0  0  0
  4  5  1  0  0  0  0
  5  6  2  0  0  0  0
  6  7  1  0  0  0  0
  7  8  2  0  0  0  0
  8  9  1  0  0  0  0
  9 10  1  0  0  0  0
 10 11  1  0  0  0  0
  8 12  1  0  0  0  0
 12 13  1  0  0  0  0
 12 14  2  0  0  0  0
  4 15  1  0  0  0  0
 15 16  2  0  0  0  0
 16 17  1  0  0  0  0
 17 18  1  0  0  0  0
 18 19  2  0  0  0  0
 19 20  1  0  0  0  0
 20 21  2  0  0  0  0
 21 22  1  0  0  0  0
 22 23  1  0  0  0  0
 23 24  1  0  0  0  0
 21 25  1  0  0  0  0
 25 26  2  0  0  0  0
 25 27  1  0  0  0  0
 17 28  2  0  0  0  0
 28 29  1  0  0  0  0
 16 30  1  0  0  0  0
 30 31  2  0  0  0  0
 31 32  1  0  0  0  0
 31 33  1  0  0  0  0
 33 34  2  0  0  0  0
 34 35  1  0  0  0  0
 35 36  2  0  0  0  0
 35 37  1  0  0  0  0
 37 38  1  0  0  0  0
 37 39  1  0  0  0  0
 37 40  1  0  0  0  0
 34 41  1  0  0  0  0
 41 42  1  0  0  0  0
 42 43  2  0  0  0  0
 43 44  1  0  0  0  0
 44 45  2  0  0  0  0
 45 46  1  0  0  0  0
 46 47  2  0  0  0  0
 47 48  1  0  0  0  0
 48 49  2  0  0  0  0
 49 50  1  0  0  0  0
 50 51  2  0  0  0  0
 51 52  1  0  0  0  0
 52 53  1  0  0  0  0
 53 54  1  0  0  0  0
 51 55  1  0  0  0  0
 55 56  1  0  0  0  0
 55 57  2  0  0  0  0
 47 58  1  0  0  0  0
 58 59  2  0  0  0  0
 59 60  1  0  0  0  0
 60 61  1  0  0  0  0
 61 62  2  0  0  0  0
 62 63  1  0  0  0  0
 63 64  2  0  0  0  0
 64 65  1  0  0  0  0
 65 66  1  0  0  0  0
 66 67  1  0  0  0  0
 64 68  1  0  0  0  0
 68 69  2  0  0  0  0
 68 70  1  0  0  0  0
 60 71  2  0  0  0  0
 71 72  1  0  0  0  0
 59 73  1  0  0  0  0
 73 74  2  0  0  0  0
 74 75  1  0  0  0  0
 74 76  1  0  0  0  0
 76 77  2  0  0  0  0
 77 78  1  0  0  0  0
 78 79  2  0  0  0  0
 79 80  1  0  0  0  0
 80 81  2  0  0  0  0
 81 82  1  0  0  0  0
 82 83  2  0  0  0  0
 83 84  1  0  0  0  0
 84 85  1  0  0  0  0
 85 86  1  0  0  0  0
 83 87  1  0  0  0  0
 87 88  1  0  0  0  0
 87 89  2  0  0  0  0
 79 90  1  0  0  0  0
 90 91  2  0  0  0  0
 91 92  1  0  0  0  0
 92 93  1  0  0  0  0
 93 94  2  0  0  0  0
 94 95  1  0  0  0  0
 95 96  2  0  0  0  0
 96 97  1  0  0  0  0
 97 98  1  0  0  0  0
 98 99  1  0  0  0  0
 96100  1  0  0  0  0
100101  2  0  0  0  0
100102  1  0  0  0  0
 92103  2  0  0  0  0
103104  1  0  0  0  0
 91105  1  0  0  0  0
105106  2  0  0  0  0
106107  1  0  0  0  0
106108  1  0  0  0  0
108109  2  0  0  0  0
109110  1  0  0  0  0
110111  2  0  0  0  0
111112  1  0  0  0  0
112113  2  0  0  0  0
113114  1  0  0  0  0
114115  2  0  0  0  0
115116  1  0  0  0  0
116117  1  0  0  0  0
117118  1  0  0  0  0
115119  1  0  0  0  0
119120  1  0  0  0  0
119121  2  0  0  0  0
111122  1  0  0  0  0
122123  2  0  0  0  0
123124  1  0  0  0  0
124125  1  0  0  0  0
125126  2  0  0  0  0
126127  1  0  0  0  0
127128  2  0  0  0  0
128129  1  0  0  0  0
129130  1  0  0  0  0
130131  1  0  0  0  0
128132  1  0  0  0  0
132133  2  0  0  0  0
132134  1  0  0  0  0
124135  2  0  0  0  0
135136  1  0  0  0  0
123137  1  0  0  0  0
137138  2  0  0  0  0
138139  1  0  0  0  0
138140  1  0  0  0  0
140141  2  0  0  0  0
141142  1  0  0  0  0
142143  2  0  0  0  0
143144  1  0  0  0  0
144145  2  0  0  0  0
145146  1  0  0  0  0
146147  2  0  0  0  0
147148  1  0  0  0  0
148149  1  0  0  0  0
149150  1  0  0  0  0
147151  1  0  0  0  0
151152  1  0  0  0  0
151153  2  0  0  0  0
143154  1  0  0  0  0
154155  2  0  0  0  0
155156  1  0  0  0  0
156157  1  0  0  0  0
157158  2  0  0  0  0
158159  1  0  0  0  0
159160  2  0  0  0  0
160161  1  0  0  0  0
161162  1  0  0  0  0
162163  1  0  0  0  0
160164  1  0  0  0  0
164165  2  0  0  0  0
164166  1  0  0  0  0
156167  2  0  0  0  0
167168  1  0  0  0  0
155169  1  0  0  0  0
169170  2  0  0  0  0
170171  1  0  0  0  0
 29  1  1  0  0  0  0
 43 33  1  0  0  0  0
 72 44  1  0  0  0  0
104 76  1  0  0  0  0
136108  1  0  0  0  0
168140  1  0  0  0  0
 28  3  1  0  0  0  0
 71 46  1  0  0  0  0
103 78  1  0  0  0  0
135110  1  0  0  0  0
167142  1  0  0  0  0
 14  5  1  0  0  0  0
 32 15  1  0  0  0  0
 57 48  1  0  0  0  0
 75 58  1  0  0  0  0
 89 80  1  0  0  0  0
107 90  1  0  0  0  0
121112  1  0  0  0  0
139122  1  0  0  0  0
153144  1  0  0  0  0
171154  1  0  0  0  0
 26 18  1  0  0  0  0
 69 61  1  0  0  0  0
101 93  1  0  0  0  0
133125  1  0  0  0  0
165157  1  0  0  0  0
  1172  1  0  0  0  0
  2173  1  0  0  0  0
  6174  1  0  0  0  0
  7175  1  0  0  0  0
 10176  1  0  0  0  0
 10177  1  0  0  0  0
 11178  1  0  0  0  0
 11179  1  0  0  0  0
 11180  1  0  0  0  0
 14181  1  0  0  0  0
 19182  1  0  0  0  0
 20183  1  0  0  0  0
 23184  1  0  0  0  0
 23185  1  0  0  0  0
 24186  1  0  0  0  0
 24187  1  0  0  0  0
 24188  1  0  0  0  0
 26189  1  0  0  0  0
 30190  1  0  0  0  0
 42191  1  0  0  0  0
 45192  1  0  0  0  0
 49193  1  0  0  0  0
 50194  1  0  0  0  0
 53195  1  0  0  0  0
 53196  1  0  0  0  0
 54197  1  0  0  0  0
 54198  1  0  0  0  0
 54199  1  0  0  0  0
 57200  1  0  0  0  0
 62201  1  0  0  0  0
 63202  1  0  0  0  0
 66203  1  0  0  0  0
 66204  1  0  0  0  0
 67205  1  0  0  0  0
 67206  1  0  0  0  0
 67207  1  0  0  0  0
 69208  1  0  0  0  0
 73209  1  0  0  0  0
 77210  1  0  0  0  0
 81211  1  0  0  0  0
 82212  1  0  0  0  0
 85213  1  0  0  0  0
 85214  1  0  0  0  0
 86215  1  0  0  0  0
 86216  1  0  0  0  0
 86217  1  0  0  0  0
 89218  1  0  0  0  0
 94219  1  0  0  0  0
 95220  1  0  0  0  0
 98221  1  0  0  0  0
 98222  1  0  0  0  0
 99223  1  0  0  0  0
 99224  1  0  0  0  0
 99225  1  0  0  0  0
101226  1  0  0  0  0
105227  1  0  0  0  0
109228  1  0  0  0  0
113229  1  0  0  0  0
114230  1  0  0  0  0
117231  1  0  0  0  0
117232  1  0  0  0  0
118233  1  0  0  0  0
118234  1  0  0  0  0
118235  1  0  0  0  0
121236  1  0  0  0  0
126237  1  0  0  0  0
127238  1  0  0  0  0
130239  1  0  0  0  0
130240  1  0  0  0  0
131241  1  0  0  0  0
131242  1  0  0  0  0
131243  1  0  0  0  0
133244  1  0  0  0  0
137245  1  0  0  0  0
141246  1  0  0  0  0
145247  1  0  0  0  0
146248  1  0  0  0  0
149249  1  0  0  0  0
149250  1  0  0  0  0
150251  1  0  0  0  0
150252  1  0  0  0  0
150253  1  0  0  0  0
153254  1  0  0  0  0
158255  1  0  0  0  0
159256  1  0  0  0  0
162257  1  0  0  0  0
162258  1  0  0  0  0
163259  1  0  0  0  0
163260  1  0  0  0  0
163261  1  0  0  0  0
165262  1  0  0  0  0
169263  1  0  0  0  0
170264  1  0  0  0  0
M  END
