264

C         -7.34270        0.03780        4.97700
C         -7.94970       -0.70550        5.92310
C         -8.71090       -1.78630        5.37980
C         -9.37450       -2.81460        6.06490
C         -9.34240       -2.87920        7.53240
C         -8.82050       -4.00190        8.16850
C         -8.68530       -4.04130        9.54180
C         -9.07350       -2.96210       10.32760
S         -8.92820       -2.88980       12.08110
C         -7.61350       -4.10290       12.45250
C         -6.26730       -3.68150       11.89500
C         -9.63890       -1.86310        9.67810
F        -10.05590       -0.81070       10.40860
C         -9.76750       -1.80420        8.30820
C         -9.95540       -3.80960        5.29130
C         -9.89430       -3.82620        3.87580
C         -9.20770       -2.81280        3.19290
C         -8.97090       -2.83730        1.74360
C         -9.26730       -1.73450        0.94410
C         -8.94860       -1.73370       -0.39530
C         -8.29550       -2.81390       -0.99330
S         -7.85900       -2.60450       -2.69040
C         -7.68780       -4.28070       -3.40610
C         -8.97440       -5.07820       -3.34520
C         -8.00000       -3.90050       -0.17740
C         -8.34560       -3.93130        1.15840
F         -7.33570       -4.97810       -0.65840
C         -8.64170       -1.80940        3.96750
S         -7.64710       -0.51000        3.36470
C        -10.52980       -4.97840        3.33490
C        -11.05400       -5.79730        4.28080
S        -10.79980       -5.20250        5.90990
C        -11.57740       -7.14030        4.08210
C        -12.84910       -7.60400        4.37400
C        -14.07640       -6.95710        4.75690
O        -15.03430       -7.53170        5.21560
C        -14.21440       -5.43780        4.43410
F        -15.49950       -5.10480        4.33230
F        -13.67550       -4.64440        5.36710
F        -13.63680       -5.11680        3.26250
S        -12.98460       -9.32400        4.11260
C        -11.37590       -9.39470        3.56290
C        -10.73160       -8.18510        3.60560
C         -9.35910       -7.96180        3.18490
C         -8.79150       -8.29220        1.99800
C         -7.48720       -7.74640        1.82130
C         -6.68020       -7.80130        0.67290
C         -7.04540       -8.66160       -0.45770
C         -7.35440      -10.00600       -0.25240
C         -7.67770      -10.82100       -1.31520
C         -7.73140      -10.32850       -2.61870
S         -8.21210      -11.46070       -3.88810
C         -7.16420      -11.00660       -5.31910
C         -5.68740      -11.07590       -4.98720
C         -7.45650       -8.97670       -2.80100
F         -7.54600       -8.40890       -4.02570
C         -7.09790       -8.15630       -1.75150
C         -5.56030       -6.98090        0.66240
C         -5.19910       -6.17150        1.76710
C         -5.93490       -6.20830        2.96110
C         -5.52100       -5.42780        4.13410
C         -6.42260       -4.61380        4.81560
C         -6.01970       -3.88190        5.91260
C         -4.70930       -3.93270        6.36900
S         -4.27530       -2.97060        7.79640
C         -2.90710       -1.96060        7.11710
C         -3.37950       -1.08820        5.97020
C         -3.81880       -4.76020        5.69250
C         -4.20520       -5.49250        4.58800
F         -2.53780       -4.86400        6.10290
C         -7.08930       -6.97650        2.94130
S         -8.27220       -7.05740        4.21730
C         -4.12140       -5.30780        1.45560
C         -3.64110       -5.46450        0.19180
S         -4.46670       -6.73550       -0.67790
C         -2.65130       -4.59120       -0.37660
C         -2.62600       -3.25370       -0.12700
C         -1.50120       -2.59160       -0.67660
C         -1.19080       -1.22570       -0.59070
C         -2.08520       -0.31440        0.13470
C         -2.50640       -0.61050        1.43160
C         -3.45160        0.17050        2.05930
C         -4.00160        1.28650        1.43130
S         -5.24360        2.17720        2.31850
C         -6.43580        2.69510        1.02970
C         -6.95290        1.52740        0.21420
C         -3.50550        1.62140        0.17490
F         -3.93550        2.72940       -0.46550
C         -2.57700        0.83300       -0.47640
C         -0.02710       -0.81820       -1.22000
C          0.83360       -1.70710       -1.91540
C          0.51390       -3.07350       -2.00720
C          1.37530       -4.03810       -2.70130
C          1.82390       -3.82270       -4.00070
C          2.59290       -4.76480       -4.65950
C          2.94650       -5.95700       -4.03780
S          3.86120       -7.28080       -4.74930
C          4.39020       -6.66510       -6.38360
C          5.57090       -5.71750       -6.29160
C          2.50580       -6.14970       -2.72600
C          1.73660       -5.22410       -2.06230
F          2.84360       -7.28660       -2.08670
C         -0.65500       -3.48260       -1.37780
S         -1.29660       -5.11070       -1.35210
C          2.00400       -1.04700       -2.37440
C          2.04790        0.27720       -2.04980
S          0.62150        0.79620       -1.17590
C          3.10360        1.21480       -2.27970
C          4.15440        1.12110       -3.14380
C          5.06660        2.20500       -3.05030
C          6.25990        2.41190       -3.76540
C          6.71500        1.47990       -4.80420
C          7.08880        1.95820       -6.05980
C          7.49490        1.09210       -7.05070
C          7.55070       -0.28320       -6.83410
S          8.12300       -1.28770       -8.17270
C          7.01690       -2.74500       -8.12160
C          5.55770       -2.35180       -8.24410
C          7.20320       -0.74440       -5.56830
F          7.26020       -2.06310       -5.27020
C          6.78310        0.11050       -4.56890
C          6.98230        3.55580       -3.45660
C          6.56880        4.49590       -2.48040
C          5.36950        4.30060       -1.77930
C          4.91920        5.24840       -0.75280
C          5.76450        5.63780        0.28530
C          5.32800        6.51740        1.25180
C          4.04320        7.05770        1.21670
S          3.62670        8.22020        2.48190
C          1.86810        7.87980        2.85880
C          1.64360        6.44170        3.27950
C          3.21930        6.67750        0.16170
C          3.63340        5.77540       -0.79750
F          1.97700        7.19090        0.03140
C          4.64660        3.15980       -2.08980
S          3.15950        2.68000       -1.32210
C          7.48360        5.57100       -2.35760
C          8.57840        5.45120       -3.15940
S          8.52260        4.00420       -4.14800
C          9.68740        6.34450       -3.23840
C         10.84250        6.19700       -3.94450
C         11.75320        7.27280       -3.77340
C         13.02420        7.43150       -4.34680
C         13.56570        6.45340       -5.29780
C         12.83050        6.05090       -6.41200
C         13.36100        5.15630       -7.31600
C         14.63300        4.61310       -7.14040
S         15.18340        3.44400       -8.34670
C         16.96860        3.80030       -8.54260
C         17.22140        5.23890       -8.94610
C         15.34070        4.99890       -6.00610
F         16.55870        4.47920       -5.73740
C         14.83370        5.91540       -5.10760
C         13.73710        8.56360       -3.97640
C         13.22620        9.55080       -3.09990
C         11.94810        9.40310       -2.54170
C         11.36120       10.42280       -1.66320
C         10.80810       10.07990       -0.43380
C         10.23000       11.03230        0.38360
C         10.17800       12.36610       -0.00560
S          9.46660       13.67450        0.92800
C          8.66710       12.81060        2.33180
C          7.88570       13.82650        3.14350
C         10.74330       12.69690       -1.23980
C         11.32540       11.75870       -2.06050
F         10.71350       13.98190       -1.64850
C         11.25300        8.25110       -2.87930
S          9.65850        7.83290       -2.30970
C         14.16590       10.60440       -2.89090
C         15.30570       10.43770       -3.59070
S         15.33040        8.99400       -4.54440
H         -6.71740        0.90000        5.10530
H         -7.85840       -0.51900        6.97770
H         -8.48930       -4.84520        7.58130
H         -8.26910       -4.92470        9.99750
H         -7.92550       -5.08260       12.09320
H         -7.59370       -4.12490       13.54220
H         -5.50540       -4.40170       12.18670
H         -5.98940       -2.70520       12.28480
H         -6.28860       -3.62340       10.80850
H        -10.20600       -0.92860        7.85530
H         -9.76750       -0.88160        1.37620
H         -9.18740       -0.88180       -1.01260
H         -6.85830       -4.78750       -2.91790
H         -7.40930       -4.07250       -4.43960
H         -9.26020       -5.28880       -2.31670
H         -9.78390       -4.53090       -3.82330
H         -8.83820       -6.02420       -3.86470
H         -8.07490       -4.79890        1.73980
H        -10.60180       -5.17690        2.28060
H        -10.95660      -10.32910        3.24380
H         -9.30970       -8.83830        1.23020
H         -7.30770      -10.41740        0.74470
H         -7.89710      -11.86540       -1.15670
H         -7.45760      -10.02200       -5.67640
H         -7.43460      -11.75100       -6.06810
H         -5.42050      -10.33210       -4.23870
H         -5.42760      -12.06060       -4.60420
H         -5.10220      -10.88400       -5.88420
H         -6.90330       -7.11520       -1.94750
H         -7.43850       -4.52630        4.46830
H         -6.71570       -3.24590        6.43380
H         -2.57750       -1.35840        7.96280
H         -2.09980       -2.62670        6.81850
H         -3.73200       -1.70110        5.14110
H         -4.19600       -0.44480        6.29150
H         -2.55960       -0.46460        5.61850
H         -3.48220       -6.13280        4.10620
H         -3.73430       -4.57530        2.14000
H         -3.40830       -2.74970        0.41030
H         -2.08730       -1.46240        1.94540
H         -3.79860       -0.07690        3.05060
H         -5.97000        3.45500        0.40560
H         -7.23760        3.15320        1.60910
H         -6.15800        1.07900       -0.37840
H         -7.72720        1.87670       -0.46540
H         -7.37210        0.76050        0.86190
H         -2.26000        1.11700       -1.46780
H          1.54060       -2.91840       -4.51870
H          2.90380       -4.56380       -5.67200
H          3.53050       -6.22030       -6.88320
H          4.66910       -7.57360       -6.91770
H          5.30990       -4.81000       -5.75170
H          5.90470       -5.44900       -7.29200
H          6.39530       -6.19750       -5.76990
H          1.43830       -5.42560       -1.04590
H          2.80430       -1.55340       -2.88220
H          4.26570        0.30990       -3.83940
H          7.03150        3.01490       -6.26830
H          7.77340        1.46660       -8.02320
H          7.21620       -3.30680       -7.21190
H          7.33880       -3.33280       -8.98140
H          5.23710       -1.77760       -7.37650
H          5.40040       -1.74660       -9.13430
H          4.93790       -3.24340       -8.31580
H          6.54970       -0.30080       -3.59890
H          6.75800        5.22100        0.34970
H          5.97960        6.80580        2.06190
H          1.26120        8.15360        1.99870
H          1.65440        8.56730        3.67740
H          1.85950        5.75750        2.46100
H          0.60490        6.30560        3.57310
H          2.28250        6.18560        4.12230
H          2.95260        5.52100       -1.59480
H          7.33520        6.40930       -1.70070
H         11.04550        5.33330       -4.55240
H         11.85160        6.47100       -6.58570
H         12.79660        4.85940       -8.18620
H         17.48700        3.53660       -7.62340
H         17.27210        3.11150       -9.33120
H         18.28350        5.38450       -9.13220
H         16.91470        5.92420       -8.15800
H         16.67010        5.48430       -9.85140
H         15.42670        6.17500       -4.24470
H         10.84650        9.05500       -0.09820
H          9.82070       10.72510        1.33170
H          8.00550       12.04810        1.92110
H          9.44830       12.34850        2.93610
H          7.39890       13.33320        3.98190
H          8.54820       14.59850        3.52790
H          7.12520       14.30080        2.52770
H         11.72140       12.06730       -3.01540
H         13.98620       11.43430       -2.23210
H         16.16620       11.07760       -3.61140
