173

C          7.31510      -12.45050       11.20710
C          7.22950      -11.25860       11.83360
C          6.79140      -10.21200       10.97170
C          6.61740       -8.85180       11.27230
C          6.90130       -8.31720       12.59520
S          8.44880       -8.56320       13.35060
C          8.00620       -7.63760       14.74440
C          8.97530       -7.39910       15.84890
C          9.92580       -6.24950       15.50620
C          6.73400       -7.16740       14.61360
Cl         5.94200       -6.20660       15.79410
C          6.10320       -7.55220       13.39940
Cl         4.47360       -7.15420       13.04860
C          6.19480       -8.02690       10.23710
C          5.93420       -8.50500        8.92890
C          6.08700       -9.87030        8.63330
C          5.82280      -10.38400        7.29950
S          6.58390       -9.68470        5.89970
C          5.79890      -10.78760        4.82180
C          5.98830      -10.68250        3.34920
C          5.19260       -9.50480        2.78110
C          4.99430      -11.63770        5.51950
C          5.00980      -11.41730        6.92390
Cl         4.02130      -12.31060        8.00060
Cl         4.04210      -12.86830        4.79630
C          6.52010      -10.69240        9.66700
S          6.85820      -12.39460        9.54260
C          5.52670       -7.46440        8.05980
C          5.50030       -6.23760        8.65460
S          5.96990       -6.30450       10.33930
C          5.12420       -4.99990        8.05790
C          4.97950       -3.78820        8.67100
C          4.56050       -2.75960        7.79640
C          4.27010       -1.41660        8.11070
C          4.35160       -0.92990        9.47800
S          3.52450       -1.74630       10.77360
C          4.07540       -0.60610       11.95150
C          3.66090       -0.71070       13.37720
C          2.29570       -0.05590       13.60160
C          4.84710        0.34980       11.36050
Cl         5.57620        1.65150       12.20840
C          5.00890        0.16850        9.96050
Cl         6.01390        1.18720        9.01720
C          3.87690       -0.59840        7.06070
C          3.77940       -1.06370        5.72190
C          4.02420       -2.41750        5.41570
C          3.80940       -2.91700        4.07090
S          5.02210       -3.83320        3.22910
C          4.03280       -3.99100        1.81780
C          4.51860       -4.72540        0.61800
C          4.84930       -6.18100        0.94650
C          2.82810       -3.38060        2.01020
C          2.69940       -2.76580        3.28360
Cl         1.25050       -2.00540        3.78940
Cl         1.57420       -3.33270        0.84400
C          4.42640       -3.22850        6.46360
S          4.77060       -4.92970        6.34580
C          3.40400       -0.04720        4.82710
C          3.13340        1.14850        5.44830
S          3.39540        1.06930        7.18200
C          2.65310        2.29700        4.78540
C          2.38950        2.43730        3.42510
C          1.83410        3.72470        3.20320
C          1.77200        4.41840        4.48420
O          1.38680        5.51850        4.79380
N          2.29670        3.47690        5.38500
C          1.52750        3.83200        1.85700
O          1.90380        2.66470        1.23670
C          2.43730        1.76110        2.15610
O          2.82660        0.67640        1.81180
C          0.87210        4.89290        1.20870
C          0.45370        5.04810       -0.08770
C          0.64560        4.25960       -1.24030
C          0.02580        4.48770       -2.47590
C          0.47330        3.51450       -3.39620
C          1.42980        2.64940       -2.70880
O          2.07250        1.70260       -3.09160
N          1.46830        3.17560       -1.41610
C         -0.19460        3.70680       -4.59560
O         -1.03880        4.77860       -4.45130
C         -0.94330        5.31280       -3.15370
O         -1.59840        6.26050       -2.82350
C         -0.03740        2.94790       -5.76640
C         -0.71000        2.94580       -6.96080
C         -1.84910        3.64710       -7.40140
C         -2.48060        3.42490       -8.62900
C         -3.63780        4.23470       -8.70010
C         -3.71810        5.01270       -7.46480
O         -4.52320        5.82680       -7.08340
N         -2.59690        4.59340       -6.74480
C         -4.27250        3.95550       -9.89690
O         -3.54900        3.01930      -10.58080
C         -2.42250        2.64300       -9.84450
O         -1.64400        1.82570      -10.25150
C         -5.48320        4.45910      -10.41050
C         -6.00940        4.04340      -11.59490
C         -7.24280        4.48160      -12.13580
C         -8.15580        5.36570      -11.61390
C         -9.28870        5.55740      -12.43190
C        -10.38810        6.40910      -12.20730
C        -10.43020        7.29620      -11.05830
S        -11.79280        7.32340       -9.97900
C        -11.08760        8.55880       -8.99610
C        -11.76480        9.04640       -7.76370
C        -11.39390        8.17960       -6.55750
C         -9.86690        8.91970       -9.48660
Cl        -8.86940       10.12420       -8.78120
C         -9.49100        8.20710      -10.65610
Cl        -8.03910        8.53710      -11.51030
C        -11.41140        6.37420      -13.14430
C        -11.37110        5.56120      -14.30330
C        -10.26750        4.72660      -14.53940
C        -10.19190        3.87750      -15.71930
S        -10.29680        4.53950      -17.32340
C        -10.10510        2.98630      -18.06170
C        -10.04680        2.83450      -19.54140
C         -8.61590        3.01880      -20.05300
C         -9.96390        2.02290      -17.10800
C        -10.01490        2.52350      -15.77890
Cl        -9.94140        1.50090      -14.40580
Cl        -9.75680        0.35580      -17.45580
C         -9.24780        4.74550      -13.59700
S         -7.77410        3.83200      -13.67640
C        -12.54310        5.72090      -15.09650
C        -13.40830        6.61630      -14.57570
S        -12.87140        7.32340      -13.09340
H          7.61920      -13.39090       11.62340
H          7.46600      -11.11350       12.87130
H          9.55480       -8.30710       16.02520
H          8.41860       -7.15690       16.75590
H          9.36510       -5.33300       15.34110
H         10.48770       -6.48090       14.60440
H         10.62510       -6.08850       16.32200
H          7.04800      -10.54280        3.12680
H          5.65350      -11.61240        2.88730
H          4.13190       -9.63610        2.97910
H          5.34080       -9.43710        1.70710
H          5.51930       -8.57380        3.23840
H          5.25400       -7.61130        7.03060
H          5.16530       -3.64970        9.72040
H          3.61000       -1.76270       13.66320
H          4.41060       -0.21480       13.99640
H          1.53800       -0.54400       12.99320
H          2.01070       -0.13880       14.64670
H          2.33320        0.99670       13.33290
H          3.74360       -4.67990       -0.14830
H          5.41350       -4.23230        0.22980
H          5.63540       -6.22810        1.69640
H          3.97050       -6.69200        1.33170
H          5.18780       -6.69640        0.05180
H          3.33620       -0.17110        3.76150
H          2.38110        3.65460        6.37490
H          0.62280        5.69010        1.89720
H         -0.14300        5.92890       -0.28940
H          2.00040        2.74920       -0.66920
H          0.76300        2.22580       -5.66440
H         -0.34920        2.24720       -7.70550
H         -2.35420        4.96650       -5.83580
H         -5.97760        5.19030       -9.78940
H         -5.45600        3.31420      -12.17180
H         -8.02540        5.84990      -10.66450
H        -12.84580        9.02290       -7.91080
H        -11.45710       10.07740       -7.57990
H        -11.88830        8.55270       -5.66480
H        -10.31950        8.19950       -6.39480
H        -11.70190        7.15000       -6.72340
H        -10.69860        3.57460      -20.00860
H        -10.40250        1.83660      -19.80490
H         -7.95680        2.28240      -19.60070
H         -8.58720        2.89640      -21.13220
H         -8.25070        4.01230      -19.80380
H        -12.71800        5.18320      -16.00990
H        -14.35800        6.91820      -14.97220
