
  xtb     03082205123D
 energy: -367.856424320369 gnorm: 0.000236127548 xtb: 6.4.1 (unknown)
215235  0     0  0            999 V2000
    4.3616   -8.6524   10.8914 C   0  0  0  0  0  0  0  0  0  0  0  0
    2.7485   -8.1665   11.1429 S   0  0  0  0  0  0  0  0  0  0  0  0
    2.1750   -9.0184    9.7417 C   0  0  0  0  0  0  0  0  0  0  0  0
    3.2489   -9.6246    9.0755 C   0  0  0  0  0  0  0  0  0  0  0  0
    4.4987   -9.4212    9.7532 C   0  0  0  0  0  0  0  0  0  0  0  0
    5.6896   -9.9611    9.2262 C   0  0  0  0  0  0  0  0  0  0  0  0
    5.6593  -10.6491    8.0386 C   0  0  0  0  0  0  0  0  0  0  0  0
    6.8528  -11.1376    7.5927 O   0  0  0  0  0  0  0  0  0  0  0  0
    6.8912  -11.8514    6.3819 C   0  0  0  0  0  0  0  0  0  0  0  0
    4.4372  -10.7878    7.3335 C   0  0  0  0  0  0  0  0  0  0  0  0
    3.2679  -10.2910    7.8352 C   0  0  0  0  0  0  0  0  0  0  0  0
    0.7882   -8.9759    9.4580 C   0  0  0  0  0  0  0  0  0  0  0  0
    0.1173   -9.8786    8.6939 C   0  0  0  0  0  0  0  0  0  0  0  0
   -1.2259   -9.8365    8.2559 C   0  0  0  0  0  0  0  0  0  0  0  0
   -1.7890  -11.2364    7.3847 S   0  0  0  0  0  0  0  0  0  0  0  0
   -3.2788  -10.4943    6.9302 C   0  0  0  0  0  0  0  0  0  0  0  0
   -3.3713   -9.2183    7.4905 C   0  0  0  0  0  0  0  0  0  0  0  0
   -2.2216   -8.8412    8.2585 C   0  0  0  0  0  0  0  0  0  0  0  0
   -2.2114   -7.5784    8.8716 C   0  0  0  0  0  0  0  0  0  0  0  0
   -3.2821   -6.7219    8.7342 C   0  0  0  0  0  0  0  0  0  0  0  0
   -3.1582   -5.5185    9.3604 O   0  0  0  0  0  0  0  0  0  0  0  0
   -4.2126   -4.5912    9.2780 C   0  0  0  0  0  0  0  0  0  0  0  0
   -4.4211   -7.1132    7.9932 C   0  0  0  0  0  0  0  0  0  0  0  0
   -4.4654   -8.3362    7.3911 C   0  0  0  0  0  0  0  0  0  0  0  0
   -4.2254  -11.1838    6.1004 C   0  0  0  0  0  0  0  0  0  0  0  0
   -4.8639  -10.6626    5.0325 C   0  0  0  0  0  0  0  0  0  0  0  0
   -4.5377   -9.4211    4.3920 C   0  0  0  0  0  0  0  0  0  0  0  0
   -3.3503   -8.7511    4.3995 C   0  0  0  0  0  0  0  0  0  0  0  0
   -3.3329   -7.5938    3.5861 C   0  0  0  0  0  0  0  0  0  0  0  0
   -2.2638   -6.7028    3.3925 C   0  0  0  0  0  0  0  0  0  0  0  0
   -1.0244   -6.8168    4.1696 C   0  0  0  0  0  0  0  0  0  0  0  0
   -1.0785   -6.9404    5.5591 C   0  0  0  0  0  0  0  0  0  0  0  0
    0.0756   -7.0048    6.3029 C   0  0  0  0  0  0  0  0  0  0  0  0
    1.3403   -6.9522    5.7093 C   0  0  0  0  0  0  0  0  0  0  0  0
    2.6855   -7.0285    6.8457 S   0  0  0  0  0  0  0  0  0  0  0  0
    4.2279   -6.9672    5.8552 C   0  0  0  0  0  0  0  0  0  0  0  0
    5.4055   -6.9985    6.8099 C   0  0  0  0  0  0  0  0  0  0  0  0
    1.3768   -6.8314    4.3243 C   0  0  0  0  0  0  0  0  0  0  0  0
    2.5527   -6.7723    3.6491 F   0  0  0  0  0  0  0  0  0  0  0  0
    0.2248   -6.7622    3.5640 C   0  0  0  0  0  0  0  0  0  0  0  0
   -2.4713   -5.6805    2.4806 C   0  0  0  0  0  0  0  0  0  0  0  0
   -3.7075   -5.4720    1.8205 C   0  0  0  0  0  0  0  0  0  0  0  0
   -4.7910   -6.3376    2.0500 C   0  0  0  0  0  0  0  0  0  0  0  0
   -6.0852   -6.0912    1.4015 C   0  0  0  0  0  0  0  0  0  0  0  0
   -6.6839   -4.8335    1.4764 C   0  0  0  0  0  0  0  0  0  0  0  0
   -7.8661   -4.5769    0.8173 C   0  0  0  0  0  0  0  0  0  0  0  0
   -8.5040   -5.5620    0.0663 C   0  0  0  0  0  0  0  0  0  0  0  0
  -10.0188   -5.1167   -0.7337 S   0  0  0  0  0  0  0  0  0  0  0  0
   -9.9010   -5.9243   -2.3731 C   0  0  0  0  0  0  0  0  0  0  0  0
   -8.6755   -5.4715   -3.1412 C   0  0  0  0  0  0  0  0  0  0  0  0
   -7.9247   -6.8268    0.0456 C   0  0  0  0  0  0  0  0  0  0  0  0
   -6.7314   -7.0936    0.6873 C   0  0  0  0  0  0  0  0  0  0  0  0
   -8.5109   -7.8445   -0.6224 F   0  0  0  0  0  0  0  0  0  0  0  0
   -4.5632   -7.4021    2.9081 C   0  0  0  0  0  0  0  0  0  0  0  0
   -5.7112   -8.6415    3.3415 S   0  0  0  0  0  0  0  0  0  0  0  0
   -3.6615   -4.3473    0.9583 C   0  0  0  0  0  0  0  0  0  0  0  0
   -2.4614   -3.7041    0.9630 C   0  0  0  0  0  0  0  0  0  0  0  0
   -1.3024   -4.4633    2.0380 S   0  0  0  0  0  0  0  0  0  0  0  0
   -2.0958   -2.5293    0.2450 C   0  0  0  0  0  0  0  0  0  0  0  0
   -0.8573   -1.9718    0.1453 C   0  0  0  0  0  0  0  0  0  0  0  0
   -0.8346   -0.7634   -0.5949 C   0  0  0  0  0  0  0  0  0  0  0  0
    0.2753    0.0410   -0.9061 C   0  0  0  0  0  0  0  0  0  0  0  0
    1.6085   -0.3159   -0.4091 C   0  0  0  0  0  0  0  0  0  0  0  0
    1.7999   -0.6369    0.9336 C   0  0  0  0  0  0  0  0  0  0  0  0
    3.0264   -1.0674    1.3955 C   0  0  0  0  0  0  0  0  0  0  0  0
    4.1076   -1.1985    0.5306 C   0  0  0  0  0  0  0  0  0  0  0  0
    5.6904   -1.8056    1.0186 S   0  0  0  0  0  0  0  0  0  0  0  0
    5.2774   -2.9689    2.3694 C   0  0  0  0  0  0  0  0  0  0  0  0
    4.3923   -4.1054    1.8968 C   0  0  0  0  0  0  0  0  0  0  0  0
    3.9205   -0.8106   -0.7958 C   0  0  0  0  0  0  0  0  0  0  0  0
    4.9545   -0.8839   -1.6567 F   0  0  0  0  0  0  0  0  0  0  0  0
    2.7009   -0.3787   -1.2704 C   0  0  0  0  0  0  0  0  0  0  0  0
    0.0318    1.1539   -1.6952 C   0  0  0  0  0  0  0  0  0  0  0  0
   -1.2580    1.5058   -2.1701 C   0  0  0  0  0  0  0  0  0  0  0  0
   -2.3639    0.6962   -1.8658 C   0  0  0  0  0  0  0  0  0  0  0  0
   -3.7151    0.9688   -2.3693 C   0  0  0  0  0  0  0  0  0  0  0  0
   -3.9571    1.1713   -3.7270 C   0  0  0  0  0  0  0  0  0  0  0  0
   -5.2468    1.2997   -4.1961 C   0  0  0  0  0  0  0  0  0  0  0  0
   -6.3434    1.2524   -3.3359 C   0  0  0  0  0  0  0  0  0  0  0  0
   -7.9478    1.4048   -4.0609 S   0  0  0  0  0  0  0  0  0  0  0  0
   -9.0076    0.2913   -3.0639 C   0  0  0  0  0  0  0  0  0  0  0  0
   -8.4979   -1.1360   -3.0521 C   0  0  0  0  0  0  0  0  0  0  0  0
   -6.0806    1.1207   -1.9757 C   0  0  0  0  0  0  0  0  0  0  0  0
   -4.7974    0.9605   -1.4956 C   0  0  0  0  0  0  0  0  0  0  0  0
   -7.0811    1.1383   -1.0676 F   0  0  0  0  0  0  0  0  0  0  0  0
   -2.1201   -0.4172   -1.0760 C   0  0  0  0  0  0  0  0  0  0  0  0
   -3.3166   -1.5940   -0.5947 S   0  0  0  0  0  0  0  0  0  0  0  0
   -1.2426    2.7299   -2.8851 C   0  0  0  0  0  0  0  0  0  0  0  0
   -0.0052    3.2946   -2.9735 C   0  0  0  0  0  0  0  0  0  0  0  0
    1.2246    2.3317   -2.1744 S   0  0  0  0  0  0  0  0  0  0  0  0
    0.3620    4.5232   -3.5949 C   0  0  0  0  0  0  0  0  0  0  0  0
    1.6116    5.0610   -3.6860 C   0  0  0  0  0  0  0  0  0  0  0  0
    1.6433    6.3185   -4.3361 C   0  0  0  0  0  0  0  0  0  0  0  0
    2.7646    7.1181   -4.6164 C   0  0  0  0  0  0  0  0  0  0  0  0
    4.1112    6.7454   -4.1671 C   0  0  0  0  0  0  0  0  0  0  0  0
    4.3543    6.4043   -2.8375 C   0  0  0  0  0  0  0  0  0  0  0  0
    5.6234    6.0619   -2.4214 C   0  0  0  0  0  0  0  0  0  0  0  0
    6.6973    6.0540   -3.3078 C   0  0  0  0  0  0  0  0  0  0  0  0
    8.2963    5.6304   -2.6745 S   0  0  0  0  0  0  0  0  0  0  0  0
    8.9214    4.4421   -3.9205 C   0  0  0  0  0  0  0  0  0  0  0  0
    8.0043    3.2446   -4.0676 C   0  0  0  0  0  0  0  0  0  0  0  0
    6.4470    6.4305   -4.6233 C   0  0  0  0  0  0  0  0  0  0  0  0
    7.4503    6.4891   -5.5273 F   0  0  0  0  0  0  0  0  0  0  0  0
    5.1792    6.7578   -5.0583 C   0  0  0  0  0  0  0  0  0  0  0  0
    2.5297    8.2882   -5.3174 C   0  0  0  0  0  0  0  0  0  0  0  0
    1.2422    8.7070   -5.7342 C   0  0  0  0  0  0  0  0  0  0  0  0
    0.1219    7.9007   -5.4638 C   0  0  0  0  0  0  0  0  0  0  0  0
   -1.2194    8.2808   -5.9207 C   0  0  0  0  0  0  0  0  0  0  0  0
   -1.4428    8.6439   -7.2458 C   0  0  0  0  0  0  0  0  0  0  0  0
   -2.7033    8.9916   -7.6910 C   0  0  0  0  0  0  0  0  0  0  0  0
   -3.7903    8.9871   -6.8243 C   0  0  0  0  0  0  0  0  0  0  0  0
   -5.4424    9.4302   -7.2452 S   0  0  0  0  0  0  0  0  0  0  0  0
   -5.4462    9.4736   -9.0707 C   0  0  0  0  0  0  0  0  0  0  0  0
   -5.3506    8.0883   -9.6817 C   0  0  0  0  0  0  0  0  0  0  0  0
   -3.5503    8.6263   -5.4969 C   0  0  0  0  0  0  0  0  0  0  0  0
   -2.3002    8.2749   -5.0414 C   0  0  0  0  0  0  0  0  0  0  0  0
   -4.5780    8.6265   -4.6248 F   0  0  0  0  0  0  0  0  0  0  0  0
    0.3547    6.7286   -4.7606 C   0  0  0  0  0  0  0  0  0  0  0  0
   -0.8573    5.5479   -4.3291 S   0  0  0  0  0  0  0  0  0  0  0  0
    1.2775    9.9770   -6.3547 C   0  0  0  0  0  0  0  0  0  0  0  0
    2.5286   10.5294   -6.4428 C   0  0  0  0  0  0  0  0  0  0  0  0
    3.7400    9.4695   -5.7397 S   0  0  0  0  0  0  0  0  0  0  0  0
    2.8480   11.7874   -7.0172 C   0  0  0  0  0  0  0  0  0  0  0  0
    1.5526   12.7575   -7.6471 S   0  0  0  0  0  0  0  0  0  0  0  0
    2.6037   14.0553   -8.0913 C   0  0  0  0  0  0  0  0  0  0  0  0
    3.9289   13.7303   -7.8058 C   0  0  0  0  0  0  0  0  0  0  0  0
    4.0717   12.4461   -7.1841 C   0  0  0  0  0  0  0  0  0  0  0  0
    5.3518   11.9781   -6.8248 C   0  0  0  0  0  0  0  0  0  0  0  0
    6.4560   12.7434   -7.0965 C   0  0  0  0  0  0  0  0  0  0  0  0
    7.7335   12.4014   -6.7983 O   0  0  0  0  0  0  0  0  0  0  0  0
    7.9680   11.1711   -6.1531 C   0  0  0  0  0  0  0  0  0  0  0  0
    6.3163   13.9919   -7.7623 C   0  0  0  0  0  0  0  0  0  0  0  0
    5.0948   14.4726   -8.1100 C   0  0  0  0  0  0  0  0  0  0  0  0
    2.0047   15.2371   -8.6466 C   0  0  0  0  0  0  0  0  0  0  0  0
    2.4989   16.4739   -8.6084 C   0  0  0  0  0  0  0  0  0  0  0  0
    5.1257   -8.3565   11.5814 H   0  0  0  0  0  0  0  0  0  0  0  0
    6.6259   -9.8229    9.7421 H   0  0  0  0  0  0  0  0  0  0  0  0
    6.5987  -11.2250    5.5324 H   0  0  0  0  0  0  0  0  0  0  0  0
    6.2553  -12.7420    6.4153 H   0  0  0  0  0  0  0  0  0  0  0  0
    7.9287  -12.1581    6.2571 H   0  0  0  0  0  0  0  0  0  0  0  0
    4.4246  -11.2835    6.3756 H   0  0  0  0  0  0  0  0  0  0  0  0
    2.3631  -10.3789    7.2562 H   0  0  0  0  0  0  0  0  0  0  0  0
    0.2517   -8.1777    9.9475 H   0  0  0  0  0  0  0  0  0  0  0  0
    0.6561  -10.7581    8.3678 H   0  0  0  0  0  0  0  0  0  0  0  0
   -1.3828   -7.2420    9.4684 H   0  0  0  0  0  0  0  0  0  0  0  0
   -3.8805   -3.7213    9.8426 H   0  0  0  0  0  0  0  0  0  0  0  0
   -4.4097   -4.2935    8.2429 H   0  0  0  0  0  0  0  0  0  0  0  0
   -5.1314   -4.9817    9.7275 H   0  0  0  0  0  0  0  0  0  0  0  0
   -5.2670   -6.4504    7.9053 H   0  0  0  0  0  0  0  0  0  0  0  0
   -5.3427   -8.6432    6.8434 H   0  0  0  0  0  0  0  0  0  0  0  0
   -4.4217  -12.2161    6.3634 H   0  0  0  0  0  0  0  0  0  0  0  0
   -5.6508  -11.2378    4.5636 H   0  0  0  0  0  0  0  0  0  0  0  0
   -2.4836   -9.1008    4.9283 H   0  0  0  0  0  0  0  0  0  0  0  0
   -2.0347   -6.9584    6.0584 H   0  0  0  0  0  0  0  0  0  0  0  0
    0.0249   -7.0925    7.3760 H   0  0  0  0  0  0  0  0  0  0  0  0
    4.2359   -7.8286    5.1894 H   0  0  0  0  0  0  0  0  0  0  0  0
    4.2213   -6.0464    5.2743 H   0  0  0  0  0  0  0  0  0  0  0  0
    6.3354   -6.9584    6.2469 H   0  0  0  0  0  0  0  0  0  0  0  0
    5.3698   -6.1473    7.4863 H   0  0  0  0  0  0  0  0  0  0  0  0
    5.3949   -7.9094    7.4039 H   0  0  0  0  0  0  0  0  0  0  0  0
    0.3245   -6.6813    2.4928 H   0  0  0  0  0  0  0  0  0  0  0  0
   -6.2179   -4.0551    2.0612 H   0  0  0  0  0  0  0  0  0  0  0  0
   -8.3188   -3.5988    0.8668 H   0  0  0  0  0  0  0  0  0  0  0  0
  -10.8173   -5.6096   -2.8726 H   0  0  0  0  0  0  0  0  0  0  0  0
   -9.9234   -7.0035   -2.2393 H   0  0  0  0  0  0  0  0  0  0  0  0
   -7.7634   -5.7849   -2.6364 H   0  0  0  0  0  0  0  0  0  0  0  0
   -8.6614   -4.3877   -3.2365 H   0  0  0  0  0  0  0  0  0  0  0  0
   -8.6849   -5.9108   -4.1367 H   0  0  0  0  0  0  0  0  0  0  0  0
   -6.3129   -8.0851    0.6125 H   0  0  0  0  0  0  0  0  0  0  0  0
   -4.4831   -4.0312    0.3405 H   0  0  0  0  0  0  0  0  0  0  0  0
    0.0146   -2.4298    0.5761 H   0  0  0  0  0  0  0  0  0  0  0  0
    0.9803   -0.5332    1.6285 H   0  0  0  0  0  0  0  0  0  0  0  0
    3.1395   -1.3052    2.4411 H   0  0  0  0  0  0  0  0  0  0  0  0
    4.8320   -2.4120    3.1930 H   0  0  0  0  0  0  0  0  0  0  0  0
    6.2521   -3.3383    2.6876 H   0  0  0  0  0  0  0  0  0  0  0  0
    4.8663   -4.6340    1.0732 H   0  0  0  0  0  0  0  0  0  0  0  0
    3.4278   -3.7330    1.5571 H   0  0  0  0  0  0  0  0  0  0  0  0
    4.2211   -4.8108    2.7070 H   0  0  0  0  0  0  0  0  0  0  0  0
    2.6040   -0.1304   -2.3154 H   0  0  0  0  0  0  0  0  0  0  0  0
   -3.1307    1.1822   -4.4211 H   0  0  0  0  0  0  0  0  0  0  0  0
   -5.4332    1.4263   -5.2512 H   0  0  0  0  0  0  0  0  0  0  0  0
   -9.9726    0.3580   -3.5665 H   0  0  0  0  0  0  0  0  0  0  0  0
   -9.1037    0.6975   -2.0597 H   0  0  0  0  0  0  0  0  0  0  0  0
   -7.5300   -1.2016   -2.5581 H   0  0  0  0  0  0  0  0  0  0  0  0
   -9.2016   -1.7669   -2.5119 H   0  0  0  0  0  0  0  0  0  0  0  0
   -8.3934   -1.5121   -4.0682 H   0  0  0  0  0  0  0  0  0  0  0  0
   -4.6549    0.8550   -0.4315 H   0  0  0  0  0  0  0  0  0  0  0  0
   -2.1222    3.1892   -3.3000 H   0  0  0  0  0  0  0  0  0  0  0  0
    2.4861    4.5604   -3.3099 H   0  0  0  0  0  0  0  0  0  0  0  0
    3.5436    6.4222   -2.1253 H   0  0  0  0  0  0  0  0  0  0  0  0
    5.8079    5.7926   -1.3931 H   0  0  0  0  0  0  0  0  0  0  0  0
    9.0666    4.9643   -4.8637 H   0  0  0  0  0  0  0  0  0  0  0  0
    9.8929    4.1482   -3.5238 H   0  0  0  0  0  0  0  0  0  0  0  0
    7.8557    2.7548   -3.1077 H   0  0  0  0  0  0  0  0  0  0  0  0
    7.0324    3.5456   -4.4552 H   0  0  0  0  0  0  0  0  0  0  0  0
    8.4438    2.5291   -4.7596 H   0  0  0  0  0  0  0  0  0  0  0  0
    5.0372    7.0164   -6.0961 H   0  0  0  0  0  0  0  0  0  0  0  0
   -0.6209    8.6344   -7.9458 H   0  0  0  0  0  0  0  0  0  0  0  0
   -2.8285    9.2717   -8.7242 H   0  0  0  0  0  0  0  0  0  0  0  0
   -4.6490   10.1354   -9.4065 H   0  0  0  0  0  0  0  0  0  0  0  0
   -6.4034    9.9366   -9.3107 H   0  0  0  0  0  0  0  0  0  0  0  0
   -5.3879    8.1590  -10.7672 H   0  0  0  0  0  0  0  0  0  0  0  0
   -6.1807    7.4725   -9.3441 H   0  0  0  0  0  0  0  0  0  0  0  0
   -4.4228    7.5970   -9.3964 H   0  0  0  0  0  0  0  0  0  0  0  0
   -2.1748    8.0181   -4.0015 H   0  0  0  0  0  0  0  0  0  0  0  0
    0.3987   10.4867   -6.7074 H   0  0  0  0  0  0  0  0  0  0  0  0
    5.4464   11.0183   -6.3492 H   0  0  0  0  0  0  0  0  0  0  0  0
    7.6395   10.3271   -6.7672 H   0  0  0  0  0  0  0  0  0  0  0  0
    7.4673   11.1264   -5.1811 H   0  0  0  0  0  0  0  0  0  0  0  0
    9.0452   11.1145   -6.0083 H   0  0  0  0  0  0  0  0  0  0  0  0
    7.2198   14.5358   -7.9877 H   0  0  0  0  0  0  0  0  0  0  0  0
    5.0087   15.4038   -8.6447 H   0  0  0  0  0  0  0  0  0  0  0  0
    1.0288   15.0746   -9.0888 H   0  0  0  0  0  0  0  0  0  0  0  0
    1.9613   17.2953   -9.0488 H   0  0  0  0  0  0  0  0  0  0  0  0
    3.4255   16.7143   -8.1194 H   0  0  0  0  0  0  0  0  0  0  0  0
  1  2  1  0  0  0  0
  2  3  1  0  0  0  0
  3  4  2  0  0  0  0
  4  5  1  0  0  0  0
  5  6  1  0  0  0  0
  6  7  2  0  0  0  0
  7  8  1  0  0  0  0
  8  9  1  0  0  0  0
  7 10  1  0  0  0  0
 10 11  2  0  0  0  0
  3 12  1  0  0  0  0
 12 13  2  0  0  0  0
 13 14  1  0  0  0  0
 14 15  1  0  0  0  0
 15 16  1  0  0  0  0
 16 17  2  0  0  0  0
 17 18  1  0  0  0  0
 18 19  1  0  0  0  0
 19 20  2  0  0  0  0
 20 21  1  0  0  0  0
 21 22  1  0  0  0  0
 20 23  1  0  0  0  0
 23 24  2  0  0  0  0
 16 25  1  0  0  0  0
 25 26  2  0  0  0  0
 26 27  1  0  0  0  0
 27 28  2  0  0  0  0
 28 29  1  0  0  0  0
 29 30  2  0  0  0  0
 30 31  1  0  0  0  0
 31 32  2  0  0  0  0
 32 33  1  0  0  0  0
 33 34  2  0  0  0  0
 34 35  1  0  0  0  0
 35 36  1  0  0  0  0
 36 37  1  0  0  0  0
 34 38  1  0  0  0  0
 38 39  1  0  0  0  0
 38 40  2  0  0  0  0
 30 41  1  0  0  0  0
 41 42  2  0  0  0  0
 42 43  1  0  0  0  0
 43 44  1  0  0  0  0
 44 45  2  0  0  0  0
 45 46  1  0  0  0  0
 46 47  2  0  0  0  0
 47 48  1  0  0  0  0
 48 49  1  0  0  0  0
 49 50  1  0  0  0  0
 47 51  1  0  0  0  0
 51 52  2  0  0  0  0
 51 53  1  0  0  0  0
 43 54  2  0  0  0  0
 54 55  1  0  0  0  0
 42 56  1  0  0  0  0
 56 57  2  0  0  0  0
 57 58  1  0  0  0  0
 57 59  1  0  0  0  0
 59 60  2  0  0  0  0
 60 61  1  0  0  0  0
 61 62  2  0  0  0  0
 62 63  1  0  0  0  0
 63 64  2  0  0  0  0
 64 65  1  0  0  0  0
 65 66  2  0  0  0  0
 66 67  1  0  0  0  0
 67 68  1  0  0  0  0
 68 69  1  0  0  0  0
 66 70  1  0  0  0  0
 70 71  1  0  0  0  0
 70 72  2  0  0  0  0
 62 73  1  0  0  0  0
 73 74  2  0  0  0  0
 74 75  1  0  0  0  0
 75 76  1  0  0  0  0
 76 77  2  0  0  0  0
 77 78  1  0  0  0  0
 78 79  2  0  0  0  0
 79 80  1  0  0  0  0
 80 81  1  0  0  0  0
 81 82  1  0  0  0  0
 79 83  1  0  0  0  0
 83 84  2  0  0  0  0
 83 85  1  0  0  0  0
 75 86  2  0  0  0  0
 86 87  1  0  0  0  0
 74 88  1  0  0  0  0
 88 89  2  0  0  0  0
 89 90  1  0  0  0  0
 89 91  1  0  0  0  0
 91 92  2  0  0  0  0
 92 93  1  0  0  0  0
 93 94  2  0  0  0  0
 94 95  1  0  0  0  0
 95 96  2  0  0  0  0
 96 97  1  0  0  0  0
 97 98  2  0  0  0  0
 98 99  1  0  0  0  0
 99100  1  0  0  0  0
100101  1  0  0  0  0
 98102  1  0  0  0  0
102103  1  0  0  0  0
102104  2  0  0  0  0
 94105  1  0  0  0  0
105106  2  0  0  0  0
106107  1  0  0  0  0
107108  1  0  0  0  0
108109  2  0  0  0  0
109110  1  0  0  0  0
110111  2  0  0  0  0
111112  1  0  0  0  0
112113  1  0  0  0  0
113114  1  0  0  0  0
111115  1  0  0  0  0
115116  2  0  0  0  0
115117  1  0  0  0  0
107118  2  0  0  0  0
118119  1  0  0  0  0
106120  1  0  0  0  0
120121  2  0  0  0  0
121122  1  0  0  0  0
121123  1  0  0  0  0
123124  1  0  0  0  0
124125  1  0  0  0  0
125126  2  0  0  0  0
126127  1  0  0  0  0
127128  1  0  0  0  0
128129  2  0  0  0  0
129130  1  0  0  0  0
130131  1  0  0  0  0
129132  1  0  0  0  0
132133  2  0  0  0  0
125134  1  0  0  0  0
134135  2  0  0  0  0
  5  1  2  0  0  0  0
 18 14  2  0  0  0  0
 55 27  1  0  0  0  0
 87 59  1  0  0  0  0
119 91  1  0  0  0  0
127123  2  0  0  0  0
 11  4  1  0  0  0  0
 24 17  1  0  0  0  0
 54 29  1  0  0  0  0
 86 61  1  0  0  0  0
118 93  1  0  0  0  0
133126  1  0  0  0  0
 40 31  1  0  0  0  0
 58 41  1  0  0  0  0
 72 63  1  0  0  0  0
 90 73  1  0  0  0  0
104 95  1  0  0  0  0
122105  1  0  0  0  0
 52 44  1  0  0  0  0
 84 76  1  0  0  0  0
116108  1  0  0  0  0
  1136  1  0  0  0  0
  6137  1  0  0  0  0
  9138  1  0  0  0  0
  9139  1  0  0  0  0
  9140  1  0  0  0  0
 10141  1  0  0  0  0
 11142  1  0  0  0  0
 12143  1  0  0  0  0
 13144  1  0  0  0  0
 19145  1  0  0  0  0
 22146  1  0  0  0  0
 22147  1  0  0  0  0
 22148  1  0  0  0  0
 23149  1  0  0  0  0
 24150  1  0  0  0  0
 25151  1  0  0  0  0
 26152  1  0  0  0  0
 28153  1  0  0  0  0
 32154  1  0  0  0  0
 33155  1  0  0  0  0
 36156  1  0  0  0  0
 36157  1  0  0  0  0
 37158  1  0  0  0  0
 37159  1  0  0  0  0
 37160  1  0  0  0  0
 40161  1  0  0  0  0
 45162  1  0  0  0  0
 46163  1  0  0  0  0
 49164  1  0  0  0  0
 49165  1  0  0  0  0
 50166  1  0  0  0  0
 50167  1  0  0  0  0
 50168  1  0  0  0  0
 52169  1  0  0  0  0
 56170  1  0  0  0  0
 60171  1  0  0  0  0
 64172  1  0  0  0  0
 65173  1  0  0  0  0
 68174  1  0  0  0  0
 68175  1  0  0  0  0
 69176  1  0  0  0  0
 69177  1  0  0  0  0
 69178  1  0  0  0  0
 72179  1  0  0  0  0
 77180  1  0  0  0  0
 78181  1  0  0  0  0
 81182  1  0  0  0  0
 81183  1  0  0  0  0
 82184  1  0  0  0  0
 82185  1  0  0  0  0
 82186  1  0  0  0  0
 84187  1  0  0  0  0
 88188  1  0  0  0  0
 92189  1  0  0  0  0
 96190  1  0  0  0  0
 97191  1  0  0  0  0
100192  1  0  0  0  0
100193  1  0  0  0  0
101194  1  0  0  0  0
101195  1  0  0  0  0
101196  1  0  0  0  0
104197  1  0  0  0  0
109198  1  0  0  0  0
110199  1  0  0  0  0
113200  1  0  0  0  0
113201  1  0  0  0  0
114202  1  0  0  0  0
114203  1  0  0  0  0
114204  1  0  0  0  0
116205  1  0  0  0  0
120206  1  0  0  0  0
128207  1  0  0  0  0
131208  1  0  0  0  0
131209  1  0  0  0  0
131210  1  0  0  0  0
132211  1  0  0  0  0
133212  1  0  0  0  0
134213  1  0  0  0  0
135214  1  0  0  0  0
135215  1  0  0  0  0
M  END
