206

C         -4.62550       -2.77040       10.78010
C         -3.59670       -2.24690       10.08380
C         -3.65000       -2.56740        8.69590
C         -2.74430       -2.21720        7.68340
C         -1.52060       -1.48050        7.95720
S         -1.13190       -0.03340        7.07630
C          0.37210        0.16430        7.90710
C          1.25280        1.33700        7.65090
C          0.87340        2.51120        8.55660
C          0.54620       -0.83700        8.81500
Cl         1.92810       -0.97980        9.82230
C         -0.52290       -1.77340        8.84440
Cl        -0.50450       -3.16720        9.84600
C         -3.06590       -2.60710        6.39040
C         -4.22630       -3.35020        6.06620
C         -5.09910       -3.75500        7.08960
C         -6.24760       -4.59790        6.80480
S         -7.84750       -4.18100        7.34130
C         -8.53610       -5.60910        6.64940
C        -10.00070       -5.86980        6.70850
C        -10.71850       -5.23520        5.51470
C         -7.57130       -6.35320        6.03780
C         -6.27240       -5.78550        6.12580
Cl        -4.87790       -6.57330        5.50740
Cl        -7.87370       -7.84380        5.24320
C         -4.79730       -3.33330        8.37990
S         -5.73320       -3.67660        9.80780
C         -4.33620       -3.57520        4.66840
C         -3.28320       -3.08530        3.95930
S         -2.10520       -2.28100        4.98040
C         -3.03850       -3.09720        2.55480
C         -1.86990       -2.71970        1.96540
C         -1.91360       -2.70370        0.55140
C         -0.92600       -2.22840       -0.34030
C          0.27560       -1.61930        0.21150
S          0.13100       -0.52830        1.57120
C          1.84050       -0.41630        1.79150
C          2.40940        0.27660        2.97900
C          2.06370       -0.47530        4.26570
C          2.47720       -1.12320        0.81740
Cl         4.18710       -1.22460        0.68000
C          1.60200       -1.80460       -0.07730
Cl         2.21330       -2.85200       -1.28940
C         -1.20810       -2.36760       -1.69920
C         -2.44360       -2.88140       -2.16660
C         -3.46340       -3.24900       -1.27450
C         -4.78520       -3.59660       -1.76400
S         -5.60850       -2.52030       -2.85850
C         -7.01590       -3.52530       -2.91560
C         -8.21960       -3.13040       -3.69800
C         -9.16830       -2.28050       -2.84910
C         -6.84530       -4.61970       -2.12210
C         -5.58310       -4.66590       -1.46880
Cl        -5.10660       -5.98660       -0.48740
Cl        -8.02650       -5.84780       -1.92620
C         -3.16210       -3.18150        0.07870
S         -4.25610       -3.54070        1.38490
C         -2.46390       -3.03920       -3.57780
C         -1.30690       -2.66710       -4.17690
S         -0.16570       -1.98070       -3.04160
C         -0.91180       -3.02160       -5.53650
C          0.04130       -3.98350       -5.75280
C          0.82630       -4.75610       -4.75760
F          0.10840       -5.10750       -3.67650
F          1.30320       -5.89880       -5.27790
F          1.90160       -4.09200       -4.29040
S          0.29410       -4.31570       -7.42960
C         -0.89360       -3.12730       -7.85440
O         -1.20560       -2.88640       -9.12620
C         -0.49310       -3.58870      -10.12050
C         -1.46430       -2.51100       -6.75280
C         -2.35540       -1.37300       -6.80240
C         -2.48660       -0.61330       -7.90060
C         -3.13590        0.66960       -8.00610
C         -2.75070        1.56130       -8.98810
C         -1.69720        1.37130      -10.01100
F         -0.48700        1.09520       -9.48250
F         -1.95270        0.35280      -10.86280
F         -1.52720        2.45740      -10.77880
S         -3.55080        3.08840       -8.88660
C         -4.44440        2.52400       -7.51150
O         -5.35760        3.27450       -6.88260
C         -5.54290        4.58790       -7.35970
C         -4.12790        1.23780       -7.15420
C         -4.85890        0.61810       -6.03910
C         -4.53100        0.76980       -4.75380
C         -3.30160        1.31470       -4.24780
C         -3.02890        1.55250       -2.93330
C         -1.65980        1.78610       -2.65570
C         -1.02760        1.96160       -1.40970
C         -1.72370        1.91540       -0.13360
S         -1.25500        3.01720        1.13470
C         -2.28400        2.26570        2.30260
C         -2.28060        2.70480        3.72360
C         -0.96020        2.32680        4.39650
C         -2.96400        1.23690        1.72790
Cl        -4.05080        0.21300        2.57340
C         -2.66870        1.04860        0.35020
Cl        -3.41820       -0.22430       -0.51580
C          0.35630        2.13090       -1.43990
C          1.11710        2.11900       -2.63260
C          0.48080        1.97540       -3.87540
C          1.25950        2.01420       -5.10430
S          2.25710        3.39170       -5.47640
C          2.83700        2.67820       -6.94350
C          3.87160        3.35370       -7.77340
C          5.27390        3.04620       -7.24070
C          2.28330        1.44570       -7.11910
C          1.38740        1.07060       -6.08210
Cl         0.63530       -0.46310       -6.03860
Cl         2.61980        0.42020       -8.44830
C         -0.89240        1.79010       -3.85120
S         -1.88310        1.52660       -5.25360
C          2.51170        2.16410       -2.38960
C          2.82310        2.22100       -1.06570
S          1.39790        2.27260       -0.05400
C          4.10830        2.14690       -0.45240
C          5.28930        1.76940       -1.01850
C          6.34630        1.64420       -0.08170
C          7.66590        1.21440       -0.30530
C          8.15650        1.01000       -1.65570
S          8.99390       -0.44180       -2.11710
C          9.17800        0.08960       -3.75280
C          9.81440       -0.77960       -4.78020
C          8.79060       -1.73630       -5.39640
C          8.61550        1.32070       -3.91820
Cl         8.59880        2.17430       -5.40760
C          8.04040        1.84830       -2.73250
Cl         7.35670        3.42260       -2.66880
C          8.45570        0.99760        0.81910
C          7.99180        1.20560        2.14030
C          6.68880        1.67320        2.35810
C          6.12840        1.82620        3.69370
S          5.48740        3.33770        4.25640
C          4.98390        2.64800        5.76410
C          4.34680        3.48900        6.81480
C          5.31420        4.54860        7.34380
C          5.29640        1.32240        5.80720
C          5.94650        0.85200        4.63350
Cl         6.39430       -0.78960        4.40240
Cl         4.93490        0.28610        7.12970
C          5.90820        1.90890        1.23740
S          4.24940        2.42270        1.26680
C          8.99850        0.91770        3.10690
C         10.15840        0.51820        2.54770
S         10.11330        0.46390        0.81860
H         -4.82160       -2.68340       11.83090
H         -2.82290       -1.64440       10.52220
H          1.16290        1.63690        6.60610
H          2.28560        1.04330        7.84550
H         -0.16140        2.79920        8.38700
H          0.98820        2.23340        9.60110
H          1.51180        3.36610        8.35130
H        -10.16500       -6.94900        6.70030
H        -10.40350       -5.46010        7.63610
H        -11.78490       -5.43600        5.57080
H        -10.33500       -5.64490        4.58380
H        -10.56450       -4.15880        5.51070
H         -5.16760       -4.07310        4.20350
H         -1.00590       -2.47420        2.55280
H          2.02280        1.29630        3.03290
H          3.49280        0.32070        2.86740
H          0.98660       -0.51790        4.41100
H          2.44650       -1.49180        4.22070
H          2.51400        0.02380        5.11910
H         -7.90960       -2.56360       -4.57750
H         -8.73630       -4.03430       -4.02640
H         -9.49570       -2.84080       -1.97730
H        -10.04150       -2.00020       -3.43180
H         -8.66660       -1.37620       -2.51270
H         -3.27560       -3.49900       -4.11170
H         -0.64780       -4.66800      -10.02370
H         -0.88590       -3.23860      -11.07280
H          0.57810       -3.37380      -10.05780
H         -2.82920       -1.10690       -5.86930
H         -1.96140       -0.91810       -8.79130
H         -6.30500        5.03480       -6.72510
H         -5.88120        4.58330       -8.40090
H         -4.61540        5.16500       -7.29020
H         -5.77390        0.10460       -6.30210
H         -5.18810        0.37580       -3.98930
H         -3.79950        1.55120       -2.18770
H         -2.41830        3.78680        3.77480
H         -3.10970        2.22100        4.24130
H         -0.97720        2.62650        5.44050
H         -0.13050        2.82040        3.89620
H         -0.81280        1.25140        4.34480
H          3.78440        2.99790       -8.80150
H          3.70540        4.43210       -7.75900
H          6.02410        3.53590       -7.85560
H          5.45640        1.97450       -7.25680
H          5.37670        3.40130       -6.21790
H          3.24950        2.13010       -3.16900
H          5.38620        1.52160       -2.05860
H         10.23960       -0.14650       -5.56130
H         10.61820       -1.35540       -4.31870
H          9.26920       -2.36460       -6.14260
H          8.35880       -2.37290       -4.62800
H          7.99020       -1.17640       -5.87360
H          4.02980        2.83850        7.63070
H          3.46540        3.98230        6.39790
H          5.63230        5.20500        6.53760
H          6.19350        4.07620        7.77440
H          4.83070        5.14660        8.11160
H          8.84410        1.01840        4.16560
H         11.06900        0.24340        3.04310
