
  xtb     03012223463D
 energy: -454.294097755242 gnorm: 0.000225434258 xtb: 6.4.1 (unknown)
235261  0     0  0            999 V2000
   -4.8398  -17.2890    7.0308 C   0  0  0  0  0  0  0  0  0  0  0  0
   -4.0512  -17.0302    5.9679 C   0  0  0  0  0  0  0  0  0  0  0  0
   -4.4357  -15.8492    5.2685 C   0  0  0  0  0  0  0  0  0  0  0  0
   -3.8284  -15.2655    4.1463 C   0  0  0  0  0  0  0  0  0  0  0  0
   -2.6463  -15.8422    3.5246 C   0  0  0  0  0  0  0  0  0  0  0  0
   -1.2039  -16.1635    4.4417 S   0  0  0  0  0  0  0  0  0  0  0  0
   -0.3499  -16.7353    3.0498 C   0  0  0  0  0  0  0  0  0  0  0  0
    1.0760  -17.1557    3.1328 C   0  0  0  0  0  0  0  0  0  0  0  0
    2.0099  -15.9673    2.8908 C   0  0  0  0  0  0  0  0  0  0  0  0
   -1.1471  -16.6694    1.9466 C   0  0  0  0  0  0  0  0  0  0  0  0
   -0.6483  -17.1543    0.3784 Cl  0  0  0  0  0  0  0  0  0  0  0  0
   -2.4492  -16.1659    2.2110 C   0  0  0  0  0  0  0  0  0  0  0  0
   -3.6578  -16.0636    1.0004 Cl  0  0  0  0  0  0  0  0  0  0  0  0
   -4.3867  -14.0862    3.6678 C   0  0  0  0  0  0  0  0  0  0  0  0
   -5.5256  -13.4818    4.2543 C   0  0  0  0  0  0  0  0  0  0  0  0
   -6.1477  -14.0778    5.3642 C   0  0  0  0  0  0  0  0  0  0  0  0
   -7.3089  -13.4664    5.9901 C   0  0  0  0  0  0  0  0  0  0  0  0
   -7.2753  -11.8062    6.5112 S   0  0  0  0  0  0  0  0  0  0  0  0
   -8.9023  -11.8722    7.0987 C   0  0  0  0  0  0  0  0  0  0  0  0
   -9.5607  -10.6641    7.6677 C   0  0  0  0  0  0  0  0  0  0  0  0
   -9.9676   -9.6884    6.5608 C   0  0  0  0  0  0  0  0  0  0  0  0
   -9.4276  -13.1121    6.8920 C   0  0  0  0  0  0  0  0  0  0  0  0
   -8.5266  -14.0201    6.2707 C   0  0  0  0  0  0  0  0  0  0  0  0
   -8.9830  -15.6154    5.8446 Cl  0  0  0  0  0  0  0  0  0  0  0  0
  -11.0238  -13.5628    7.3313 Cl  0  0  0  0  0  0  0  0  0  0  0  0
   -5.5801  -15.2500    5.8494 C   0  0  0  0  0  0  0  0  0  0  0  0
   -6.1082  -16.1360    7.2510 S   0  0  0  0  0  0  0  0  0  0  0  0
   -5.8816  -12.2795    3.5972 C   0  0  0  0  0  0  0  0  0  0  0  0
   -5.0368  -11.9449    2.5794 C   0  0  0  0  0  0  0  0  0  0  0  0
   -3.7695  -13.1280    2.3542 S   0  0  0  0  0  0  0  0  0  0  0  0
   -5.0896  -10.7660    1.7751 C   0  0  0  0  0  0  0  0  0  0  0  0
   -5.8950   -9.6804    1.9666 C   0  0  0  0  0  0  0  0  0  0  0  0
   -5.6676   -8.6388    1.0369 C   0  0  0  0  0  0  0  0  0  0  0  0
   -6.2976   -7.3822    0.9760 C   0  0  0  0  0  0  0  0  0  0  0  0
   -7.3714   -7.0286    1.8912 C   0  0  0  0  0  0  0  0  0  0  0  0
   -8.7792   -8.0404    2.0510 S   0  0  0  0  0  0  0  0  0  0  0  0
   -9.5097   -6.9832    3.2090 C   0  0  0  0  0  0  0  0  0  0  0  0
  -10.8652   -7.2504    3.7640 C   0  0  0  0  0  0  0  0  0  0  0  0
  -11.9400   -6.5243    2.9512 C   0  0  0  0  0  0  0  0  0  0  0  0
   -8.7008   -5.9123    3.4442 C   0  0  0  0  0  0  0  0  0  0  0  0
   -9.0873   -4.6510    4.5394 Cl  0  0  0  0  0  0  0  0  0  0  0  0
   -7.4873   -5.9355    2.7058 C   0  0  0  0  0  0  0  0  0  0  0  0
   -6.2752   -4.7421    2.9181 Cl  0  0  0  0  0  0  0  0  0  0  0  0
   -5.8338   -6.4961    0.0142 C   0  0  0  0  0  0  0  0  0  0  0  0
   -4.7824   -6.8093   -0.8847 C   0  0  0  0  0  0  0  0  0  0  0  0
   -4.1967   -8.0868   -0.8631 C   0  0  0  0  0  0  0  0  0  0  0  0
   -3.1866   -8.4626   -1.8353 C   0  0  0  0  0  0  0  0  0  0  0  0
   -1.6867   -9.2031   -1.3614 S   0  0  0  0  0  0  0  0  0  0  0  0
   -1.1375   -9.3199   -2.9973 C   0  0  0  0  0  0  0  0  0  0  0  0
    0.2105   -9.8603   -3.3242 C   0  0  0  0  0  0  0  0  0  0  0  0
    1.2665   -8.7526   -3.2932 C   0  0  0  0  0  0  0  0  0  0  0  0
   -2.0707   -8.8083   -3.8497 C   0  0  0  0  0  0  0  0  0  0  0  0
   -3.2352   -8.3251   -3.1966 C   0  0  0  0  0  0  0  0  0  0  0  0
   -4.5881   -7.7180   -4.0606 Cl  0  0  0  0  0  0  0  0  0  0  0  0
   -1.8813   -8.7548   -5.5544 Cl  0  0  0  0  0  0  0  0  0  0  0  0
   -4.6356   -8.9622    0.1225 C   0  0  0  0  0  0  0  0  0  0  0  0
   -4.0135  -10.5609    0.4120 S   0  0  0  0  0  0  0  0  0  0  0  0
   -4.4157   -5.6929   -1.6763 C   0  0  0  0  0  0  0  0  0  0  0  0
   -5.1741   -4.5860   -1.4373 C   0  0  0  0  0  0  0  0  0  0  0  0
   -6.4189   -4.8794   -0.2394 S   0  0  0  0  0  0  0  0  0  0  0  0
   -4.9760   -3.2559   -1.9059 C   0  0  0  0  0  0  0  0  0  0  0  0
   -5.6563   -2.1502   -1.4889 C   0  0  0  0  0  0  0  0  0  0  0  0
   -5.0967   -0.9346   -1.9448 C   0  0  0  0  0  0  0  0  0  0  0  0
   -5.4582    0.3730   -1.5699 C   0  0  0  0  0  0  0  0  0  0  0  0
   -6.5429    0.6099   -0.6328 C   0  0  0  0  0  0  0  0  0  0  0  0
   -6.6206   -0.2585    0.8743 S   0  0  0  0  0  0  0  0  0  0  0  0
   -8.0753    0.5438    1.3586 C   0  0  0  0  0  0  0  0  0  0  0  0
   -8.7409    0.2006    2.6458 C   0  0  0  0  0  0  0  0  0  0  0  0
   -9.0240   -1.2978    2.7496 C   0  0  0  0  0  0  0  0  0  0  0  0
   -8.4581    1.4378    0.4041 C   0  0  0  0  0  0  0  0  0  0  0  0
   -9.8568    2.4270    0.5183 Cl  0  0  0  0  0  0  0  0  0  0  0  0
   -7.5900    1.4842   -0.7213 C   0  0  0  0  0  0  0  0  0  0  0  0
   -7.9046    2.4809   -2.0787 Cl  0  0  0  0  0  0  0  0  0  0  0  0
   -4.6668    1.4030   -2.0586 C   0  0  0  0  0  0  0  0  0  0  0  0
   -3.5587    1.1829   -2.9135 C   0  0  0  0  0  0  0  0  0  0  0  0
   -3.2176   -0.1216   -3.3150 C   0  0  0  0  0  0  0  0  0  0  0  0
   -2.0574   -0.3781   -4.1514 C   0  0  0  0  0  0  0  0  0  0  0  0
   -0.4937    0.2760   -3.7547 S   0  0  0  0  0  0  0  0  0  0  0  0
    0.2546   -0.4662   -5.1250 C   0  0  0  0  0  0  0  0  0  0  0  0
    1.7123   -0.3118   -5.3849 C   0  0  0  0  0  0  0  0  0  0  0  0
    2.5165   -1.4164   -4.6959 C   0  0  0  0  0  0  0  0  0  0  0  0
   -0.6609   -1.1877   -5.8310 C   0  0  0  0  0  0  0  0  0  0  0  0
   -1.9714   -1.1406   -5.2839 C   0  0  0  0  0  0  0  0  0  0  0  0
   -3.3083   -1.9000   -6.0409 Cl  0  0  0  0  0  0  0  0  0  0  0  0
   -0.2892   -2.0630   -7.2593 Cl  0  0  0  0  0  0  0  0  0  0  0  0
   -3.9898   -1.1554   -2.8016 C   0  0  0  0  0  0  0  0  0  0  0  0
   -3.6540   -2.8554   -2.9799 S   0  0  0  0  0  0  0  0  0  0  0  0
   -2.8581    2.3800   -3.1783 C   0  0  0  0  0  0  0  0  0  0  0  0
   -3.3452    3.4731   -2.5183 C   0  0  0  0  0  0  0  0  0  0  0  0
   -4.7873    3.0786   -1.6026 S   0  0  0  0  0  0  0  0  0  0  0  0
   -2.6730    4.7296   -2.4406 C   0  0  0  0  0  0  0  0  0  0  0  0
   -1.0125    4.7439   -2.9568 S   0  0  0  0  0  0  0  0  0  0  0  0
   -0.7974    6.3749   -2.3943 C   0  0  0  0  0  0  0  0  0  0  0  0
   -1.9722    6.8764   -1.8628 C   0  0  0  0  0  0  0  0  0  0  0  0
   -3.0382    5.9505   -1.9064 C   0  0  0  0  0  0  0  0  0  0  0  0
   -4.4465    6.2836   -1.5090 C   0  0  0  0  0  0  0  0  0  0  0  0
   -5.3134    6.3803   -2.7711 C   0  0  0  0  0  0  0  0  0  0  0  0
   -4.5085    7.5771   -0.6920 C   0  0  0  0  0  0  0  0  0  0  0  0
   -3.5936    8.6545   -1.2616 C   0  0  0  0  0  0  0  0  0  0  0  0
   -2.1238    8.2258   -1.2262 C   0  0  0  0  0  0  0  0  0  0  0  0
   -1.5880    8.1837    0.2114 C   0  0  0  0  0  0  0  0  0  0  0  0
    0.5261    6.9053   -2.4920 C   0  0  0  0  0  0  0  0  0  0  0  0
    1.0983    8.0197   -1.9487 C   0  0  0  0  0  0  0  0  0  0  0  0
    2.5041    8.0823   -2.1190 C   0  0  0  0  0  0  0  0  0  0  0  0
    3.3940    9.0468   -1.6123 C   0  0  0  0  0  0  0  0  0  0  0  0
    2.9314   10.1881   -0.8415 C   0  0  0  0  0  0  0  0  0  0  0  0
    1.8796    9.9960    0.5323 S   0  0  0  0  0  0  0  0  0  0  0  0
    1.8656   11.6937    0.8641 C   0  0  0  0  0  0  0  0  0  0  0  0
    1.1298   12.2468    2.0341 C   0  0  0  0  0  0  0  0  0  0  0  0
    2.0044   12.2261    3.2900 C   0  0  0  0  0  0  0  0  0  0  0  0
    2.6406   12.3569   -0.0393 C   0  0  0  0  0  0  0  0  0  0  0  0
    2.8692   14.0573   -0.0352 Cl  0  0  0  0  0  0  0  0  0  0  0  0
    3.2443   11.5092   -1.0073 C   0  0  0  0  0  0  0  0  0  0  0  0
    4.1941   12.1212   -2.2956 Cl  0  0  0  0  0  0  0  0  0  0  0  0
    4.7493    8.8281   -1.8331 C   0  0  0  0  0  0  0  0  0  0  0  0
    5.2399    7.7320   -2.5844 C   0  0  0  0  0  0  0  0  0  0  0  0
    4.3438    6.8186   -3.1703 C   0  0  0  0  0  0  0  0  0  0  0  0
    4.8159    5.7460   -4.0256 C   0  0  0  0  0  0  0  0  0  0  0  0
    4.2565    4.1092   -3.8424 S   0  0  0  0  0  0  0  0  0  0  0  0
    5.2250    3.5455   -5.1593 C   0  0  0  0  0  0  0  0  0  0  0  0
    5.1812    2.1262   -5.6087 C   0  0  0  0  0  0  0  0  0  0  0  0
    4.2899    1.9750   -6.8440 C   0  0  0  0  0  0  0  0  0  0  0  0
    5.9254    4.5781   -5.7089 C   0  0  0  0  0  0  0  0  0  0  0  0
    5.7007    5.8247   -5.0687 C   0  0  0  0  0  0  0  0  0  0  0  0
    6.4124    7.2819   -5.6346 Cl  0  0  0  0  0  0  0  0  0  0  0  0
    6.9802    4.4060   -7.0507 Cl  0  0  0  0  0  0  0  0  0  0  0  0
    2.9987    6.9917   -2.8748 C   0  0  0  0  0  0  0  0  0  0  0  0
    1.7124    5.9251   -3.3452 S   0  0  0  0  0  0  0  0  0  0  0  0
    6.6515    7.6576   -2.5506 C   0  0  0  0  0  0  0  0  0  0  0  0
    7.2327    8.6526   -1.8188 C   0  0  0  0  0  0  0  0  0  0  0  0
    6.0532    9.7509   -1.1426 S   0  0  0  0  0  0  0  0  0  0  0  0
    8.6295    8.8101   -1.5661 C   0  0  0  0  0  0  0  0  0  0  0  0
    9.6457    8.1440   -2.1867 C   0  0  0  0  0  0  0  0  0  0  0  0
   10.9260    8.4607   -1.6725 C   0  0  0  0  0  0  0  0  0  0  0  0
   12.1663    7.9207   -2.0514 C   0  0  0  0  0  0  0  0  0  0  0  0
   12.2557    6.9018   -3.0847 C   0  0  0  0  0  0  0  0  0  0  0  0
   11.3032    5.4481   -2.9919 S   0  0  0  0  0  0  0  0  0  0  0  0
   11.9565    4.8274   -4.4705 C   0  0  0  0  0  0  0  0  0  0  0  0
   11.4834    3.5315   -5.0299 C   0  0  0  0  0  0  0  0  0  0  0  0
   10.0496    3.6496   -5.5498 C   0  0  0  0  0  0  0  0  0  0  0  0
   12.8540    5.7082   -4.9941 C   0  0  0  0  0  0  0  0  0  0  0  0
   13.7075    5.4521   -6.4605 Cl  0  0  0  0  0  0  0  0  0  0  0  0
   13.0312    6.8813   -4.2096 C   0  0  0  0  0  0  0  0  0  0  0  0
   14.0547    8.1647   -4.6998 Cl  0  0  0  0  0  0  0  0  0  0  0  0
   13.2866    8.3785   -1.3681 C   0  0  0  0  0  0  0  0  0  0  0  0
   13.2163    9.3462   -0.3367 C   0  0  0  0  0  0  0  0  0  0  0  0
   11.9786    9.8965    0.0305 C   0  0  0  0  0  0  0  0  0  0  0  0
   11.8622   10.8734    1.1022 C   0  0  0  0  0  0  0  0  0  0  0  0
   12.4745   10.5400    2.6959 S   0  0  0  0  0  0  0  0  0  0  0  0
   11.9198   12.0587    3.3138 C   0  0  0  0  0  0  0  0  0  0  0  0
   12.0938   12.4177    4.7482 C   0  0  0  0  0  0  0  0  0  0  0  0
   10.9896   11.7954    5.6062 C   0  0  0  0  0  0  0  0  0  0  0  0
   11.2952   12.7676    2.3322 C   0  0  0  0  0  0  0  0  0  0  0  0
   11.2617   12.1009    1.0772 C   0  0  0  0  0  0  0  0  0  0  0  0
   10.5994   12.8224   -0.3291 Cl  0  0  0  0  0  0  0  0  0  0  0  0
   10.6142   14.3254    2.5626 Cl  0  0  0  0  0  0  0  0  0  0  0  0
   10.8566    9.4369   -0.6484 C   0  0  0  0  0  0  0  0  0  0  0  0
    9.2106    9.9008   -0.3292 S   0  0  0  0  0  0  0  0  0  0  0  0
   14.5037    9.6246    0.2085 C   0  0  0  0  0  0  0  0  0  0  0  0
   15.4817    8.8881   -0.3571 C   0  0  0  0  0  0  0  0  0  0  0  0
   14.9194    7.8207   -1.5946 S   0  0  0  0  0  0  0  0  0  0  0  0
   -4.7667  -18.1067    7.7209 H   0  0  0  0  0  0  0  0  0  0  0  0
   -3.2202  -17.6466    5.6786 H   0  0  0  0  0  0  0  0  0  0  0  0
    1.2725  -17.5791    4.1190 H   0  0  0  0  0  0  0  0  0  0  0  0
    1.2601  -17.9227    2.3779 H   0  0  0  0  0  0  0  0  0  0  0  0
    3.0460  -16.2891    2.9501 H   0  0  0  0  0  0  0  0  0  0  0  0
    1.8400  -15.1952    3.6374 H   0  0  0  0  0  0  0  0  0  0  0  0
    1.8316  -15.5436    1.9059 H   0  0  0  0  0  0  0  0  0  0  0  0
   -8.8747  -10.1646    8.3546 H   0  0  0  0  0  0  0  0  0  0  0  0
  -10.4446  -10.9797    8.2241 H   0  0  0  0  0  0  0  0  0  0  0  0
  -10.6565  -10.1695    5.8709 H   0  0  0  0  0  0  0  0  0  0  0  0
   -9.0920   -9.3579    6.0066 H   0  0  0  0  0  0  0  0  0  0  0  0
  -10.4558   -8.8190    6.9922 H   0  0  0  0  0  0  0  0  0  0  0  0
   -6.7349  -11.6871    3.8676 H   0  0  0  0  0  0  0  0  0  0  0  0
   -6.6101   -9.6136    2.7647 H   0  0  0  0  0  0  0  0  0  0  0  0
  -10.8966   -6.9031    4.7987 H   0  0  0  0  0  0  0  0  0  0  0  0
  -11.0571   -8.3239    3.7486 H   0  0  0  0  0  0  0  0  0  0  0  0
  -11.9250   -6.8618    1.9178 H   0  0  0  0  0  0  0  0  0  0  0  0
  -11.7647   -5.4518    2.9693 H   0  0  0  0  0  0  0  0  0  0  0  0
  -12.9224   -6.7246    3.3698 H   0  0  0  0  0  0  0  0  0  0  0  0
    0.1777  -10.3044   -4.3209 H   0  0  0  0  0  0  0  0  0  0  0  0
    0.4736  -10.6353   -2.6027 H   0  0  0  0  0  0  0  0  0  0  0  0
    1.0218   -7.9790   -4.0166 H   0  0  0  0  0  0  0  0  0  0  0  0
    2.2432   -9.1615   -3.5371 H   0  0  0  0  0  0  0  0  0  0  0  0
    1.3123   -8.3026   -2.3044 H   0  0  0  0  0  0  0  0  0  0  0  0
   -3.5882   -5.6891   -2.3622 H   0  0  0  0  0  0  0  0  0  0  0  0
   -6.5117   -2.2174   -0.8423 H   0  0  0  0  0  0  0  0  0  0  0  0
   -8.0983    0.5018    3.4780 H   0  0  0  0  0  0  0  0  0  0  0  0
   -9.6721    0.7656    2.7128 H   0  0  0  0  0  0  0  0  0  0  0  0
   -8.0960   -1.8632    2.7019 H   0  0  0  0  0  0  0  0  0  0  0  0
   -9.6676   -1.6211    1.9347 H   0  0  0  0  0  0  0  0  0  0  0  0
   -9.5181   -1.5204    3.6915 H   0  0  0  0  0  0  0  0  0  0  0  0
    1.8808   -0.3571   -6.4626 H   0  0  0  0  0  0  0  0  0  0  0  0
    2.0400    0.6611   -5.0157 H   0  0  0  0  0  0  0  0  0  0  0  0
    2.1983   -2.3924   -5.0530 H   0  0  0  0  0  0  0  0  0  0  0  0
    3.5755   -1.2961   -4.9086 H   0  0  0  0  0  0  0  0  0  0  0  0
    2.3689   -1.3750   -3.6194 H   0  0  0  0  0  0  0  0  0  0  0  0
   -1.9927    2.4371   -3.8126 H   0  0  0  0  0  0  0  0  0  0  0  0
   -4.8445    5.4681   -0.8947 H   0  0  0  0  0  0  0  0  0  0  0  0
   -4.9597    7.1769   -3.4213 H   0  0  0  0  0  0  0  0  0  0  0  0
   -6.3464    6.5834   -2.4998 H   0  0  0  0  0  0  0  0  0  0  0  0
   -5.2832    5.4475   -3.3281 H   0  0  0  0  0  0  0  0  0  0  0  0
   -4.2263    7.3680    0.3405 H   0  0  0  0  0  0  0  0  0  0  0  0
   -5.5380    7.9389   -0.6803 H   0  0  0  0  0  0  0  0  0  0  0  0
   -3.8785    8.8652   -2.2940 H   0  0  0  0  0  0  0  0  0  0  0  0
   -3.7115    9.5770   -0.6900 H   0  0  0  0  0  0  0  0  0  0  0  0
   -1.5392    8.9565   -1.7950 H   0  0  0  0  0  0  0  0  0  0  0  0
   -1.6541    9.1707    0.6635 H   0  0  0  0  0  0  0  0  0  0  0  0
   -2.1613    7.4852    0.8140 H   0  0  0  0  0  0  0  0  0  0  0  0
   -0.5505    7.8621    0.2322 H   0  0  0  0  0  0  0  0  0  0  0  0
    0.5565    8.7727   -1.4132 H   0  0  0  0  0  0  0  0  0  0  0  0
    0.2294   11.6553    2.2087 H   0  0  0  0  0  0  0  0  0  0  0  0
    0.8379   13.2745    1.8099 H   0  0  0  0  0  0  0  0  0  0  0  0
    2.3005   11.2070    3.5271 H   0  0  0  0  0  0  0  0  0  0  0  0
    1.4555   12.6361    4.1335 H   0  0  0  0  0  0  0  0  0  0  0  0
    2.9003   12.8213    3.1342 H   0  0  0  0  0  0  0  0  0  0  0  0
    4.7985    1.5053   -4.7977 H   0  0  0  0  0  0  0  0  0  0  0  0
    6.1944    1.7994   -5.8531 H   0  0  0  0  0  0  0  0  0  0  0  0
    4.6846    2.5661   -7.6658 H   0  0  0  0  0  0  0  0  0  0  0  0
    3.2805    2.3152   -6.6270 H   0  0  0  0  0  0  0  0  0  0  0  0
    4.2518    0.9337   -7.1518 H   0  0  0  0  0  0  0  0  0  0  0  0
    7.2120    6.8635   -3.0061 H   0  0  0  0  0  0  0  0  0  0  0  0
    9.4856    7.4548   -2.9939 H   0  0  0  0  0  0  0  0  0  0  0  0
   11.5239    2.7628   -4.2549 H   0  0  0  0  0  0  0  0  0  0  0  0
   12.1502    3.2415   -5.8433 H   0  0  0  0  0  0  0  0  0  0  0  0
    9.9912    4.4077   -6.3266 H   0  0  0  0  0  0  0  0  0  0  0  0
    9.3756    3.9267   -4.7421 H   0  0  0  0  0  0  0  0  0  0  0  0
    9.7221    2.7008   -5.9663 H   0  0  0  0  0  0  0  0  0  0  0  0
   13.0658   12.0637    5.0961 H   0  0  0  0  0  0  0  0  0  0  0  0
   12.0619   13.5047    4.8419 H   0  0  0  0  0  0  0  0  0  0  0  0
   10.0147   12.1464    5.2776 H   0  0  0  0  0  0  0  0  0  0  0  0
   11.0144   10.7113    5.5248 H   0  0  0  0  0  0  0  0  0  0  0  0
   11.1267   12.0712    6.6483 H   0  0  0  0  0  0  0  0  0  0  0  0
   14.6748   10.3451    0.9867 H   0  0  0  0  0  0  0  0  0  0  0  0
   16.5301    8.9020   -0.1314 H   0  0  0  0  0  0  0  0  0  0  0  0
  1  2  2  0  0  0  0
  2  3  1  0  0  0  0
  3  4  2  0  0  0  0
  4  5  1  0  0  0  0
  5  6  1  0  0  0  0
  6  7  1  0  0  0  0
  7  8  1  0  0  0  0
  8  9  1  0  0  0  0
  7 10  2  0  0  0  0
 10 11  1  0  0  0  0
 10 12  1  0  0  0  0
 12 13  1  0  0  0  0
  4 14  1  0  0  0  0
 14 15  2  0  0  0  0
 15 16  1  0  0  0  0
 16 17  1  0  0  0  0
 17 18  1  0  0  0  0
 18 19  1  0  0  0  0
 19 20  1  0  0  0  0
 20 21  1  0  0  0  0
 19 22  2  0  0  0  0
 22 23  1  0  0  0  0
 23 24  1  0  0  0  0
 22 25  1  0  0  0  0
 16 26  2  0  0  0  0
 26 27  1  0  0  0  0
 15 28  1  0  0  0  0
 28 29  2  0  0  0  0
 29 30  1  0  0  0  0
 29 31  1  0  0  0  0
 31 32  2  0  0  0  0
 32 33  1  0  0  0  0
 33 34  2  0  0  0  0
 34 35  1  0  0  0  0
 35 36  1  0  0  0  0
 36 37  1  0  0  0  0
 37 38  1  0  0  0  0
 38 39  1  0  0  0  0
 37 40  2  0  0  0  0
 40 41  1  0  0  0  0
 40 42  1  0  0  0  0
 42 43  1  0  0  0  0
 34 44  1  0  0  0  0
 44 45  2  0  0  0  0
 45 46  1  0  0  0  0
 46 47  1  0  0  0  0
 47 48  1  0  0  0  0
 48 49  1  0  0  0  0
 49 50  1  0  0  0  0
 50 51  1  0  0  0  0
 49 52  2  0  0  0  0
 52 53  1  0  0  0  0
 53 54  1  0  0  0  0
 52 55  1  0  0  0  0
 46 56  2  0  0  0  0
 56 57  1  0  0  0  0
 45 58  1  0  0  0  0
 58 59  2  0  0  0  0
 59 60  1  0  0  0  0
 59 61  1  0  0  0  0
 61 62  2  0  0  0  0
 62 63  1  0  0  0  0
 63 64  2  0  0  0  0
 64 65  1  0  0  0  0
 65 66  1  0  0  0  0
 66 67  1  0  0  0  0
 67 68  1  0  0  0  0
 68 69  1  0  0  0  0
 67 70  2  0  0  0  0
 70 71  1  0  0  0  0
 70 72  1  0  0  0  0
 72 73  1  0  0  0  0
 64 74  1  0  0  0  0
 74 75  2  0  0  0  0
 75 76  1  0  0  0  0
 76 77  1  0  0  0  0
 77 78  1  0  0  0  0
 78 79  1  0  0  0  0
 79 80  1  0  0  0  0
 80 81  1  0  0  0  0
 79 82  2  0  0  0  0
 82 83  1  0  0  0  0
 83 84  1  0  0  0  0
 82 85  1  0  0  0  0
 76 86  2  0  0  0  0
 86 87  1  0  0  0  0
 75 88  1  0  0  0  0
 88 89  2  0  0  0  0
 89 90  1  0  0  0  0
 89 91  1  0  0  0  0
 91 92  1  0  0  0  0
 92 93  1  0  0  0  0
 93 94  2  0  0  0  0
 94 95  1  0  0  0  0
 95 96  1  0  0  0  0
 96 97  1  0  0  0  0
 96 98  1  0  0  0  0
 98 99  1  0  0  0  0
 99100  1  0  0  0  0
100101  1  0  0  0  0
 93102  1  0  0  0  0
102103  2  0  0  0  0
103104  1  0  0  0  0
104105  2  0  0  0  0
105106  1  0  0  0  0
106107  1  0  0  0  0
107108  1  0  0  0  0
108109  1  0  0  0  0
109110  1  0  0  0  0
108111  2  0  0  0  0
111112  1  0  0  0  0
111113  1  0  0  0  0
113114  1  0  0  0  0
105115  1  0  0  0  0
115116  2  0  0  0  0
116117  1  0  0  0  0
117118  1  0  0  0  0
118119  1  0  0  0  0
119120  1  0  0  0  0
120121  1  0  0  0  0
121122  1  0  0  0  0
120123  2  0  0  0  0
123124  1  0  0  0  0
124125  1  0  0  0  0
123126  1  0  0  0  0
117127  2  0  0  0  0
127128  1  0  0  0  0
116129  1  0  0  0  0
129130  2  0  0  0  0
130131  1  0  0  0  0
130132  1  0  0  0  0
132133  2  0  0  0  0
133134  1  0  0  0  0
134135  2  0  0  0  0
135136  1  0  0  0  0
136137  1  0  0  0  0
137138  1  0  0  0  0
138139  1  0  0  0  0
139140  1  0  0  0  0
138141  2  0  0  0  0
141142  1  0  0  0  0
141143  1  0  0  0  0
143144  1  0  0  0  0
135145  1  0  0  0  0
145146  2  0  0  0  0
146147  1  0  0  0  0
147148  1  0  0  0  0
148149  1  0  0  0  0
149150  1  0  0  0  0
150151  1  0  0  0  0
151152  1  0  0  0  0
150153  2  0  0  0  0
153154  1  0  0  0  0
154155  1  0  0  0  0
153156  1  0  0  0  0
147157  2  0  0  0  0
157158  1  0  0  0  0
146159  1  0  0  0  0
159160  2  0  0  0  0
160161  1  0  0  0  0
 27  1  1  0  0  0  0
 57 31  1  0  0  0  0
 87 61  1  0  0  0  0
 95 91  2  0  0  0  0
128102  1  0  0  0  0
158132  1  0  0  0  0
 26  3  1  0  0  0  0
 56 33  1  0  0  0  0
 86 63  1  0  0  0  0
100 94  1  0  0  0  0
127104  1  0  0  0  0
157134  1  0  0  0  0
 12  5  2  0  0  0  0
 30 14  1  0  0  0  0
 42 35  2  0  0  0  0
 60 44  1  0  0  0  0
 72 65  2  0  0  0  0
 90 74  1  0  0  0  0
113106  2  0  0  0  0
131115  1  0  0  0  0
143136  2  0  0  0  0
161145  1  0  0  0  0
 23 17  2  0  0  0  0
 53 47  2  0  0  0  0
 83 77  2  0  0  0  0
124118  2  0  0  0  0
154148  2  0  0  0  0
  1162  1  0  0  0  0
  2163  1  0  0  0  0
  8164  1  0  0  0  0
  8165  1  0  0  0  0
  9166  1  0  0  0  0
  9167  1  0  0  0  0
  9168  1  0  0  0  0
 20169  1  0  0  0  0
 20170  1  0  0  0  0
 21171  1  0  0  0  0
 21172  1  0  0  0  0
 21173  1  0  0  0  0
 28174  1  0  0  0  0
 32175  1  0  0  0  0
 38176  1  0  0  0  0
 38177  1  0  0  0  0
 39178  1  0  0  0  0
 39179  1  0  0  0  0
 39180  1  0  0  0  0
 50181  1  0  0  0  0
 50182  1  0  0  0  0
 51183  1  0  0  0  0
 51184  1  0  0  0  0
 51185  1  0  0  0  0
 58186  1  0  0  0  0
 62187  1  0  0  0  0
 68188  1  0  0  0  0
 68189  1  0  0  0  0
 69190  1  0  0  0  0
 69191  1  0  0  0  0
 69192  1  0  0  0  0
 80193  1  0  0  0  0
 80194  1  0  0  0  0
 81195  1  0  0  0  0
 81196  1  0  0  0  0
 81197  1  0  0  0  0
 88198  1  0  0  0  0
 96199  1  0  0  0  0
 97200  1  0  0  0  0
 97201  1  0  0  0  0
 97202  1  0  0  0  0
 98203  1  0  0  0  0
 98204  1  0  0  0  0
 99205  1  0  0  0  0
 99206  1  0  0  0  0
100207  1  0  0  0  0
101208  1  0  0  0  0
101209  1  0  0  0  0
101210  1  0  0  0  0
103211  1  0  0  0  0
109212  1  0  0  0  0
109213  1  0  0  0  0
110214  1  0  0  0  0
110215  1  0  0  0  0
110216  1  0  0  0  0
121217  1  0  0  0  0
121218  1  0  0  0  0
122219  1  0  0  0  0
122220  1  0  0  0  0
122221  1  0  0  0  0
129222  1  0  0  0  0
133223  1  0  0  0  0
139224  1  0  0  0  0
139225  1  0  0  0  0
140226  1  0  0  0  0
140227  1  0  0  0  0
140228  1  0  0  0  0
151229  1  0  0  0  0
151230  1  0  0  0  0
152231  1  0  0  0  0
152232  1  0  0  0  0
152233  1  0  0  0  0
159234  1  0  0  0  0
160235  1  0  0  0  0
M  END
